data_image0
_cell_length_a       27.7056
_cell_length_b       23.395
_cell_length_c       21.0709
_cell_angle_alpha    90
_cell_angle_beta     113.911
_cell_angle_gamma    90

_symmetry_space_group_name_H-M    "P 1"
_symmetry_int_tables_number       1

loop_
  _symmetry_equiv_pos_as_xyz
  'x, y, z'

loop_
  _atom_site_label
  _atom_site_occupancy
  _atom_site_fract_x
  _atom_site_fract_y
  _atom_site_fract_z
  _atom_site_thermal_displace_type
  _atom_site_B_iso_or_equiv
  _atom_site_type_symbol
  C1       1.0000 0.58963  0.27310  0.09724  Biso   1.000  C
  C2       1.0000 0.54830  0.31047  0.84637  Biso   1.000  C
  C3       1.0000 0.36007  0.28862  0.67741  Biso   1.000  C
  C4       1.0000 0.26918  0.30038  0.58906  Biso   1.000  C
  H1       1.0000 0.25340  0.27480  0.61600  Biso   1.000  H
  C5       1.0000 0.82786  0.41941  0.97700  Biso   1.000  C
  C6       1.0000 0.86200  0.28282  0.17485  Biso   1.000  C
  C7       1.0000 0.75416  0.36707  0.99251  Biso   1.000  C
  H2       1.0000 0.73080  0.38470  0.95220  Biso   1.000  H
  C8       1.0000 0.64012  0.32227  0.93855  Biso   1.000  C
  H3       1.0000 0.65110  0.33210  0.90370  Biso   1.000  H
  C9       1.0000 0.58713  0.31003  0.92108  Biso   1.000  C
  C10      1.0000 0.32181  0.31487  0.61151  Biso   1.000  C
  C11      1.0000 0.31557  0.41708  0.47000  Biso   1.000  C
  C12      1.0000 0.84313  0.35143  0.07556  Biso   1.000  C
  H4       1.0000 0.87910  0.35920  0.09210  Biso   1.000  H
  C13      1.0000 0.73443  0.33033  0.02821  Biso   1.000  C
  C14      1.0000 0.65900  0.30682  0.05859  Biso   1.000  C
  H5       1.0000 0.68230  0.30800  0.10510  Biso   1.000  H
  C15      1.0000 0.60654  0.29188  0.04153  Biso   1.000  C
  C16      1.0000 0.23051  0.32442  0.52878  Biso   1.000  C
  C17      1.0000 0.17405  0.31036  0.50810  Biso   1.000  C
  C18      1.0000 0.08877  0.25890  0.59750  Biso   1.000  C
  C19      1.0000 0.06870  0.27804  0.47255  Biso   1.000  C
  H6       1.0000 0.03410  0.26600  0.46060  Biso   1.000  H
  C20      1.0000 0.13741  0.31108  0.43860  Biso   1.000  C
  H7       1.0000 0.14830  0.32200  0.40400  Biso   1.000  H
  C21      1.0000 0.67749  0.32009  0.00766  Biso   1.000  C
  C22      1.0000 0.80842  0.37813  0.01581  Biso   1.000  C
  C23      1.0000 0.10444  0.27863  0.54176  Biso   1.000  C
  C24      1.0000 0.77197  0.30315  0.08717  Biso   1.000  C
  H8       1.0000 0.76020  0.27710  0.11100  Biso   1.000  H
  C25      1.0000 0.57068  0.29294  0.97266  Biso   1.000  C
  H9       1.0000 0.53580  0.28230  0.96090  Biso   1.000  H
  C26      1.0000 0.08537  0.29585  0.42081  Biso   1.000  C
  C27      1.0000 0.15602  0.29570  0.55843  Biso   1.000  C
  H10      1.0000 0.17930  0.29750  0.60490  Biso   1.000  H
  C28      1.0000 0.33807  0.35304  0.57300  Biso   1.000  C
  H11      1.0000 0.37350  0.36300  0.58800  Biso   1.000  H
  C29      1.0000 0.30094  0.37583  0.51235  Biso   1.000  C
  C30      1.0000 0.24755  0.36148  0.49027  Biso   1.000  C
  H12      1.0000 0.22300  0.37690  0.44920  Biso   1.000  H
  C31      1.0000 0.04661  0.29517  0.34540  Biso   1.000  C
  C32      1.0000 0.90670  0.61350  0.84980  Biso   1.000  C
  H13      1.0000 0.94310  0.61050  0.87470  Biso   1.000  H
  C33      1.0000 0.88380  0.10690  0.33090  Biso   1.000  C
  H14      1.0000 0.91800  0.10110  0.36380  Biso   1.000  H
  O1       1.0000 0.50101  0.29831  0.83191  Biso   1.000  O
  O2       1.0000 0.55112  0.23942  0.08306  Biso   1.000  O
  O3       1.0000 0.84466  0.24418  0.20041  Biso   1.000  O
  O4       1.0000 0.05404  0.22150  0.58593  Biso   1.000  O
  O5       1.0000 0.34667  0.24696  0.70362  Biso   1.000  O
  O6       1.0000 0.89412  0.65567  0.81052  Biso   1.000  O
  O7       1.0000 0.91048  0.29750  0.20226  Biso   1.000  O
  O8       1.0000 0.06272  0.30956  0.30015  Biso   1.000  O
  O9       1.0000 0.56537  0.32327  0.80164  Biso   1.000  O
  O10      1.0000 0.11211  0.28055  0.65775  Biso   1.000  O
  O11      1.0000 0.61503  0.29024  0.15925  Biso   1.000  O
  O12      1.0000 0.87597  0.43361  0.00276  Biso   1.000  O
  O13      1.0000 0.79734  0.43941  0.92086  Biso   1.000  O
  O14      1.0000 0.40709  0.30838  0.70617  Biso   1.000  O
  O15      1.0000 0.00061  0.27966  0.33227  Biso   1.000  O
  O16      1.0000 0.87769  0.14970  0.29465  Biso   1.000  O
  O17      1.0000 0.36311  0.43222  0.48725  Biso   1.000  O
  O18      1.0000 0.85210  0.07125  0.33014  Biso   1.000  O
  O19      1.0000 0.88387  0.57701  0.86259  Biso   1.000  O
  C34      1.0000 0.82474  0.31332  0.11081  Biso   1.000  C
  O20      1.0000 0.28115  0.43805  0.41688  Biso   1.000  O
  Tm1      1.0000 0.43408  0.23553  0.79378  Biso   1.000  Tm
  Tm2      1.0000 0.93025  0.22295  0.28999  Biso   1.000  Tm
  C35      1.0000 0.08963  0.77310  0.09724  Biso   1.000  C
  C36      1.0000 0.04830  0.81047  0.84637  Biso   1.000  C
  C37      1.0000 0.86007  0.78862  0.67741  Biso   1.000  C
  C38      1.0000 0.76918  0.80038  0.58906  Biso   1.000  C
  H15      1.0000 0.75340  0.77480  0.61600  Biso   1.000  H
  C39      1.0000 0.32786  0.91941  0.97700  Biso   1.000  C
  C40      1.0000 0.36200  0.78282  0.17485  Biso   1.000  C
  C41      1.0000 0.25416  0.86707  0.99251  Biso   1.000  C
  H16      1.0000 0.23080  0.88470  0.95220  Biso   1.000  H
  C42      1.0000 0.14012  0.82227  0.93855  Biso   1.000  C
  H17      1.0000 0.15110  0.83210  0.90370  Biso   1.000  H
  C43      1.0000 0.08713  0.81003  0.92108  Biso   1.000  C
  C44      1.0000 0.82181  0.81487  0.61151  Biso   1.000  C
  C45      1.0000 0.81557  0.91708  0.47000  Biso   1.000  C
  C46      1.0000 0.34313  0.85143  0.07556  Biso   1.000  C
  H18      1.0000 0.37910  0.85920  0.09210  Biso   1.000  H
  C47      1.0000 0.23443  0.83033  0.02821  Biso   1.000  C
  C48      1.0000 0.15900  0.80682  0.05859  Biso   1.000  C
  H19      1.0000 0.18230  0.80800  0.10510  Biso   1.000  H
  C49      1.0000 0.10654  0.79188  0.04153  Biso   1.000  C
  C50      1.0000 0.73051  0.82442  0.52878  Biso   1.000  C
  C51      1.0000 0.67405  0.81036  0.50810  Biso   1.000  C
  C52      1.0000 0.58877  0.75890  0.59750  Biso   1.000  C
  C53      1.0000 0.56870  0.77804  0.47255  Biso   1.000  C
  H20      1.0000 0.53410  0.76600  0.46060  Biso   1.000  H
  C54      1.0000 0.63741  0.81108  0.43860  Biso   1.000  C
  H21      1.0000 0.64830  0.82200  0.40400  Biso   1.000  H
  C55      1.0000 0.17749  0.82009  0.00766  Biso   1.000  C
  C56      1.0000 0.30842  0.87813  0.01581  Biso   1.000  C
  C57      1.0000 0.60444  0.77863  0.54176  Biso   1.000  C
  C58      1.0000 0.27197  0.80315  0.08717  Biso   1.000  C
  H22      1.0000 0.26020  0.77710  0.11100  Biso   1.000  H
  C59      1.0000 0.07068  0.79294  0.97266  Biso   1.000  C
  H23      1.0000 0.03580  0.78230  0.96090  Biso   1.000  H
  C60      1.0000 0.58537  0.79585  0.42081  Biso   1.000  C
  C61      1.0000 0.65602  0.79570  0.55843  Biso   1.000  C
  H24      1.0000 0.67930  0.79750  0.60490  Biso   1.000  H
  C62      1.0000 0.83807  0.85304  0.57300  Biso   1.000  C
  H25      1.0000 0.87350  0.86300  0.58800  Biso   1.000  H
  C63      1.0000 0.80094  0.87583  0.51235  Biso   1.000  C
  C64      1.0000 0.74755  0.86148  0.49027  Biso   1.000  C
  H26      1.0000 0.72300  0.87690  0.44920  Biso   1.000  H
  C65      1.0000 0.54661  0.79517  0.34540  Biso   1.000  C
  C66      1.0000 0.40670  0.11350  0.84980  Biso   1.000  C
  H27      1.0000 0.44310  0.11050  0.87470  Biso   1.000  H
  C67      1.0000 0.38380  0.60690  0.33090  Biso   1.000  C
  H28      1.0000 0.41800  0.60110  0.36380  Biso   1.000  H
  O21      1.0000 0.00101  0.79831  0.83191  Biso   1.000  O
  O22      1.0000 0.05112  0.73942  0.08306  Biso   1.000  O
  O23      1.0000 0.34466  0.74418  0.20041  Biso   1.000  O
  O24      1.0000 0.55404  0.72150  0.58593  Biso   1.000  O
  O25      1.0000 0.84667  0.74696  0.70362  Biso   1.000  O
  O26      1.0000 0.39412  0.15567  0.81052  Biso   1.000  O
  O27      1.0000 0.41048  0.79750  0.20226  Biso   1.000  O
  O28      1.0000 0.56272  0.80956  0.30015  Biso   1.000  O
  O29      1.0000 0.06537  0.82327  0.80164  Biso   1.000  O
  O30      1.0000 0.61211  0.78055  0.65775  Biso   1.000  O
  O31      1.0000 0.11503  0.79024  0.15925  Biso   1.000  O
  O32      1.0000 0.37597  0.93361  0.00276  Biso   1.000  O
  O33      1.0000 0.29734  0.93941  0.92086  Biso   1.000  O
  O34      1.0000 0.90709  0.80838  0.70617  Biso   1.000  O
  O35      1.0000 0.50061  0.77966  0.33227  Biso   1.000  O
  O36      1.0000 0.37769  0.64970  0.29465  Biso   1.000  O
  O37      1.0000 0.86311  0.93222  0.48725  Biso   1.000  O
  O38      1.0000 0.35210  0.57125  0.33014  Biso   1.000  O
  O39      1.0000 0.38387  0.07701  0.86259  Biso   1.000  O
  C68      1.0000 0.32474  0.81332  0.11081  Biso   1.000  C
  O40      1.0000 0.78115  0.93805  0.41688  Biso   1.000  O
  Tm3      1.0000 0.93408  0.73553  0.79378  Biso   1.000  Tm
  Tm4      1.0000 0.43025  0.72295  0.28999  Biso   1.000  Tm
  C69      1.0000 0.41037  0.27310  0.90276  Biso   1.000  C
  C70      1.0000 0.45170  0.31047  0.15363  Biso   1.000  C
  C71      1.0000 0.63993  0.28862  0.32259  Biso   1.000  C
  C72      1.0000 0.73082  0.30038  0.41094  Biso   1.000  C
  H29      1.0000 0.74660  0.27480  0.38400  Biso   1.000  H
  C73      1.0000 0.17214  0.41941  0.02300  Biso   1.000  C
  C74      1.0000 0.13800  0.28282  0.82515  Biso   1.000  C
  C75      1.0000 0.24584  0.36707  0.00749  Biso   1.000  C
  H30      1.0000 0.26920  0.38470  0.04780  Biso   1.000  H
  C76      1.0000 0.35988  0.32227  0.06145  Biso   1.000  C
  H31      1.0000 0.34890  0.33210  0.09630  Biso   1.000  H
  C77      1.0000 0.41287  0.31003  0.07892  Biso   1.000  C
  C78      1.0000 0.67819  0.31487  0.38849  Biso   1.000  C
  C79      1.0000 0.68443  0.41708  0.53000  Biso   1.000  C
  C80      1.0000 0.15687  0.35143  0.92444  Biso   1.000  C
  H32      1.0000 0.12090  0.35920  0.90790  Biso   1.000  H
  C81      1.0000 0.26557  0.33033  0.97179  Biso   1.000  C
  C82      1.0000 0.34100  0.30682  0.94141  Biso   1.000  C
  H33      1.0000 0.31770  0.30800  0.89490  Biso   1.000  H
  C83      1.0000 0.39346  0.29188  0.95847  Biso   1.000  C
  C84      1.0000 0.76949  0.32442  0.47122  Biso   1.000  C
  C85      1.0000 0.82595  0.31036  0.49190  Biso   1.000  C
  C86      1.0000 0.91123  0.25890  0.40250  Biso   1.000  C
  C87      1.0000 0.93130  0.27804  0.52745  Biso   1.000  C
  H34      1.0000 0.96590  0.26600  0.53940  Biso   1.000  H
  C88      1.0000 0.86259  0.31108  0.56140  Biso   1.000  C
  H35      1.0000 0.85170  0.32200  0.59600  Biso   1.000  H
  C89      1.0000 0.32251  0.32009  0.99234  Biso   1.000  C
  C90      1.0000 0.19158  0.37813  0.98419  Biso   1.000  C
  C91      1.0000 0.89556  0.27863  0.45824  Biso   1.000  C
  C92      1.0000 0.22803  0.30315  0.91283  Biso   1.000  C
  H36      1.0000 0.23980  0.27710  0.88900  Biso   1.000  H
  C93      1.0000 0.42932  0.29294  0.02734  Biso   1.000  C
  H37      1.0000 0.46420  0.28230  0.03910  Biso   1.000  H
  C94      1.0000 0.91463  0.29585  0.57919  Biso   1.000  C
  C95      1.0000 0.84398  0.29570  0.44157  Biso   1.000  C
  H38      1.0000 0.82070  0.29750  0.39510  Biso   1.000  H
  C96      1.0000 0.66193  0.35304  0.42700  Biso   1.000  C
  H39      1.0000 0.62650  0.36300  0.41200  Biso   1.000  H
  C97      1.0000 0.69906  0.37583  0.48765  Biso   1.000  C
  C98      1.0000 0.75245  0.36148  0.50973  Biso   1.000  C
  H40      1.0000 0.77700  0.37690  0.55080  Biso   1.000  H
  C99      1.0000 0.95339  0.29517  0.65460  Biso   1.000  C
  C100     1.0000 0.09330  0.61350  0.15020  Biso   1.000  C
  H41      1.0000 0.05690  0.61050  0.12530  Biso   1.000  H
  C101     1.0000 0.11620  0.10690  0.66910  Biso   1.000  C
  H42      1.0000 0.08200  0.10110  0.63620  Biso   1.000  H
  O41      1.0000 0.49899  0.29831  0.16809  Biso   1.000  O
  O42      1.0000 0.44888  0.23942  0.91694  Biso   1.000  O
  O43      1.0000 0.15534  0.24418  0.79959  Biso   1.000  O
  O44      1.0000 0.94596  0.22150  0.41407  Biso   1.000  O
  O45      1.0000 0.65333  0.24696  0.29638  Biso   1.000  O
  O46      1.0000 0.10588  0.65567  0.18948  Biso   1.000  O
  O47      1.0000 0.08952  0.29750  0.79774  Biso   1.000  O
  O48      1.0000 0.93728  0.30956  0.69985  Biso   1.000  O
  O49      1.0000 0.43463  0.32327  0.19836  Biso   1.000  O
  O50      1.0000 0.88789  0.28055  0.34225  Biso   1.000  O
  O51      1.0000 0.38497  0.29024  0.84075  Biso   1.000  O
  O52      1.0000 0.12403  0.43361  0.99724  Biso   1.000  O
  O53      1.0000 0.20266  0.43941  0.07914  Biso   1.000  O
  O54      1.0000 0.59291  0.30838  0.29383  Biso   1.000  O
  O55      1.0000 0.99939  0.27966  0.66773  Biso   1.000  O
  O56      1.0000 0.12231  0.14970  0.70535  Biso   1.000  O
  O57      1.0000 0.63689  0.43222  0.51275  Biso   1.000  O
  O58      1.0000 0.14790  0.07125  0.66986  Biso   1.000  O
  O59      1.0000 0.11613  0.57701  0.13741  Biso   1.000  O
  C102     1.0000 0.17526  0.31332  0.88919  Biso   1.000  C
  O60      1.0000 0.71885  0.43805  0.58312  Biso   1.000  O
  Tm5      1.0000 0.56592  0.23553  0.20622  Biso   1.000  Tm
  Tm6      1.0000 0.06975  0.22295  0.71001  Biso   1.000  Tm
  C103     1.0000 0.91037  0.77310  0.90276  Biso   1.000  C
  C104     1.0000 0.95170  0.81047  0.15363  Biso   1.000  C
  C105     1.0000 0.13993  0.78862  0.32259  Biso   1.000  C
  C106     1.0000 0.23082  0.80038  0.41094  Biso   1.000  C
  H43      1.0000 0.24660  0.77480  0.38400  Biso   1.000  H
  C107     1.0000 0.67214  0.91941  0.02300  Biso   1.000  C
  C108     1.0000 0.63800  0.78282  0.82515  Biso   1.000  C
  C109     1.0000 0.74584  0.86707  0.00749  Biso   1.000  C
  H44      1.0000 0.76920  0.88470  0.04780  Biso   1.000  H
  C110     1.0000 0.85988  0.82227  0.06145  Biso   1.000  C
  H45      1.0000 0.84890  0.83210  0.09630  Biso   1.000  H
  C111     1.0000 0.91287  0.81003  0.07892  Biso   1.000  C
  C112     1.0000 0.17819  0.81487  0.38849  Biso   1.000  C
  C113     1.0000 0.18443  0.91708  0.53000  Biso   1.000  C
  C114     1.0000 0.65687  0.85143  0.92444  Biso   1.000  C
  H46      1.0000 0.62090  0.85920  0.90790  Biso   1.000  H
  C115     1.0000 0.76557  0.83033  0.97179  Biso   1.000  C
  C116     1.0000 0.84100  0.80682  0.94141  Biso   1.000  C
  H47      1.0000 0.81770  0.80800  0.89490  Biso   1.000  H
  C117     1.0000 0.89346  0.79188  0.95847  Biso   1.000  C
  C118     1.0000 0.26949  0.82442  0.47122  Biso   1.000  C
  C119     1.0000 0.32595  0.81036  0.49190  Biso   1.000  C
  C120     1.0000 0.41123  0.75890  0.40250  Biso   1.000  C
  C121     1.0000 0.43130  0.77804  0.52745  Biso   1.000  C
  H48      1.0000 0.46590  0.76600  0.53940  Biso   1.000  H
  C122     1.0000 0.36259  0.81108  0.56140  Biso   1.000  C
  H49      1.0000 0.35170  0.82200  0.59600  Biso   1.000  H
  C123     1.0000 0.82251  0.82009  0.99234  Biso   1.000  C
  C124     1.0000 0.69158  0.87813  0.98419  Biso   1.000  C
  C125     1.0000 0.39556  0.77863  0.45824  Biso   1.000  C
  C126     1.0000 0.72803  0.80315  0.91283  Biso   1.000  C
  H50      1.0000 0.73980  0.77710  0.88900  Biso   1.000  H
  C127     1.0000 0.92932  0.79294  0.02734  Biso   1.000  C
  H51      1.0000 0.96420  0.78230  0.03910  Biso   1.000  H
  C128     1.0000 0.41463  0.79585  0.57919  Biso   1.000  C
  C129     1.0000 0.34398  0.79570  0.44157  Biso   1.000  C
  H52      1.0000 0.32070  0.79750  0.39510  Biso   1.000  H
  C130     1.0000 0.16193  0.85304  0.42700  Biso   1.000  C
  H53      1.0000 0.12650  0.86300  0.41200  Biso   1.000  H
  C131     1.0000 0.19906  0.87583  0.48765  Biso   1.000  C
  C132     1.0000 0.25245  0.86148  0.50973  Biso   1.000  C
  H54      1.0000 0.27700  0.87690  0.55080  Biso   1.000  H
  C133     1.0000 0.45339  0.79517  0.65460  Biso   1.000  C
  C134     1.0000 0.59330  0.11350  0.15020  Biso   1.000  C
  H55      1.0000 0.55690  0.11050  0.12530  Biso   1.000  H
  C135     1.0000 0.61620  0.60690  0.66910  Biso   1.000  C
  H56      1.0000 0.58200  0.60110  0.63620  Biso   1.000  H
  O61      1.0000 0.99899  0.79831  0.16809  Biso   1.000  O
  O62      1.0000 0.94888  0.73942  0.91694  Biso   1.000  O
  O63      1.0000 0.65534  0.74418  0.79959  Biso   1.000  O
  O64      1.0000 0.44596  0.72150  0.41407  Biso   1.000  O
  O65      1.0000 0.15333  0.74696  0.29638  Biso   1.000  O
  O66      1.0000 0.60588  0.15567  0.18948  Biso   1.000  O
  O67      1.0000 0.58952  0.79750  0.79774  Biso   1.000  O
  O68      1.0000 0.43728  0.80956  0.69985  Biso   1.000  O
  O69      1.0000 0.93463  0.82327  0.19836  Biso   1.000  O
  O70      1.0000 0.38789  0.78055  0.34225  Biso   1.000  O
  O71      1.0000 0.88497  0.79024  0.84075  Biso   1.000  O
  O72      1.0000 0.62403  0.93361  0.99724  Biso   1.000  O
  O73      1.0000 0.70266  0.93941  0.07914  Biso   1.000  O
  O74      1.0000 0.09291  0.80838  0.29383  Biso   1.000  O
  O75      1.0000 0.49939  0.77966  0.66773  Biso   1.000  O
  O76      1.0000 0.62231  0.64970  0.70535  Biso   1.000  O
  O77      1.0000 0.13689  0.93222  0.51275  Biso   1.000  O
  O78      1.0000 0.64790  0.57125  0.66986  Biso   1.000  O
  O79      1.0000 0.61613  0.07701  0.13741  Biso   1.000  O
  C136     1.0000 0.67526  0.81332  0.88919  Biso   1.000  C
  O80      1.0000 0.21885  0.93805  0.58312  Biso   1.000  O
  Tm7      1.0000 0.06592  0.73553  0.20622  Biso   1.000  Tm
  Tm8      1.0000 0.56975  0.72295  0.71001  Biso   1.000  Tm
  C137     1.0000 0.41037  0.72690  0.90276  Biso   1.000  C
  C138     1.0000 0.45170  0.68953  0.15363  Biso   1.000  C
  C139     1.0000 0.63993  0.71138  0.32259  Biso   1.000  C
  C140     1.0000 0.73082  0.69962  0.41094  Biso   1.000  C
  H57      1.0000 0.74660  0.72520  0.38400  Biso   1.000  H
  C141     1.0000 0.17214  0.58059  0.02300  Biso   1.000  C
  C142     1.0000 0.13800  0.71718  0.82515  Biso   1.000  C
  C143     1.0000 0.24584  0.63293  0.00749  Biso   1.000  C
  H58      1.0000 0.26920  0.61530  0.04780  Biso   1.000  H
  C144     1.0000 0.35988  0.67773  0.06145  Biso   1.000  C
  H59      1.0000 0.34890  0.66790  0.09630  Biso   1.000  H
  C145     1.0000 0.41287  0.68997  0.07892  Biso   1.000  C
  C146     1.0000 0.67819  0.68513  0.38849  Biso   1.000  C
  C147     1.0000 0.68443  0.58292  0.53000  Biso   1.000  C
  C148     1.0000 0.15687  0.64857  0.92444  Biso   1.000  C
  H60      1.0000 0.12090  0.64080  0.90790  Biso   1.000  H
  C149     1.0000 0.26557  0.66967  0.97179  Biso   1.000  C
  C150     1.0000 0.34100  0.69318  0.94141  Biso   1.000  C
  H61      1.0000 0.31770  0.69200  0.89490  Biso   1.000  H
  C151     1.0000 0.39346  0.70812  0.95847  Biso   1.000  C
  C152     1.0000 0.76949  0.67558  0.47122  Biso   1.000  C
  C153     1.0000 0.82595  0.68964  0.49190  Biso   1.000  C
  C154     1.0000 0.91123  0.74110  0.40250  Biso   1.000  C
  C155     1.0000 0.93130  0.72196  0.52745  Biso   1.000  C
  H62      1.0000 0.96590  0.73400  0.53940  Biso   1.000  H
  C156     1.0000 0.86259  0.68892  0.56140  Biso   1.000  C
  H63      1.0000 0.85170  0.67800  0.59600  Biso   1.000  H
  C157     1.0000 0.32251  0.67991  0.99234  Biso   1.000  C
  C158     1.0000 0.19158  0.62187  0.98419  Biso   1.000  C
  C159     1.0000 0.89556  0.72137  0.45824  Biso   1.000  C
  C160     1.0000 0.22803  0.69685  0.91283  Biso   1.000  C
  H64      1.0000 0.23980  0.72290  0.88900  Biso   1.000  H
  C161     1.0000 0.42932  0.70706  0.02734  Biso   1.000  C
  H65      1.0000 0.46420  0.71770  0.03910  Biso   1.000  H
  C162     1.0000 0.91463  0.70415  0.57919  Biso   1.000  C
  C163     1.0000 0.84398  0.70430  0.44157  Biso   1.000  C
  H66      1.0000 0.82070  0.70250  0.39510  Biso   1.000  H
  C164     1.0000 0.66193  0.64696  0.42700  Biso   1.000  C
  H67      1.0000 0.62650  0.63700  0.41200  Biso   1.000  H
  C165     1.0000 0.69906  0.62417  0.48765  Biso   1.000  C
  C166     1.0000 0.75245  0.63852  0.50973  Biso   1.000  C
  H68      1.0000 0.77700  0.62310  0.55080  Biso   1.000  H
  C167     1.0000 0.95339  0.70483  0.65460  Biso   1.000  C
  C168     1.0000 0.09330  0.38650  0.15020  Biso   1.000  C
  H69      1.0000 0.05690  0.38950  0.12530  Biso   1.000  H
  C169     1.0000 0.11620  0.89310  0.66910  Biso   1.000  C
  H70      1.0000 0.08200  0.89890  0.63620  Biso   1.000  H
  O81      1.0000 0.49899  0.70169  0.16809  Biso   1.000  O
  O82      1.0000 0.44888  0.76058  0.91694  Biso   1.000  O
  O83      1.0000 0.15534  0.75582  0.79959  Biso   1.000  O
  O84      1.0000 0.94596  0.77850  0.41407  Biso   1.000  O
  O85      1.0000 0.65333  0.75304  0.29638  Biso   1.000  O
  O86      1.0000 0.10588  0.34433  0.18948  Biso   1.000  O
  O87      1.0000 0.08952  0.70250  0.79774  Biso   1.000  O
  O88      1.0000 0.93728  0.69044  0.69985  Biso   1.000  O
  O89      1.0000 0.43463  0.67673  0.19836  Biso   1.000  O
  O90      1.0000 0.88789  0.71945  0.34225  Biso   1.000  O
  O91      1.0000 0.38497  0.70976  0.84075  Biso   1.000  O
  O92      1.0000 0.12403  0.56639  0.99724  Biso   1.000  O
  O93      1.0000 0.20266  0.56059  0.07914  Biso   1.000  O
  O94      1.0000 0.59291  0.69162  0.29383  Biso   1.000  O
  O95      1.0000 0.99939  0.72034  0.66773  Biso   1.000  O
  O96      1.0000 0.12231  0.85030  0.70535  Biso   1.000  O
  O97      1.0000 0.63689  0.56778  0.51275  Biso   1.000  O
  O98      1.0000 0.14790  0.92875  0.66986  Biso   1.000  O
  O99      1.0000 0.11613  0.42299  0.13741  Biso   1.000  O
  C170     1.0000 0.17526  0.68668  0.88919  Biso   1.000  C
  O100     1.0000 0.71885  0.56195  0.58312  Biso   1.000  O
  Tm9      1.0000 0.56592  0.76447  0.20622  Biso   1.000  Tm
  Tm10     1.0000 0.06975  0.77705  0.71001  Biso   1.000  Tm
  C171     1.0000 0.91037  0.22690  0.90276  Biso   1.000  C
  C172     1.0000 0.95170  0.18953  0.15363  Biso   1.000  C
  C173     1.0000 0.13993  0.21138  0.32259  Biso   1.000  C
  C174     1.0000 0.23082  0.19962  0.41094  Biso   1.000  C
  H71      1.0000 0.24660  0.22520  0.38400  Biso   1.000  H
  C175     1.0000 0.67214  0.08059  0.02300  Biso   1.000  C
  C176     1.0000 0.63800  0.21718  0.82515  Biso   1.000  C
  C177     1.0000 0.74584  0.13293  0.00749  Biso   1.000  C
  H72      1.0000 0.76920  0.11530  0.04780  Biso   1.000  H
  C178     1.0000 0.85988  0.17773  0.06145  Biso   1.000  C
  H73      1.0000 0.84890  0.16790  0.09630  Biso   1.000  H
  C179     1.0000 0.91287  0.18997  0.07892  Biso   1.000  C
  C180     1.0000 0.17819  0.18513  0.38849  Biso   1.000  C
  C181     1.0000 0.18443  0.08292  0.53000  Biso   1.000  C
  C182     1.0000 0.65687  0.14857  0.92444  Biso   1.000  C
  H74      1.0000 0.62090  0.14080  0.90790  Biso   1.000  H
  C183     1.0000 0.76557  0.16967  0.97179  Biso   1.000  C
  C184     1.0000 0.84100  0.19318  0.94141  Biso   1.000  C
  H75      1.0000 0.81770  0.19200  0.89490  Biso   1.000  H
  C185     1.0000 0.89346  0.20812  0.95847  Biso   1.000  C
  C186     1.0000 0.26949  0.17558  0.47122  Biso   1.000  C
  C187     1.0000 0.32595  0.18964  0.49190  Biso   1.000  C
  C188     1.0000 0.41123  0.24110  0.40250  Biso   1.000  C
  C189     1.0000 0.43130  0.22196  0.52745  Biso   1.000  C
  H76      1.0000 0.46590  0.23400  0.53940  Biso   1.000  H
  C190     1.0000 0.36259  0.18892  0.56140  Biso   1.000  C
  H77      1.0000 0.35170  0.17800  0.59600  Biso   1.000  H
  C191     1.0000 0.82251  0.17991  0.99234  Biso   1.000  C
  C192     1.0000 0.69158  0.12187  0.98419  Biso   1.000  C
  C193     1.0000 0.39556  0.22137  0.45824  Biso   1.000  C
  C194     1.0000 0.72803  0.19685  0.91283  Biso   1.000  C
  H78      1.0000 0.73980  0.22290  0.88900  Biso   1.000  H
  C195     1.0000 0.92932  0.20706  0.02734  Biso   1.000  C
  H79      1.0000 0.96420  0.21770  0.03910  Biso   1.000  H
  C196     1.0000 0.41463  0.20415  0.57919  Biso   1.000  C
  C197     1.0000 0.34398  0.20430  0.44157  Biso   1.000  C
  H80      1.0000 0.32070  0.20250  0.39510  Biso   1.000  H
  C198     1.0000 0.16193  0.14696  0.42700  Biso   1.000  C
  H81      1.0000 0.12650  0.13700  0.41200  Biso   1.000  H
  C199     1.0000 0.19906  0.12417  0.48765  Biso   1.000  C
  C200     1.0000 0.25245  0.13852  0.50973  Biso   1.000  C
  H82      1.0000 0.27700  0.12310  0.55080  Biso   1.000  H
  C201     1.0000 0.45339  0.20483  0.65460  Biso   1.000  C
  C202     1.0000 0.59330  0.88650  0.15020  Biso   1.000  C
  H83      1.0000 0.55690  0.88950  0.12530  Biso   1.000  H
  C203     1.0000 0.61620  0.39310  0.66910  Biso   1.000  C
  H84      1.0000 0.58200  0.39890  0.63620  Biso   1.000  H
  O101     1.0000 0.99899  0.20169  0.16809  Biso   1.000  O
  O102     1.0000 0.94888  0.26058  0.91694  Biso   1.000  O
  O103     1.0000 0.65534  0.25582  0.79959  Biso   1.000  O
  O104     1.0000 0.44596  0.27850  0.41407  Biso   1.000  O
  O105     1.0000 0.15333  0.25304  0.29638  Biso   1.000  O
  O106     1.0000 0.60588  0.84433  0.18948  Biso   1.000  O
  O107     1.0000 0.58952  0.20250  0.79774  Biso   1.000  O
  O108     1.0000 0.43728  0.19044  0.69985  Biso   1.000  O
  O109     1.0000 0.93463  0.17673  0.19836  Biso   1.000  O
  O110     1.0000 0.38789  0.21945  0.34225  Biso   1.000  O
  O111     1.0000 0.88497  0.20976  0.84075  Biso   1.000  O
  O112     1.0000 0.62403  0.06639  0.99724  Biso   1.000  O
  O113     1.0000 0.70266  0.06059  0.07914  Biso   1.000  O
  O114     1.0000 0.09291  0.19162  0.29383  Biso   1.000  O
  O115     1.0000 0.49939  0.22034  0.66773  Biso   1.000  O
  O116     1.0000 0.62231  0.35030  0.70535  Biso   1.000  O
  O117     1.0000 0.13689  0.06778  0.51275  Biso   1.000  O
  O118     1.0000 0.64790  0.42875  0.66986  Biso   1.000  O
  O119     1.0000 0.61613  0.92299  0.13741  Biso   1.000  O
  C204     1.0000 0.67526  0.18668  0.88919  Biso   1.000  C
  O120     1.0000 0.21885  0.06195  0.58312  Biso   1.000  O
  Tm11     1.0000 0.06592  0.26447  0.20622  Biso   1.000  Tm
  Tm12     1.0000 0.56975  0.27705  0.71001  Biso   1.000  Tm
  C205     1.0000 0.58963  0.72690  0.09724  Biso   1.000  C
  C206     1.0000 0.54830  0.68953  0.84637  Biso   1.000  C
  C207     1.0000 0.36007  0.71138  0.67741  Biso   1.000  C
  C208     1.0000 0.26918  0.69962  0.58906  Biso   1.000  C
  H85      1.0000 0.25340  0.72520  0.61600  Biso   1.000  H
  C209     1.0000 0.82786  0.58059  0.97700  Biso   1.000  C
  C210     1.0000 0.86200  0.71718  0.17485  Biso   1.000  C
  C211     1.0000 0.75416  0.63293  0.99251  Biso   1.000  C
  H86      1.0000 0.73080  0.61530  0.95220  Biso   1.000  H
  C212     1.0000 0.64012  0.67773  0.93855  Biso   1.000  C
  H87      1.0000 0.65110  0.66790  0.90370  Biso   1.000  H
  C213     1.0000 0.58713  0.68997  0.92108  Biso   1.000  C
  C214     1.0000 0.32181  0.68513  0.61151  Biso   1.000  C
  C215     1.0000 0.31557  0.58292  0.47000  Biso   1.000  C
  C216     1.0000 0.84313  0.64857  0.07556  Biso   1.000  C
  H88      1.0000 0.87910  0.64080  0.09210  Biso   1.000  H
  C217     1.0000 0.73443  0.66967  0.02821  Biso   1.000  C
  C218     1.0000 0.65900  0.69318  0.05859  Biso   1.000  C
  H89      1.0000 0.68230  0.69200  0.10510  Biso   1.000  H
  C219     1.0000 0.60654  0.70812  0.04153  Biso   1.000  C
  C220     1.0000 0.23051  0.67558  0.52878  Biso   1.000  C
  C221     1.0000 0.17405  0.68964  0.50810  Biso   1.000  C
  C222     1.0000 0.08877  0.74110  0.59750  Biso   1.000  C
  C223     1.0000 0.06870  0.72196  0.47255  Biso   1.000  C
  H90      1.0000 0.03410  0.73400  0.46060  Biso   1.000  H
  C224     1.0000 0.13741  0.68892  0.43860  Biso   1.000  C
  H91      1.0000 0.14830  0.67800  0.40400  Biso   1.000  H
  C225     1.0000 0.67749  0.67991  0.00766  Biso   1.000  C
  C226     1.0000 0.80842  0.62187  0.01581  Biso   1.000  C
  C227     1.0000 0.10444  0.72137  0.54176  Biso   1.000  C
  C228     1.0000 0.77197  0.69685  0.08717  Biso   1.000  C
  H92      1.0000 0.76020  0.72290  0.11100  Biso   1.000  H
  C229     1.0000 0.57068  0.70706  0.97266  Biso   1.000  C
  H93      1.0000 0.53580  0.71770  0.96090  Biso   1.000  H
  C230     1.0000 0.08537  0.70415  0.42081  Biso   1.000  C
  C231     1.0000 0.15602  0.70430  0.55843  Biso   1.000  C
  H94      1.0000 0.17930  0.70250  0.60490  Biso   1.000  H
  C232     1.0000 0.33807  0.64696  0.57300  Biso   1.000  C
  H95      1.0000 0.37350  0.63700  0.58800  Biso   1.000  H
  C233     1.0000 0.30094  0.62417  0.51235  Biso   1.000  C
  C234     1.0000 0.24755  0.63852  0.49027  Biso   1.000  C
  H96      1.0000 0.22300  0.62310  0.44920  Biso   1.000  H
  C235     1.0000 0.04661  0.70483  0.34540  Biso   1.000  C
  C236     1.0000 0.90670  0.38650  0.84980  Biso   1.000  C
  H97      1.0000 0.94310  0.38950  0.87470  Biso   1.000  H
  C237     1.0000 0.88380  0.89310  0.33090  Biso   1.000  C
  H98      1.0000 0.91800  0.89890  0.36380  Biso   1.000  H
  O121     1.0000 0.50101  0.70169  0.83191  Biso   1.000  O
  O122     1.0000 0.55112  0.76058  0.08306  Biso   1.000  O
  O123     1.0000 0.84466  0.75582  0.20041  Biso   1.000  O
  O124     1.0000 0.05404  0.77850  0.58593  Biso   1.000  O
  O125     1.0000 0.34667  0.75304  0.70362  Biso   1.000  O
  O126     1.0000 0.89412  0.34433  0.81052  Biso   1.000  O
  O127     1.0000 0.91048  0.70250  0.20226  Biso   1.000  O
  O128     1.0000 0.06272  0.69044  0.30015  Biso   1.000  O
  O129     1.0000 0.56537  0.67673  0.80164  Biso   1.000  O
  O130     1.0000 0.11211  0.71945  0.65775  Biso   1.000  O
  O131     1.0000 0.61503  0.70976  0.15925  Biso   1.000  O
  O132     1.0000 0.87597  0.56639  0.00276  Biso   1.000  O
  O133     1.0000 0.79734  0.56059  0.92086  Biso   1.000  O
  O134     1.0000 0.40709  0.69162  0.70617  Biso   1.000  O
  O135     1.0000 0.00061  0.72034  0.33227  Biso   1.000  O
  O136     1.0000 0.87769  0.85030  0.29465  Biso   1.000  O
  O137     1.0000 0.36311  0.56778  0.48725  Biso   1.000  O
  O138     1.0000 0.85210  0.92875  0.33014  Biso   1.000  O
  O139     1.0000 0.88387  0.42299  0.86259  Biso   1.000  O
  C238     1.0000 0.82474  0.68668  0.11081  Biso   1.000  C
  O140     1.0000 0.28115  0.56195  0.41688  Biso   1.000  O
  Tm13     1.0000 0.43408  0.76447  0.79378  Biso   1.000  Tm
  Tm14     1.0000 0.93025  0.77705  0.28999  Biso   1.000  Tm
  C239     1.0000 0.08963  0.22690  0.09724  Biso   1.000  C
  C240     1.0000 0.04830  0.18953  0.84637  Biso   1.000  C
  C241     1.0000 0.86007  0.21138  0.67741  Biso   1.000  C
  C242     1.0000 0.76918  0.19962  0.58906  Biso   1.000  C
  H99      1.0000 0.75340  0.22520  0.61600  Biso   1.000  H
  C243     1.0000 0.32786  0.08059  0.97700  Biso   1.000  C
  C244     1.0000 0.36200  0.21718  0.17485  Biso   1.000  C
  C245     1.0000 0.25416  0.13293  0.99251  Biso   1.000  C
  H100     1.0000 0.23080  0.11530  0.95220  Biso   1.000  H
  C246     1.0000 0.14012  0.17773  0.93855  Biso   1.000  C
  H101     1.0000 0.15110  0.16790  0.90370  Biso   1.000  H
  C247     1.0000 0.08713  0.18997  0.92108  Biso   1.000  C
  C248     1.0000 0.82181  0.18513  0.61151  Biso   1.000  C
  C249     1.0000 0.81557  0.08292  0.47000  Biso   1.000  C
  C250     1.0000 0.34313  0.14857  0.07556  Biso   1.000  C
  H102     1.0000 0.37910  0.14080  0.09210  Biso   1.000  H
  C251     1.0000 0.23443  0.16967  0.02821  Biso   1.000  C
  C252     1.0000 0.15900  0.19318  0.05859  Biso   1.000  C
  H103     1.0000 0.18230  0.19200  0.10510  Biso   1.000  H
  C253     1.0000 0.10654  0.20812  0.04153  Biso   1.000  C
  C254     1.0000 0.73051  0.17558  0.52878  Biso   1.000  C
  C255     1.0000 0.67405  0.18964  0.50810  Biso   1.000  C
  C256     1.0000 0.58877  0.24110  0.59750  Biso   1.000  C
  C257     1.0000 0.56870  0.22196  0.47255  Biso   1.000  C
  H104     1.0000 0.53410  0.23400  0.46060  Biso   1.000  H
  C258     1.0000 0.63741  0.18892  0.43860  Biso   1.000  C
  H105     1.0000 0.64830  0.17800  0.40400  Biso   1.000  H
  C259     1.0000 0.17749  0.17991  0.00766  Biso   1.000  C
  C260     1.0000 0.30842  0.12187  0.01581  Biso   1.000  C
  C261     1.0000 0.60444  0.22137  0.54176  Biso   1.000  C
  C262     1.0000 0.27197  0.19685  0.08717  Biso   1.000  C
  H106     1.0000 0.26020  0.22290  0.11100  Biso   1.000  H
  C263     1.0000 0.07068  0.20706  0.97266  Biso   1.000  C
  H107     1.0000 0.03580  0.21770  0.96090  Biso   1.000  H
  C264     1.0000 0.58537  0.20415  0.42081  Biso   1.000  C
  C265     1.0000 0.65602  0.20430  0.55843  Biso   1.000  C
  H108     1.0000 0.67930  0.20250  0.60490  Biso   1.000  H
  C266     1.0000 0.83807  0.14696  0.57300  Biso   1.000  C
  H109     1.0000 0.87350  0.13700  0.58800  Biso   1.000  H
  C267     1.0000 0.80094  0.12417  0.51235  Biso   1.000  C
  C268     1.0000 0.74755  0.13852  0.49027  Biso   1.000  C
  H110     1.0000 0.72300  0.12310  0.44920  Biso   1.000  H
  C269     1.0000 0.54661  0.20483  0.34540  Biso   1.000  C
  C270     1.0000 0.40670  0.88650  0.84980  Biso   1.000  C
  H111     1.0000 0.44310  0.88950  0.87470  Biso   1.000  H
  C271     1.0000 0.38380  0.39310  0.33090  Biso   1.000  C
  H112     1.0000 0.41800  0.39890  0.36380  Biso   1.000  H
  O141     1.0000 0.00101  0.20169  0.83191  Biso   1.000  O
  O142     1.0000 0.05112  0.26058  0.08306  Biso   1.000  O
  O143     1.0000 0.34466  0.25582  0.20041  Biso   1.000  O
  O144     1.0000 0.55404  0.27850  0.58593  Biso   1.000  O
  O145     1.0000 0.84667  0.25304  0.70362  Biso   1.000  O
  O146     1.0000 0.39412  0.84433  0.81052  Biso   1.000  O
  O147     1.0000 0.41048  0.20250  0.20226  Biso   1.000  O
  O148     1.0000 0.56272  0.19044  0.30015  Biso   1.000  O
  O149     1.0000 0.06537  0.17673  0.80164  Biso   1.000  O
  O150     1.0000 0.61211  0.21945  0.65775  Biso   1.000  O
  O151     1.0000 0.11503  0.20976  0.15925  Biso   1.000  O
  O152     1.0000 0.37597  0.06639  0.00276  Biso   1.000  O
  O153     1.0000 0.29734  0.06059  0.92086  Biso   1.000  O
  O154     1.0000 0.90709  0.19162  0.70617  Biso   1.000  O
  O155     1.0000 0.50061  0.22034  0.33227  Biso   1.000  O
  O156     1.0000 0.37769  0.35030  0.29465  Biso   1.000  O
  O157     1.0000 0.86311  0.06778  0.48725  Biso   1.000  O
  O158     1.0000 0.35210  0.42875  0.33014  Biso   1.000  O
  O159     1.0000 0.38387  0.92299  0.86259  Biso   1.000  O
  C272     1.0000 0.32474  0.18668  0.11081  Biso   1.000  C
  O160     1.0000 0.78115  0.06195  0.41688  Biso   1.000  O
  Tm15     1.0000 0.93408  0.26447  0.79378  Biso   1.000  Tm
  Tm16     1.0000 0.43025  0.27705  0.28999  Biso   1.000  Tm
  C273     1.0000 0.00000  0.50000  0.00000  Biso   1.000  C
  C274     1.0000 0.50000  0.00000  0.00000  Biso   1.000  C
  C275     1.0000 0.76060  0.50000  0.76460  Biso   1.000  C
  H113     1.0000 0.73800  0.50000  0.78750  Biso   1.000  H
  O161     1.0000 0.95677  0.50000  0.97090  Biso   1.000  O
  O162     1.0000 0.80591  0.50000  0.80220  Biso   1.000  O
  O163     1.0000 0.73833  0.50000  0.70280  Biso   1.000  O
  Tm17     1.0000 0.86618  0.50000  0.91385  Biso   1.000  Tm
  Tm18     1.0000 0.66118  0.50000  0.60708  Biso   1.000  Tm
  C276     1.0000 0.26060  0.00000  0.76460  Biso   1.000  C
  H114     1.0000 0.23800  0.00000  0.78750  Biso   1.000  H
  O164     1.0000 0.45677  0.00000  0.97090  Biso   1.000  O
  O165     1.0000 0.30591  0.00000  0.80220  Biso   1.000  O
  O166     1.0000 0.23833  0.00000  0.70280  Biso   1.000  O
  Tm19     1.0000 0.36618  0.00000  0.91385  Biso   1.000  Tm
  Tm20     1.0000 0.16118  0.00000  0.60708  Biso   1.000  Tm
  C277     1.0000 0.23940  0.50000  0.23540  Biso   1.000  C
  H115     1.0000 0.26200  0.50000  0.21250  Biso   1.000  H
  O167     1.0000 0.04323  0.50000  0.02910  Biso   1.000  O
  O168     1.0000 0.19409  0.50000  0.19780  Biso   1.000  O
  O169     1.0000 0.26167  0.50000  0.29720  Biso   1.000  O
  Tm21     1.0000 0.13382  0.50000  0.08615  Biso   1.000  Tm
  Tm22     1.0000 0.33882  0.50000  0.39292  Biso   1.000  Tm
  C278     1.0000 0.73940  0.00000  0.23540  Biso   1.000  C
  H116     1.0000 0.76200  0.00000  0.21250  Biso   1.000  H
  O170     1.0000 0.54323  0.00000  0.02910  Biso   1.000  O
  O171     1.0000 0.69409  0.00000  0.19780  Biso   1.000  O
  O172     1.0000 0.76167  0.00000  0.29720  Biso   1.000  O
  Tm23     1.0000 0.63382  0.00000  0.08615  Biso   1.000  Tm
  Tm24     1.0000 0.83882  0.00000  0.39292  Biso   1.000  Tm
