data_image0
_cell_length_a       11.3184
_cell_length_b       11.0159
_cell_length_c       18.7519
_cell_angle_alpha    90
_cell_angle_beta     92.569
_cell_angle_gamma    90

_symmetry_space_group_name_H-M    "P 1"
_symmetry_int_tables_number       1

loop_
  _symmetry_equiv_pos_as_xyz
  'x, y, z'

loop_
  _atom_site_label
  _atom_site_occupancy
  _atom_site_fract_x
  _atom_site_fract_y
  _atom_site_fract_z
  _atom_site_thermal_displace_type
  _atom_site_B_iso_or_equiv
  _atom_site_type_symbol
  Ga1      1.0000 0.25726  0.94938  0.29273  Biso   1.000  Ga
  Ga2      1.0000 0.28187  0.90580  0.10824  Biso   1.000  Ga
  Ga3      1.0000 0.24389  0.07338  0.79232  Biso   1.000  Ga
  Ga4      1.0000 0.21404  0.12080  0.60747  Biso   1.000  Ga
  P1       1.0000 0.03804  0.97096  0.18280  Biso   1.000  P
  H1       1.0000 0.02800  0.08400  0.18000  Biso   1.000  H
  P2       1.0000 0.32460  0.16643  0.18670  Biso   1.000  P
  H2       1.0000 0.45600  0.18300  0.19900  Biso   1.000  H
  P3       1.0000 0.19204  0.11854  0.43401  Biso   1.000  P
  H3       1.0000 0.07600  0.13500  0.43100  Biso   1.000  H
  P4       1.0000 0.26222  0.90919  0.93123  Biso   1.000  P
  H4       1.0000 0.14100  0.89300  0.91700  Biso   1.000  H
  P5       1.0000 0.46612  0.12111  0.69123  Biso   1.000  P
  H5       1.0000 0.50500  0.22500  0.70100  Biso   1.000  H
  P6       1.0000 0.17970  0.86079  0.68215  Biso   1.000  P
  H6       1.0000 0.05200  0.84700  0.68400  Biso   1.000  H
  O1       1.0000 0.30920  0.86640  0.20829  Biso   1.000  O
  H7       1.0000 0.30900  0.79120  0.21100  Biso   1.000  H
  O2       1.0000 0.09000  0.94600  0.25790  Biso   1.000  O
  O3       1.0000 0.27410  0.11580  0.25434  Biso   1.000  O
  O4       1.0000 0.21210  0.01510  0.38341  Biso   1.000  O
  O5       1.0000 0.26740  0.28540  0.16330  Biso   1.000  O
  O6       1.0000 0.57280  0.04500  0.67170  Biso   1.000  O
  O7       1.0000 0.11400  0.92490  0.12306  Biso   1.000  O
  O8       1.0000 0.31670  0.07640  0.12580  Biso   1.000  O
  O9       1.0000 0.27820  0.95010  0.00837  Biso   1.000  O
  O10      1.0000 0.25340  0.23490  0.41408  Biso   1.000  O
  O11      1.0000 0.18220  0.15210  0.70516  Biso   1.000  O
  H8       1.0000 0.17100  0.22800  0.70500  Biso   1.000  H
  O12      1.0000 0.91560  0.91760  0.17037  Biso   1.000  O
  O13      1.0000 0.40730  0.07250  0.75665  Biso   1.000  O
  O14      1.0000 0.23360  0.73880  0.66554  Biso   1.000  O
  O15      1.0000 0.30620  0.00780  0.88250  Biso   1.000  O
  O16      1.0000 0.21530  0.90780  0.75597  Biso   1.000  O
  O17      1.0000 0.38280  0.13460  0.62530  Biso   1.000  O
  O18      1.0000 0.22960  0.07440  0.50895  Biso   1.000  O
  O19      1.0000 0.32330  0.78790  0.91906  Biso   1.000  O
  O20      1.0000 0.20980  0.94720  0.62288  Biso   1.000  O
  Ga5      1.0000 0.24274  0.44938  0.20727  Biso   1.000  Ga
  Ga6      1.0000 0.21813  0.40580  0.39176  Biso   1.000  Ga
  Ga7      1.0000 0.25611  0.57338  0.70768  Biso   1.000  Ga
  Ga8      1.0000 0.28596  0.62080  0.89253  Biso   1.000  Ga
  P7       1.0000 0.46196  0.47096  0.31720  Biso   1.000  P
  H9       1.0000 0.47200  0.58400  0.32000  Biso   1.000  H
  P8       1.0000 0.17540  0.66643  0.31330  Biso   1.000  P
  H10      1.0000 0.04400  0.68300  0.30100  Biso   1.000  H
  P9       1.0000 0.30796  0.61854  0.06599  Biso   1.000  P
  H11      1.0000 0.42400  0.63500  0.06900  Biso   1.000  H
  P10      1.0000 0.23778  0.40919  0.56877  Biso   1.000  P
  H12      1.0000 0.35900  0.39300  0.58300  Biso   1.000  H
  P11      1.0000 0.03388  0.62111  0.80877  Biso   1.000  P
  H13      1.0000 0.99500  0.72500  0.79900  Biso   1.000  H
  P12      1.0000 0.32030  0.36079  0.81785  Biso   1.000  P
  H14      1.0000 0.44800  0.34700  0.81600  Biso   1.000  H
  O21      1.0000 0.19080  0.36640  0.29171  Biso   1.000  O
  H15      1.0000 0.19100  0.29120  0.28900  Biso   1.000  H
  O22      1.0000 0.41000  0.44600  0.24210  Biso   1.000  O
  O23      1.0000 0.22590  0.61580  0.24566  Biso   1.000  O
  O24      1.0000 0.28790  0.51510  0.11659  Biso   1.000  O
  O25      1.0000 0.23260  0.78540  0.33670  Biso   1.000  O
  O26      1.0000 0.92720  0.54500  0.82830  Biso   1.000  O
  O27      1.0000 0.38600  0.42490  0.37694  Biso   1.000  O
  O28      1.0000 0.18330  0.57640  0.37420  Biso   1.000  O
  O29      1.0000 0.22180  0.45010  0.49163  Biso   1.000  O
  O30      1.0000 0.24660  0.73490  0.08592  Biso   1.000  O
  O31      1.0000 0.31780  0.65210  0.79484  Biso   1.000  O
  H16      1.0000 0.32900  0.72800  0.79500  Biso   1.000  H
  O32      1.0000 0.58440  0.41760  0.32963  Biso   1.000  O
  O33      1.0000 0.09270  0.57250  0.74335  Biso   1.000  O
  O34      1.0000 0.26640  0.23880  0.83446  Biso   1.000  O
  O35      1.0000 0.19380  0.50780  0.61750  Biso   1.000  O
  O36      1.0000 0.28470  0.40780  0.74403  Biso   1.000  O
  O37      1.0000 0.11720  0.63460  0.87470  Biso   1.000  O
  O38      1.0000 0.27040  0.57440  0.99105  Biso   1.000  O
  O39      1.0000 0.17670  0.28790  0.58094  Biso   1.000  O
  O40      1.0000 0.29020  0.44720  0.87712  Biso   1.000  O
  Ga9      1.0000 0.74274  0.05062  0.70727  Biso   1.000  Ga
  Ga10     1.0000 0.71813  0.09420  0.89176  Biso   1.000  Ga
  Ga11     1.0000 0.75611  0.92662  0.20768  Biso   1.000  Ga
  Ga12     1.0000 0.78596  0.87920  0.39253  Biso   1.000  Ga
  P13      1.0000 0.96196  0.02904  0.81720  Biso   1.000  P
  H17      1.0000 0.97200  0.91600  0.82000  Biso   1.000  H
  P14      1.0000 0.67540  0.83357  0.81330  Biso   1.000  P
  H18      1.0000 0.54400  0.81700  0.80100  Biso   1.000  H
  P15      1.0000 0.80796  0.88146  0.56599  Biso   1.000  P
  H19      1.0000 0.92400  0.86500  0.56900  Biso   1.000  H
  P16      1.0000 0.73778  0.09081  0.06877  Biso   1.000  P
  H20      1.0000 0.85900  0.10700  0.08300  Biso   1.000  H
  P17      1.0000 0.53388  0.87889  0.30877  Biso   1.000  P
  H21      1.0000 0.49500  0.77500  0.29900  Biso   1.000  H
  P18      1.0000 0.82030  0.13921  0.31785  Biso   1.000  P
  H22      1.0000 0.94800  0.15300  0.31600  Biso   1.000  H
  O41      1.0000 0.69080  0.13360  0.79171  Biso   1.000  O
  H23      1.0000 0.69100  0.20880  0.78900  Biso   1.000  H
  O42      1.0000 0.91000  0.05400  0.74210  Biso   1.000  O
  O43      1.0000 0.72590  0.88420  0.74566  Biso   1.000  O
  O44      1.0000 0.78790  0.98490  0.61659  Biso   1.000  O
  O45      1.0000 0.73260  0.71460  0.83670  Biso   1.000  O
  O46      1.0000 0.42720  0.95500  0.32830  Biso   1.000  O
  O47      1.0000 0.88600  0.07510  0.87694  Biso   1.000  O
  O48      1.0000 0.68330  0.92360  0.87420  Biso   1.000  O
  O49      1.0000 0.72180  0.04990  0.99163  Biso   1.000  O
  O50      1.0000 0.74660  0.76510  0.58592  Biso   1.000  O
  O51      1.0000 0.81780  0.84790  0.29484  Biso   1.000  O
  H24      1.0000 0.82900  0.77200  0.29500  Biso   1.000  H
  O52      1.0000 0.08440  0.08240  0.82963  Biso   1.000  O
  O53      1.0000 0.59270  0.92750  0.24335  Biso   1.000  O
  O54      1.0000 0.76640  0.26120  0.33446  Biso   1.000  O
  O55      1.0000 0.69380  0.99220  0.11750  Biso   1.000  O
  O56      1.0000 0.78470  0.09220  0.24403  Biso   1.000  O
  O57      1.0000 0.61720  0.86540  0.37470  Biso   1.000  O
  O58      1.0000 0.77040  0.92560  0.49105  Biso   1.000  O
  O59      1.0000 0.67670  0.21210  0.08094  Biso   1.000  O
  O60      1.0000 0.79020  0.05280  0.37712  Biso   1.000  O
  Ga13     1.0000 0.75726  0.55062  0.79273  Biso   1.000  Ga
  Ga14     1.0000 0.78187  0.59420  0.60824  Biso   1.000  Ga
  Ga15     1.0000 0.74389  0.42662  0.29232  Biso   1.000  Ga
  Ga16     1.0000 0.71404  0.37920  0.10747  Biso   1.000  Ga
  P19      1.0000 0.53804  0.52904  0.68280  Biso   1.000  P
  H25      1.0000 0.52800  0.41600  0.68000  Biso   1.000  H
  P20      1.0000 0.82460  0.33357  0.68670  Biso   1.000  P
  H26      1.0000 0.95600  0.31700  0.69900  Biso   1.000  H
  P21      1.0000 0.69204  0.38146  0.93401  Biso   1.000  P
  H27      1.0000 0.57600  0.36500  0.93100  Biso   1.000  H
  P22      1.0000 0.76222  0.59081  0.43123  Biso   1.000  P
  H28      1.0000 0.64100  0.60700  0.41700  Biso   1.000  H
  P23      1.0000 0.96612  0.37889  0.19123  Biso   1.000  P
  H29      1.0000 0.00500  0.27500  0.20100  Biso   1.000  H
  P24      1.0000 0.67970  0.63921  0.18215  Biso   1.000  P
  H30      1.0000 0.55200  0.65300  0.18400  Biso   1.000  H
  O61      1.0000 0.80920  0.63360  0.70829  Biso   1.000  O
  H31      1.0000 0.80900  0.70880  0.71100  Biso   1.000  H
  O62      1.0000 0.59000  0.55400  0.75790  Biso   1.000  O
  O63      1.0000 0.77410  0.38420  0.75434  Biso   1.000  O
  O64      1.0000 0.71210  0.48490  0.88341  Biso   1.000  O
  O65      1.0000 0.76740  0.21460  0.66330  Biso   1.000  O
  O66      1.0000 0.07280  0.45500  0.17170  Biso   1.000  O
  O67      1.0000 0.61400  0.57510  0.62306  Biso   1.000  O
  O68      1.0000 0.81670  0.42360  0.62580  Biso   1.000  O
  O69      1.0000 0.77820  0.54990  0.50837  Biso   1.000  O
  O70      1.0000 0.75340  0.26510  0.91408  Biso   1.000  O
  O71      1.0000 0.68220  0.34790  0.20516  Biso   1.000  O
  H32      1.0000 0.67100  0.27200  0.20500  Biso   1.000  H
  O72      1.0000 0.41560  0.58240  0.67037  Biso   1.000  O
  O73      1.0000 0.90730  0.42750  0.25665  Biso   1.000  O
  O74      1.0000 0.73360  0.76120  0.16554  Biso   1.000  O
  O75      1.0000 0.80620  0.49220  0.38250  Biso   1.000  O
  O76      1.0000 0.71530  0.59220  0.25597  Biso   1.000  O
  O77      1.0000 0.88280  0.36540  0.12530  Biso   1.000  O
  O78      1.0000 0.72960  0.42560  0.00895  Biso   1.000  O
  O79      1.0000 0.82330  0.71210  0.41906  Biso   1.000  O
  O80      1.0000 0.70980  0.55280  0.12288  Biso   1.000  O
