data_image0
_cell_length_a       24.4992
_cell_length_b       24.4992
_cell_length_c       8.3379
_cell_angle_alpha    90
_cell_angle_beta     90
_cell_angle_gamma    120

_symmetry_space_group_name_H-M    "P 1"
_symmetry_int_tables_number       1

loop_
  _symmetry_equiv_pos_as_xyz
  'x, y, z'

loop_
  _atom_site_label
  _atom_site_occupancy
  _atom_site_fract_x
  _atom_site_fract_y
  _atom_site_fract_z
  _atom_site_thermal_displace_type
  _atom_site_B_iso_or_equiv
  _atom_site_type_symbol
  N1       1.0000 0.92629  0.27787  0.54022  Biso   1.000  N
  C1       1.0000 0.87607  0.22162  0.58427  Biso   1.000  C
  N2       1.0000 0.59296  0.61120  0.87355  Biso   1.000  N
  C2       1.0000 0.54274  0.55495  0.91760  Biso   1.000  C
  N3       1.0000 0.25962  0.94454  0.20689  Biso   1.000  N
  C3       1.0000 0.20940  0.88829  0.25094  Biso   1.000  C
  N4       1.0000 0.72213  0.64842  0.54022  Biso   1.000  N
  C4       1.0000 0.77838  0.65445  0.58427  Biso   1.000  C
  N5       1.0000 0.38880  0.98175  0.87355  Biso   1.000  N
  C5       1.0000 0.44505  0.98778  0.91760  Biso   1.000  C
  N6       1.0000 0.05546  0.31509  0.20689  Biso   1.000  N
  C6       1.0000 0.11171  0.32112  0.25094  Biso   1.000  C
  N7       1.0000 0.35158  0.07371  0.54022  Biso   1.000  N
  C7       1.0000 0.34555  0.12393  0.58427  Biso   1.000  C
  N8       1.0000 0.01825  0.40704  0.87355  Biso   1.000  N
  C8       1.0000 0.01222  0.45726  0.91760  Biso   1.000  C
  N9       1.0000 0.68491  0.74038  0.20689  Biso   1.000  N
  C9       1.0000 0.67888  0.79060  0.25094  Biso   1.000  C
  N10      1.0000 0.27787  0.92629  0.45978  Biso   1.000  N
  C10      1.0000 0.22162  0.87607  0.41573  Biso   1.000  C
  N11      1.0000 0.94454  0.25962  0.79311  Biso   1.000  N
  C11      1.0000 0.88829  0.20940  0.74906  Biso   1.000  C
  N12      1.0000 0.61120  0.59296  0.12645  Biso   1.000  N
  C12      1.0000 0.55495  0.54274  0.08240  Biso   1.000  C
  N13      1.0000 0.64842  0.72213  0.45978  Biso   1.000  N
  C13      1.0000 0.65445  0.77838  0.41573  Biso   1.000  C
  N14      1.0000 0.31509  0.05546  0.79311  Biso   1.000  N
  C14      1.0000 0.32112  0.11171  0.74906  Biso   1.000  C
  N15      1.0000 0.98175  0.38880  0.12645  Biso   1.000  N
  C15      1.0000 0.98778  0.44505  0.08240  Biso   1.000  C
  N16      1.0000 0.07371  0.35158  0.45978  Biso   1.000  N
  C16      1.0000 0.12393  0.34555  0.41573  Biso   1.000  C
  N17      1.0000 0.74038  0.68491  0.79311  Biso   1.000  N
  C17      1.0000 0.79060  0.67888  0.74906  Biso   1.000  C
  N18      1.0000 0.40704  0.01825  0.12645  Biso   1.000  N
  C18      1.0000 0.45726  0.01222  0.08240  Biso   1.000  C
  N19      1.0000 0.07371  0.72213  0.45978  Biso   1.000  N
  C19      1.0000 0.12393  0.77838  0.41573  Biso   1.000  C
  N20      1.0000 0.74038  0.05546  0.79311  Biso   1.000  N
  C20      1.0000 0.79060  0.11171  0.74906  Biso   1.000  C
  N21      1.0000 0.40704  0.38880  0.12645  Biso   1.000  N
  C21      1.0000 0.45726  0.44505  0.08240  Biso   1.000  C
  N22      1.0000 0.27787  0.35158  0.45978  Biso   1.000  N
  C22      1.0000 0.22162  0.34555  0.41573  Biso   1.000  C
  N23      1.0000 0.94454  0.68491  0.79311  Biso   1.000  N
  C23      1.0000 0.88829  0.67888  0.74906  Biso   1.000  C
  N24      1.0000 0.61120  0.01825  0.12645  Biso   1.000  N
  C24      1.0000 0.55495  0.01222  0.08240  Biso   1.000  C
  N25      1.0000 0.64842  0.92629  0.45978  Biso   1.000  N
  C25      1.0000 0.65445  0.87607  0.41573  Biso   1.000  C
  N26      1.0000 0.31509  0.25962  0.79311  Biso   1.000  N
  C26      1.0000 0.32112  0.20940  0.74906  Biso   1.000  C
  N27      1.0000 0.98175  0.59296  0.12645  Biso   1.000  N
  C27      1.0000 0.98778  0.54274  0.08240  Biso   1.000  C
  N28      1.0000 0.72213  0.07371  0.54022  Biso   1.000  N
  C28      1.0000 0.77838  0.12393  0.58427  Biso   1.000  C
  N29      1.0000 0.38880  0.40704  0.87355  Biso   1.000  N
  C29      1.0000 0.44505  0.45726  0.91760  Biso   1.000  C
  N30      1.0000 0.05546  0.74038  0.20689  Biso   1.000  N
  C30      1.0000 0.11171  0.79060  0.25094  Biso   1.000  C
  N31      1.0000 0.35158  0.27787  0.54022  Biso   1.000  N
  C31      1.0000 0.34555  0.22162  0.58427  Biso   1.000  C
  N32      1.0000 0.01825  0.61120  0.87355  Biso   1.000  N
  C32      1.0000 0.01222  0.55495  0.91760  Biso   1.000  C
  N33      1.0000 0.68491  0.94454  0.20689  Biso   1.000  N
  C33      1.0000 0.67888  0.88829  0.25094  Biso   1.000  C
  N34      1.0000 0.92629  0.64842  0.54022  Biso   1.000  N
  C34      1.0000 0.87607  0.65445  0.58427  Biso   1.000  C
  N35      1.0000 0.59296  0.98175  0.87355  Biso   1.000  N
  C35      1.0000 0.54274  0.98778  0.91760  Biso   1.000  C
  N36      1.0000 0.25962  0.31509  0.20689  Biso   1.000  N
  C36      1.0000 0.20940  0.32112  0.25094  Biso   1.000  C
  Mn1      1.0000 0.94888  0.33333  0.33333  Biso   1.000  Mn
  Mn2      1.0000 0.66667  0.61555  0.33333  Biso   1.000  Mn
  Mn3      1.0000 0.38445  0.05112  0.33333  Biso   1.000  Mn
  Mn4      1.0000 0.33333  0.94888  0.66667  Biso   1.000  Mn
  Mn5      1.0000 0.00000  0.28221  0.00000  Biso   1.000  Mn
  Mn6      1.0000 0.61555  0.66667  0.66667  Biso   1.000  Mn
  Mn7      1.0000 0.28221  0.00000  0.00000  Biso   1.000  Mn
  Mn8      1.0000 0.05112  0.38445  0.66667  Biso   1.000  Mn
  Mn9      1.0000 0.71779  0.71779  0.00000  Biso   1.000  Mn
  Mn10     1.0000 0.05112  0.66667  0.66667  Biso   1.000  Mn
  Mn11     1.0000 0.71779  0.00000  0.00000  Biso   1.000  Mn
  Mn12     1.0000 0.38445  0.33333  0.33333  Biso   1.000  Mn
  Mn13     1.0000 0.33333  0.38445  0.66667  Biso   1.000  Mn
  Mn14     1.0000 0.00000  0.71779  0.00000  Biso   1.000  Mn
  Mn15     1.0000 0.61555  0.94888  0.66667  Biso   1.000  Mn
  Mn16     1.0000 0.28221  0.28221  0.00000  Biso   1.000  Mn
  Mn17     1.0000 0.66667  0.05112  0.33333  Biso   1.000  Mn
  Mn18     1.0000 0.94888  0.61555  0.33333  Biso   1.000  Mn
  Cl1      1.0000 0.00000  0.42296  0.50000  Biso   1.000  Cl
  Cl2      1.0000 0.66667  0.75629  0.83333  Biso   1.000  Cl
  Cl3      1.0000 0.33333  0.08963  0.16667  Biso   1.000  Cl
  Cl4      1.0000 0.57704  0.57704  0.50000  Biso   1.000  Cl
  Cl5      1.0000 0.24371  0.91037  0.83333  Biso   1.000  Cl
  Cl6      1.0000 0.91037  0.24371  0.16667  Biso   1.000  Cl
  Cl7      1.0000 0.42296  0.00000  0.50000  Biso   1.000  Cl
  Cl8      1.0000 0.08963  0.33333  0.83333  Biso   1.000  Cl
  Cl9      1.0000 0.75629  0.66667  0.16667  Biso   1.000  Cl
  Cl10     1.0000 0.00000  0.57704  0.50000  Biso   1.000  Cl
  Cl11     1.0000 0.66667  0.91037  0.83333  Biso   1.000  Cl
  Cl12     1.0000 0.33333  0.24371  0.16667  Biso   1.000  Cl
  Cl13     1.0000 0.42296  0.42296  0.50000  Biso   1.000  Cl
  Cl14     1.0000 0.08963  0.75629  0.83333  Biso   1.000  Cl
  Cl15     1.0000 0.75629  0.08963  0.16667  Biso   1.000  Cl
  Cl16     1.0000 0.57704  0.00000  0.50000  Biso   1.000  Cl
  Cl17     1.0000 0.24371  0.33333  0.83333  Biso   1.000  Cl
  Cl18     1.0000 0.91037  0.66667  0.16667  Biso   1.000  Cl
  N37      1.0000 0.96471  0.29805  0.66667  Biso   1.000  N
  N38      1.0000 0.63138  0.63138  0.00000  Biso   1.000  N
  N39      1.0000 0.70195  0.66667  0.66667  Biso   1.000  N
  N40      1.0000 0.36862  0.00000  0.00000  Biso   1.000  N
  N41      1.0000 0.33333  0.03529  0.66667  Biso   1.000  N
  N42      1.0000 0.00000  0.36862  0.00000  Biso   1.000  N
  N43      1.0000 0.29805  0.96471  0.33333  Biso   1.000  N
  N44      1.0000 0.66667  0.70195  0.33333  Biso   1.000  N
  N45      1.0000 0.03529  0.33333  0.33333  Biso   1.000  N
  N46      1.0000 0.03529  0.70195  0.33333  Biso   1.000  N
  N47      1.0000 0.29805  0.33333  0.33333  Biso   1.000  N
  N48      1.0000 0.66667  0.96471  0.33333  Biso   1.000  N
  N49      1.0000 0.70195  0.03529  0.66667  Biso   1.000  N
  N50      1.0000 0.36862  0.36862  0.00000  Biso   1.000  N
  N51      1.0000 0.33333  0.29805  0.66667  Biso   1.000  N
  N52      1.0000 0.00000  0.63138  0.00000  Biso   1.000  N
  N53      1.0000 0.96471  0.66667  0.66667  Biso   1.000  N
  N54      1.0000 0.63138  0.00000  0.00000  Biso   1.000  N
  C37      1.0000 0.82062  0.17938  0.50045  Biso   1.000  C
  H1       1.0000 0.81086  0.18914  0.38127  Biso   1.000  H
  C38      1.0000 0.48729  0.51271  0.83378  Biso   1.000  C
  H2       1.0000 0.47753  0.52247  0.71460  Biso   1.000  H
  C39      1.0000 0.15395  0.84605  0.16712  Biso   1.000  C
  H3       1.0000 0.14419  0.85581  0.04794  Biso   1.000  H
  C40      1.0000 0.82062  0.64124  0.50045  Biso   1.000  C
  H4       1.0000 0.81086  0.62172  0.38127  Biso   1.000  H
  C41      1.0000 0.48729  0.97457  0.83378  Biso   1.000  C
  H5       1.0000 0.47753  0.95505  0.71460  Biso   1.000  H
  C42      1.0000 0.15395  0.30791  0.16712  Biso   1.000  C
  H6       1.0000 0.14419  0.28839  0.04794  Biso   1.000  H
  C43      1.0000 0.35876  0.17938  0.50045  Biso   1.000  C
  H7       1.0000 0.37828  0.18914  0.38127  Biso   1.000  H
  C44      1.0000 0.02543  0.51271  0.83378  Biso   1.000  C
  H8       1.0000 0.04495  0.52247  0.71460  Biso   1.000  H
  C45      1.0000 0.69209  0.84605  0.16712  Biso   1.000  C
  H9       1.0000 0.71161  0.85581  0.04794  Biso   1.000  H
  C46      1.0000 0.17938  0.82062  0.49955  Biso   1.000  C
  H10      1.0000 0.18914  0.81086  0.61873  Biso   1.000  H
  C47      1.0000 0.84605  0.15395  0.83288  Biso   1.000  C
  H11      1.0000 0.85581  0.14419  0.95206  Biso   1.000  H
  C48      1.0000 0.51271  0.48729  0.16622  Biso   1.000  C
  H12      1.0000 0.52247  0.47753  0.28540  Biso   1.000  H
  C49      1.0000 0.64124  0.82062  0.49955  Biso   1.000  C
  H13      1.0000 0.62172  0.81086  0.61873  Biso   1.000  H
  C50      1.0000 0.30791  0.15395  0.83288  Biso   1.000  C
  H14      1.0000 0.28839  0.14419  0.95206  Biso   1.000  H
  C51      1.0000 0.97457  0.48729  0.16622  Biso   1.000  C
  H15      1.0000 0.95505  0.47753  0.28540  Biso   1.000  H
  C52      1.0000 0.17938  0.35876  0.49955  Biso   1.000  C
  H16      1.0000 0.18914  0.37828  0.61873  Biso   1.000  H
  C53      1.0000 0.84605  0.69209  0.83288  Biso   1.000  C
  H17      1.0000 0.85581  0.71161  0.95206  Biso   1.000  H
  C54      1.0000 0.51271  0.02543  0.16622  Biso   1.000  C
  H18      1.0000 0.52247  0.04495  0.28540  Biso   1.000  H
