data_image0
_cell_length_a       13.6132
_cell_length_b       18.0261
_cell_length_c       22.945
_cell_angle_alpha    69.574
_cell_angle_beta     88.899
_cell_angle_gamma    89.147

_symmetry_space_group_name_H-M    "P 1"
_symmetry_int_tables_number       1

loop_
  _symmetry_equiv_pos_as_xyz
  'x, y, z'

loop_
  _atom_site_label
  _atom_site_occupancy
  _atom_site_fract_x
  _atom_site_fract_y
  _atom_site_fract_z
  _atom_site_thermal_displace_type
  _atom_site_B_iso_or_equiv
  _atom_site_type_symbol
  Mg1      1.0000 0.91179  0.79426  0.39759  Biso   1.000  Mg
  Mg2      1.0000 0.12418  0.86681  0.25039  Biso   1.000  Mg
  Mg3      1.0000 0.34246  0.94376  0.10503  Biso   1.000  Mg
  Mg4      1.0000 0.60702  0.69053  0.61170  Biso   1.000  Mg
  Mg5      1.0000 0.37601  0.63236  0.75093  Biso   1.000  Mg
  Mg6      1.0000 0.14780  0.56977  0.89026  Biso   1.000  Mg
  O1       1.0000 0.04652  0.83785  0.40443  Biso   1.000  O
  O2       1.0000 0.16576  0.82400  0.34109  Biso   1.000  O
  O3       1.0000 0.47113  0.65929  0.59352  Biso   1.000  O
  O4       1.0000 0.34944  0.66705  0.65819  Biso   1.000  O
  O5       1.0000 0.34043  0.78134  0.38177  Biso   1.000  O
  H1       1.0000 0.29700  0.79400  0.35740  Biso   1.000  H
  O6       1.0000 0.17636  0.71824  0.61661  Biso   1.000  O
  H2       1.0000 0.21800  0.70100  0.64030  Biso   1.000  H
  O7       1.0000 0.87627  0.89513  0.32491  Biso   1.000  O
  O8       1.0000 0.00373  0.93261  0.25854  Biso   1.000  O
  O9       1.0000 0.73573  0.29041  0.25039  Biso   1.000  O
  O10      1.0000 0.86149  0.32613  0.18231  Biso   1.000  O
  O11      1.0000 0.02405  0.07798  0.18795  Biso   1.000  O
  H3       1.0000 0.04000  0.03000  0.20750  Biso   1.000  H
  O12      1.0000 0.71290  0.14290  0.32063  Biso   1.000  O
  H4       1.0000 0.70900  0.18900  0.30480  Biso   1.000  H
  O13      1.0000 0.04662  0.26899  0.65676  Biso   1.000  O
  O14      1.0000 0.95731  0.22905  0.74459  Biso   1.000  O
  O15      1.0000 0.28694  0.54039  0.75617  Biso   1.000  O
  O16      1.0000 0.20119  0.49857  0.84501  Biso   1.000  O
  O17      1.0000 0.98612  0.28631  0.83088  Biso   1.000  O
  H5       1.0000 0.96000  0.26000  0.80840  Biso   1.000  H
  O18      1.0000 0.25608  0.48450  0.66927  Biso   1.000  O
  H6       1.0000 0.28500  0.50900  0.68990  Biso   1.000  H
  O19      1.0000 0.20340  0.96385  0.24678  Biso   1.000  O
  O20      1.0000 0.29271  0.00416  0.15906  Biso   1.000  O
  O21      1.0000 0.44662  0.23482  0.34564  Biso   1.000  O
  O22      1.0000 0.53339  0.27508  0.25702  Biso   1.000  O
  O23      1.0000 0.23460  0.02026  0.33341  Biso   1.000  O
  H7       1.0000 0.20200  0.99200  0.31390  Biso   1.000  H
  O24      1.0000 0.50393  0.21820  0.17107  Biso   1.000  O
  H8       1.0000 0.52900  0.24500  0.19280  Biso   1.000  H
  O25      1.0000 0.08769  0.90934  0.15855  Biso   1.000  O
  O26      1.0000 0.20919  0.90326  0.09340  Biso   1.000  O
  O27      1.0000 0.91288  0.95180  0.11718  Biso   1.000  O
  H9       1.0000 0.95600  0.94000  0.13990  Biso   1.000  H
  O28      1.0000 0.40439  0.59985  0.84375  Biso   1.000  O
  O29      1.0000 0.28449  0.59627  0.91262  Biso   1.000  O
  O30      1.0000 0.58054  0.54862  0.88105  Biso   1.000  O
  H10      1.0000 0.53800  0.55800  0.85970  Biso   1.000  H
  O31      1.0000 0.62238  0.59361  0.69141  Biso   1.000  O
  O32      1.0000 0.48919  0.55634  0.75274  Biso   1.000  O
  O33      1.0000 0.75748  0.19871  0.76090  Biso   1.000  O
  O34      1.0000 0.62660  0.16116  0.82458  Biso   1.000  O
  O35      1.0000 0.46302  0.40883  0.82098  Biso   1.000  O
  H11      1.0000 0.44300  0.45700  0.79890  Biso   1.000  H
  O36      1.0000 0.79035  0.34728  0.69968  Biso   1.000  O
  H12      1.0000 0.79700  0.29800  0.71380  Biso   1.000  H
  C1       1.0000 0.13160  0.81798  0.39432  Biso   1.000  C
  C2       1.0000 0.19910  0.78379  0.44765  Biso   1.000  C
  C3       1.0000 0.29780  0.76704  0.43914  Biso   1.000  C
  C4       1.0000 0.35530  0.73270  0.49104  Biso   1.000  C
  H13      1.0000 0.42090  0.72110  0.48540  Biso   1.000  H
  C5       1.0000 0.31810  0.71508  0.55132  Biso   1.000  C
  C6       1.0000 0.21940  0.73302  0.55966  Biso   1.000  C
  C7       1.0000 0.16170  0.76738  0.50791  Biso   1.000  C
  H14      1.0000 0.09640  0.77980  0.51340  Biso   1.000  H
  C8       1.0000 0.38500  0.67774  0.60466  Biso   1.000  C
  C9       1.0000 0.92800  0.94630  0.28545  Biso   1.000  C
  C10      1.0000 0.89810  0.03165  0.26846  Biso   1.000  C
  C11      1.0000 0.94680  0.09200  0.22148  Biso   1.000  C
  C12      1.0000 0.91700  0.16980  0.20819  Biso   1.000  C
  H15      1.0000 0.94990  0.20970  0.17710  Biso   1.000  H
  C13      1.0000 0.83940  0.18995  0.24004  Biso   1.000  C
  C14      1.0000 0.79010  0.12970  0.28733  Biso   1.000  C
  C15      1.0000 0.82120  0.05210  0.30092  Biso   1.000  C
  H16      1.0000 0.78970  0.01230  0.33280  Biso   1.000  H
  C16      1.0000 0.81060  0.27590  0.22252  Biso   1.000  C
  C17      1.0000 0.02220  0.27236  0.70850  Biso   1.000  C
  C18      1.0000 0.07190  0.33058  0.73064  Biso   1.000  C
  C19      1.0000 0.05270  0.33390  0.78995  Biso   1.000  C
  C20      1.0000 0.10400  0.38790  0.80892  Biso   1.000  C
  H17      1.0000 0.09260  0.38940  0.84860  Biso   1.000  H
  C21      1.0000 0.17190  0.43938  0.76985  Biso   1.000  C
  C22      1.0000 0.19060  0.43605  0.71044  Biso   1.000  C
  C23      1.0000 0.13950  0.38320  0.69163  Biso   1.000  C
  H18      1.0000 0.15020  0.38260  0.65170  Biso   1.000  H
  C24      1.0000 0.22340  0.49684  0.79253  Biso   1.000  C
  C25      1.0000 0.26820  0.00690  0.21092  Biso   1.000  C
  C26      1.0000 0.31860  0.06501  0.23302  Biso   1.000  C
  C27      1.0000 0.30060  0.06847  0.29256  Biso   1.000  C
  C28      1.0000 0.35160  0.12214  0.31084  Biso   1.000  C
  H19      1.0000 0.34010  0.12410  0.35040  Biso   1.000  H
  C29      1.0000 0.41990  0.17356  0.27155  Biso   1.000  C
  C30      1.0000 0.43780  0.17060  0.21221  Biso   1.000  C
  C31      1.0000 0.38620  0.11660  0.19380  Biso   1.000  C
  H20      1.0000 0.39730  0.11500  0.15410  Biso   1.000  H
  C32      1.0000 0.47000  0.23198  0.29370  Biso   1.000  C
  C33      1.0000 0.12410  0.92177  0.10482  Biso   1.000  C
  C34      1.0000 0.05830  0.96159  0.05165  Biso   1.000  C
  C35      1.0000 0.95820  0.97490  0.06001  Biso   1.000  C
  C36      1.0000 0.90140  0.01239  0.00875  Biso   1.000  C
  H21      1.0000 0.83480  0.02060  0.01440  Biso   1.000  H
  C37      1.0000 0.37050  0.58236  0.89847  Biso   1.000  C
  C38      1.0000 0.43920  0.54091  0.95010  Biso   1.000  C
  C39      1.0000 0.53800  0.52572  0.93903  Biso   1.000  C
  C40      1.0000 0.40310  0.51491  0.01105  Biso   1.000  C
  H22      1.0000 0.33780  0.52510  0.01850  Biso   1.000  H
  C41      1.0000 0.56840  0.54255  0.72878  Biso   1.000  C
  C42      1.0000 0.59820  0.45715  0.74682  Biso   1.000  C
  C43      1.0000 0.54460  0.39590  0.79027  Biso   1.000  C
  C44      1.0000 0.57390  0.31811  0.80258  Biso   1.000  C
  H23      1.0000 0.53820  0.27780  0.83150  Biso   1.000  H
  C45      1.0000 0.65490  0.29833  0.77308  Biso   1.000  C
  C46      1.0000 0.70930  0.35960  0.73049  Biso   1.000  C
  C47      1.0000 0.68010  0.43736  0.71839  Biso   1.000  C
  H24      1.0000 0.71660  0.47770  0.69020  Biso   1.000  H
  C48      1.0000 0.68160  0.21272  0.78768  Biso   1.000  C
  Mg7      1.0000 0.08821  0.20574  0.60241  Biso   1.000  Mg
  Mg8      1.0000 0.87582  0.13319  0.74961  Biso   1.000  Mg
  Mg9      1.0000 0.65754  0.05624  0.89497  Biso   1.000  Mg
  Mg10     1.0000 0.39298  0.30947  0.38830  Biso   1.000  Mg
  Mg11     1.0000 0.62399  0.36764  0.24907  Biso   1.000  Mg
  Mg12     1.0000 0.85220  0.43023  0.10974  Biso   1.000  Mg
  O37      1.0000 0.95348  0.16215  0.59557  Biso   1.000  O
  O38      1.0000 0.83424  0.17600  0.65891  Biso   1.000  O
  O39      1.0000 0.52887  0.34071  0.40648  Biso   1.000  O
  O40      1.0000 0.65056  0.33295  0.34181  Biso   1.000  O
  O41      1.0000 0.65957  0.21866  0.61823  Biso   1.000  O
  H25      1.0000 0.70300  0.20600  0.64260  Biso   1.000  H
  O42      1.0000 0.82364  0.28176  0.38339  Biso   1.000  O
  H26      1.0000 0.78200  0.29900  0.35970  Biso   1.000  H
  O43      1.0000 0.12373  0.10487  0.67509  Biso   1.000  O
  O44      1.0000 0.99627  0.06739  0.74146  Biso   1.000  O
  O45      1.0000 0.26427  0.70959  0.74961  Biso   1.000  O
  O46      1.0000 0.13851  0.67387  0.81769  Biso   1.000  O
  O47      1.0000 0.97595  0.92202  0.81205  Biso   1.000  O
  H27      1.0000 0.96000  0.97000  0.79250  Biso   1.000  H
  O48      1.0000 0.28710  0.85710  0.67937  Biso   1.000  O
  H28      1.0000 0.29100  0.81100  0.69520  Biso   1.000  H
  O49      1.0000 0.95338  0.73101  0.34324  Biso   1.000  O
  O50      1.0000 0.04269  0.77095  0.25541  Biso   1.000  O
  O51      1.0000 0.71306  0.45961  0.24383  Biso   1.000  O
  O52      1.0000 0.79881  0.50143  0.15499  Biso   1.000  O
  O53      1.0000 0.01388  0.71369  0.16912  Biso   1.000  O
  H29      1.0000 0.04000  0.74000  0.19160  Biso   1.000  H
  O54      1.0000 0.74392  0.51550  0.33073  Biso   1.000  O
  H30      1.0000 0.71500  0.49100  0.31010  Biso   1.000  H
  O55      1.0000 0.79660  0.03615  0.75322  Biso   1.000  O
  O56      1.0000 0.70729  0.99584  0.84094  Biso   1.000  O
  O57      1.0000 0.55338  0.76518  0.65436  Biso   1.000  O
  O58      1.0000 0.46661  0.72492  0.74298  Biso   1.000  O
  O59      1.0000 0.76540  0.97974  0.66659  Biso   1.000  O
  H31      1.0000 0.79800  0.00800  0.68610  Biso   1.000  H
  O60      1.0000 0.49607  0.78180  0.82893  Biso   1.000  O
  H32      1.0000 0.47100  0.75500  0.80720  Biso   1.000  H
  O61      1.0000 0.91231  0.09066  0.84145  Biso   1.000  O
  O62      1.0000 0.79081  0.09674  0.90660  Biso   1.000  O
  O63      1.0000 0.08712  0.04820  0.88282  Biso   1.000  O
  H33      1.0000 0.04400  0.06000  0.86010  Biso   1.000  H
  O64      1.0000 0.59561  0.40015  0.15625  Biso   1.000  O
  O65      1.0000 0.71551  0.40373  0.08738  Biso   1.000  O
  O66      1.0000 0.41946  0.45138  0.11895  Biso   1.000  O
  H34      1.0000 0.46200  0.44200  0.14030  Biso   1.000  H
  O67      1.0000 0.37762  0.40639  0.30859  Biso   1.000  O
  O68      1.0000 0.51081  0.44366  0.24726  Biso   1.000  O
  O69      1.0000 0.24252  0.80129  0.23910  Biso   1.000  O
  O70      1.0000 0.37340  0.83884  0.17542  Biso   1.000  O
  O71      1.0000 0.53698  0.59117  0.17902  Biso   1.000  O
  H35      1.0000 0.55700  0.54300  0.20110  Biso   1.000  H
  O72      1.0000 0.20965  0.65272  0.30032  Biso   1.000  O
  H36      1.0000 0.20300  0.70200  0.28620  Biso   1.000  H
  C49      1.0000 0.86840  0.18202  0.60568  Biso   1.000  C
  C50      1.0000 0.80090  0.21621  0.55235  Biso   1.000  C
  C51      1.0000 0.70220  0.23296  0.56086  Biso   1.000  C
  C52      1.0000 0.64470  0.26730  0.50896  Biso   1.000  C
  H37      1.0000 0.57910  0.27890  0.51460  Biso   1.000  H
  C53      1.0000 0.68190  0.28492  0.44868  Biso   1.000  C
  C54      1.0000 0.78060  0.26698  0.44034  Biso   1.000  C
  C55      1.0000 0.83830  0.23262  0.49209  Biso   1.000  C
  H38      1.0000 0.90360  0.22020  0.48660  Biso   1.000  H
  C56      1.0000 0.61500  0.32226  0.39534  Biso   1.000  C
  C57      1.0000 0.07200  0.05370  0.71455  Biso   1.000  C
  C58      1.0000 0.10190  0.96835  0.73154  Biso   1.000  C
  C59      1.0000 0.05320  0.90800  0.77852  Biso   1.000  C
  C60      1.0000 0.08300  0.83020  0.79181  Biso   1.000  C
  H39      1.0000 0.05010  0.79030  0.82290  Biso   1.000  H
  C61      1.0000 0.16060  0.81005  0.75996  Biso   1.000  C
  C62      1.0000 0.20990  0.87030  0.71267  Biso   1.000  C
  C63      1.0000 0.17880  0.94790  0.69908  Biso   1.000  C
  H40      1.0000 0.21030  0.98770  0.66720  Biso   1.000  H
  C64      1.0000 0.18940  0.72410  0.77748  Biso   1.000  C
  C65      1.0000 0.97780  0.72764  0.29150  Biso   1.000  C
  C66      1.0000 0.92810  0.66942  0.26936  Biso   1.000  C
  C67      1.0000 0.94730  0.66610  0.21005  Biso   1.000  C
  C68      1.0000 0.89600  0.61210  0.19108  Biso   1.000  C
  H41      1.0000 0.90740  0.61060  0.15140  Biso   1.000  H
  C69      1.0000 0.82810  0.56062  0.23015  Biso   1.000  C
  C70      1.0000 0.80940  0.56395  0.28956  Biso   1.000  C
  C71      1.0000 0.86050  0.61680  0.30837  Biso   1.000  C
  H42      1.0000 0.84980  0.61740  0.34830  Biso   1.000  H
  C72      1.0000 0.77660  0.50316  0.20747  Biso   1.000  C
  C73      1.0000 0.73180  0.99310  0.78908  Biso   1.000  C
  C74      1.0000 0.68140  0.93499  0.76698  Biso   1.000  C
  C75      1.0000 0.69940  0.93153  0.70744  Biso   1.000  C
  C76      1.0000 0.64840  0.87786  0.68916  Biso   1.000  C
  H43      1.0000 0.65990  0.87590  0.64960  Biso   1.000  H
  C77      1.0000 0.58010  0.82644  0.72845  Biso   1.000  C
  C78      1.0000 0.56220  0.82940  0.78779  Biso   1.000  C
  C79      1.0000 0.61380  0.88340  0.80620  Biso   1.000  C
  H44      1.0000 0.60270  0.88500  0.84590  Biso   1.000  H
  C80      1.0000 0.53000  0.76802  0.70630  Biso   1.000  C
  C81      1.0000 0.87590  0.07823  0.89518  Biso   1.000  C
  C82      1.0000 0.94170  0.03841  0.94835  Biso   1.000  C
  C83      1.0000 0.04180  0.02510  0.93999  Biso   1.000  C
  C84      1.0000 0.09860  0.98761  0.99125  Biso   1.000  C
  H45      1.0000 0.16520  0.97940  0.98560  Biso   1.000  H
  C85      1.0000 0.62950  0.41764  0.10153  Biso   1.000  C
  C86      1.0000 0.56080  0.45909  0.04990  Biso   1.000  C
  C87      1.0000 0.46200  0.47428  0.06097  Biso   1.000  C
  C88      1.0000 0.59690  0.48509  0.98895  Biso   1.000  C
  H46      1.0000 0.66220  0.47490  0.98150  Biso   1.000  H
  C89      1.0000 0.43160  0.45745  0.27122  Biso   1.000  C
  C90      1.0000 0.40180  0.54285  0.25318  Biso   1.000  C
  C91      1.0000 0.45540  0.60410  0.20973  Biso   1.000  C
  C92      1.0000 0.42610  0.68189  0.19742  Biso   1.000  C
  H47      1.0000 0.46180  0.72220  0.16850  Biso   1.000  H
  C93      1.0000 0.34510  0.70167  0.22692  Biso   1.000  C
  C94      1.0000 0.29070  0.64040  0.26951  Biso   1.000  C
  C95      1.0000 0.31990  0.56264  0.28161  Biso   1.000  C
  H48      1.0000 0.28340  0.52230  0.30980  Biso   1.000  H
  C96      1.0000 0.31840  0.78728  0.21232  Biso   1.000  C
