data_LOQLEJ_manual
_audit_creation_date              2014-07-02
_audit_creation_method            'Materials Studio'
_symmetry_space_group_name_H-M    'P1'
_symmetry_Int_Tables_number       1
_symmetry_cell_setting            triclinic
loop_
_symmetry_equiv_pos_as_xyz
  x,y,z
_cell_length_a                    7.2330
_cell_length_b                    21.7582
_cell_length_c                    21.7582
_cell_angle_alpha                 60.0478
_cell_angle_beta                  90.0000
_cell_angle_gamma                 90.0000
loop_
_atom_site_label
_atom_site_type_symbol
_atom_site_fract_x
_atom_site_fract_y
_atom_site_fract_z
_atom_site_U_iso_or_equiv
_atom_site_adp_type
_atom_site_occupancy
In1    In    0.00000   0.00000   0.50000   0.01267  Uiso   1.00
In2    In    0.50000   0.00000   0.50000   0.01267  Uiso   1.00
In3    In    0.50000   0.50000   0.00000   0.01267  Uiso   1.00
In4    In    0.00000   0.50000   0.00000   0.01267  Uiso   1.00
In5    In    0.00000   0.00000   0.00000   0.01267  Uiso   1.00
In6    In    0.50000   0.00000   0.00000   0.01267  Uiso   1.00
H7     H     0.44921   0.79512   0.67950   0.01267  Uiso   1.00
H8     H     0.05024   0.96868   0.32256   0.01267  Uiso   1.00
H9     H     0.05082   0.96904   0.20798   0.01267  Uiso   1.00
H10    H     0.94921   0.20488   0.32050   0.01267  Uiso   1.00
H11    H     0.55024   0.03132   0.67744   0.01267  Uiso   1.00
H12    H     0.55082   0.03096   0.79202   0.01267  Uiso   1.00
H13    H     0.05079   0.67950   0.79512   0.01267  Uiso   1.00
H14    H     0.44976   0.32256   0.96868   0.01267  Uiso   1.00
H15    H     0.44918   0.20798   0.96904   0.01267  Uiso   1.00
H16    H     0.55079   0.32050   0.20488   0.01267  Uiso   1.00
H17    H     0.94976   0.67744   0.03132   0.01267  Uiso   1.00
H18    H     0.94918   0.79202   0.03096   0.01267  Uiso   1.00
H19    H     0.55079   0.20488   0.32050   0.01267  Uiso   1.00
H20    H     0.94976   0.03132   0.67744   0.01267  Uiso   1.00
H21    H     0.94918   0.03096   0.79202   0.01267  Uiso   1.00
H22    H     0.05079   0.79512   0.67950   0.01267  Uiso   1.00
H23    H     0.44976   0.96868   0.32256   0.01267  Uiso   1.00
H24    H     0.44918   0.96904   0.20798   0.01267  Uiso   1.00
H25    H     0.94921   0.32050   0.20488   0.01267  Uiso   1.00
H26    H     0.55024   0.67744   0.03132   0.01267  Uiso   1.00
H27    H     0.55082   0.79202   0.03096   0.01267  Uiso   1.00
H28    H     0.44921   0.67950   0.79512   0.01267  Uiso   1.00
H29    H     0.05024   0.32256   0.96868   0.01267  Uiso   1.00
H30    H     0.05082   0.20798   0.96904   0.01267  Uiso   1.00
C31    C     0.58560   0.76793   0.70467   0.01267  Uiso   1.00
C32    C     0.91390   0.96959   0.29583   0.01267  Uiso   1.00
C33    C     0.91420   0.96910   0.23408   0.01267  Uiso   1.00
C34    C     0.08560   0.23207   0.29533   0.01267  Uiso   1.00
C35    C     0.41390   0.03041   0.70417   0.01267  Uiso   1.00
C36    C     0.41420   0.03090   0.76592   0.01267  Uiso   1.00
C37    C     0.91440   0.70467   0.76793   0.01267  Uiso   1.00
C38    C     0.58610   0.29583   0.96959   0.01267  Uiso   1.00
C39    C     0.58580   0.23408   0.96910   0.01267  Uiso   1.00
C40    C     0.41440   0.29533   0.23207   0.01267  Uiso   1.00
C41    C     0.08610   0.70417   0.03041   0.01267  Uiso   1.00
C42    C     0.08580   0.76592   0.03090   0.01267  Uiso   1.00
C43    C     0.41440   0.23207   0.29533   0.01267  Uiso   1.00
C44    C     0.08610   0.03041   0.70417   0.01267  Uiso   1.00
C45    C     0.08580   0.03090   0.76592   0.01267  Uiso   1.00
C46    C     0.91440   0.76793   0.70467   0.01267  Uiso   1.00
C47    C     0.58610   0.96959   0.29583   0.01267  Uiso   1.00
C48    C     0.58580   0.96910   0.23408   0.01267  Uiso   1.00
C49    C     0.08560   0.29533   0.23207   0.01267  Uiso   1.00
C50    C     0.41390   0.70417   0.03041   0.01267  Uiso   1.00
C51    C     0.41420   0.76592   0.03090   0.01267  Uiso   1.00
C52    C     0.58560   0.70467   0.76793   0.01267  Uiso   1.00
C53    C     0.91390   0.29583   0.96959   0.01267  Uiso   1.00
C54    C     0.91420   0.23408   0.96910   0.01267  Uiso   1.00
C55    C     0.75000   0.87070   0.60596   0.01267  Uiso   1.00
C56    C     0.75000   0.79786   0.67230   0.01267  Uiso   1.00
C57    C     0.75000   0.97748   0.39386   0.01267  Uiso   1.00
C58    C     0.75000   0.97119   0.32755   0.01267  Uiso   1.00
C59    C     0.75000   0.96867   0.20249   0.01267  Uiso   1.00
C60    C     0.75000   0.97075   0.13125   0.01267  Uiso   1.00
C61    C     0.25000   0.12930   0.39404   0.01267  Uiso   1.00
C62    C     0.25000   0.20214   0.32770   0.01267  Uiso   1.00
C63    C     0.25000   0.02252   0.60614   0.01267  Uiso   1.00
C64    C     0.25000   0.02881   0.67245   0.01267  Uiso   1.00
C65    C     0.25000   0.03133   0.79751   0.01267  Uiso   1.00
C66    C     0.25000   0.02925   0.86875   0.01267  Uiso   1.00
C67    C     0.75000   0.60596   0.87070   0.01267  Uiso   1.00
C68    C     0.75000   0.67230   0.79786   0.01267  Uiso   1.00
C69    C     0.75000   0.39386   0.97748   0.01267  Uiso   1.00
C70    C     0.75000   0.32755   0.97119   0.01267  Uiso   1.00
C71    C     0.75000   0.20249   0.96867   0.01267  Uiso   1.00
C72    C     0.75000   0.13125   0.97075   0.01267  Uiso   1.00
C73    C     0.25000   0.39404   0.12930   0.01267  Uiso   1.00
C74    C     0.25000   0.32770   0.20214   0.01267  Uiso   1.00
C75    C     0.25000   0.60614   0.02252   0.01267  Uiso   1.00
C76    C     0.25000   0.67245   0.02881   0.01267  Uiso   1.00
C77    C     0.25000   0.79751   0.03133   0.01267  Uiso   1.00
C78    C     0.25000   0.86875   0.02925   0.01267  Uiso   1.00
O79    O     0.90435   0.89714   0.58072   0.01267  Uiso   1.00
O80    O     0.90194   0.97733   0.42005   0.01267  Uiso   1.00
O81    O     0.90353   0.97182   0.10416   0.01267  Uiso   1.00
O82    O     0.40435   0.10286   0.41928   0.01267  Uiso   1.00
O83    O     0.40194   0.02267   0.57995   0.01267  Uiso   1.00
O84    O     0.40353   0.02818   0.89584   0.01267  Uiso   1.00
O85    O     0.59565   0.58072   0.89714   0.01267  Uiso   1.00
O86    O     0.59806   0.42005   0.97733   0.01267  Uiso   1.00
O87    O     0.59647   0.10416   0.97182   0.01267  Uiso   1.00
O88    O     0.09565   0.41928   0.10286   0.01267  Uiso   1.00
O89    O     0.09806   0.57995   0.02267   0.01267  Uiso   1.00
O90    O     0.09647   0.89584   0.02818   0.01267  Uiso   1.00
O91    O     0.09565   0.10286   0.41928   0.01267  Uiso   1.00
O92    O     0.09806   0.02267   0.57995   0.01267  Uiso   1.00
O93    O     0.09647   0.02818   0.89584   0.01267  Uiso   1.00
O94    O     0.59565   0.89714   0.58072   0.01267  Uiso   1.00
O95    O     0.59806   0.97733   0.42005   0.01267  Uiso   1.00
O96    O     0.59647   0.97182   0.10416   0.01267  Uiso   1.00
O97    O     0.40435   0.41928   0.10286   0.01267  Uiso   1.00
O98    O     0.40194   0.57995   0.02267   0.01267  Uiso   1.00
O99    O     0.40353   0.89584   0.02818   0.01267  Uiso   1.00
O100   O     0.90435   0.58072   0.89714   0.01267  Uiso   1.00
O101   O     0.90194   0.42005   0.97733   0.01267  Uiso   1.00
O102   O     0.90353   0.10416   0.97182   0.01267  Uiso   1.00
O103   O     0.75000   0.04861   0.50117   0.01267  Uiso   1.00
O104   O     0.25000   0.95139   0.49883   0.01267  Uiso   1.00
O105   O     0.75000   0.50117   0.04861   0.01267  Uiso   1.00
O106   O     0.25000   0.49883   0.95139   0.01267  Uiso   1.00
O107   O     0.75000   0.97584   0.97584   0.01267  Uiso   1.00
O108   O     0.25000   0.02416   0.02416   0.01267  Uiso   1.00
H109   H     0.75017   0.45650   0.09481   0.00000  Uiso   1.00
H110   H     0.24997   0.90520   0.54350   0.00000  Uiso   1.00
H111   H     0.75003   0.09481   0.45651   0.00000  Uiso   1.00
H112   H     0.24999   0.45304   0.95201   0.00000  Uiso   1.00
H113   H     0.25000   0.07641   0.00248   0.00000  Uiso   1.00
H114   H     0.74995   0.99789   0.92356   0.00000  Uiso   1.00
loop_
_geom_bond_atom_site_label_1
_geom_bond_atom_site_label_2
_geom_bond_distance
_geom_bond_site_symmetry_2
_ccdc_geom_bond_type
In1    O91     2.156   .     S
In1    O92     2.152   .     S
In1    O79     2.156   1_445 S
In1    O80     2.152   1_445 S
In1    O103    2.101   1_455 S
In1    O104    2.101   1_545 S
In2    O82     2.156   .     S
In2    O83     2.152   .     S
In2    O103    2.101   .     S
In2    O94     2.156   1_545 S
In2    O95     2.152   1_545 S
In2    O104    2.101   1_545 S
In3    O97     2.156   .     S
In3    O98     2.152   .     S
In3    O105    2.101   .     S
In3    O85     2.156   1_554 S
In3    O86     2.152   1_554 S
In3    O106    2.101   1_554 S
In4    O88     2.156   .     S
In4    O89     2.152   .     S
In4    O100    2.156   1_454 S
In4    O101    2.152   1_454 S
In4    O105    2.101   1_455 S
In4    O106    2.101   1_554 S
In5    O108    2.024   .     S
In5    O81     2.147   1_445 S
In5    O90     2.147   1_545 S
In5    O93     2.147   1_554 S
In5    O102    2.147   1_454 S
In5    O107    2.024   1_444 S
In6    O108    2.024   .     S
In6    O84     2.147   1_554 S
In6    O87     2.147   1_554 S
In6    O96     2.147   1_545 S
In6    O99     2.147   1_545 S
In6    O107    2.024   1_544 S
H7     C31     1.140   .     S
H8     C32     1.140   1_455 A
H9     C33     1.140   1_455 A
H10    C34     1.140   1_655 A
H11    C35     1.140   .     S
H12    C36     1.140   .     S
H13    C37     1.140   1_455 A
H14    C38     1.140   .     S
H15    C39     1.140   .     S
H16    C40     1.140   .     S
H17    C41     1.140   1_655 A
H18    C42     1.140   1_655 A
H19    C43     1.140   .     S
H20    C44     1.140   1_655 A
H21    C45     1.140   1_655 A
H22    C46     1.140   1_455 A
H23    C47     1.140   .     S
H24    C48     1.140   .     S
H25    C49     1.140   1_655 A
H26    C50     1.140   .     S
H27    C51     1.140   .     S
H28    C52     1.140   .     S
H29    C53     1.140   1_455 A
H30    C54     1.140   1_455 A
C31    C52     1.377   .     A
C31    C56     1.370   .     A
C32    C33     1.349   .     A
C32    C58     1.381   .     A
C32    H8      1.140   1_655 A
C33    C59     1.375   .     A
C33    H9      1.140   1_655 A
C34    C49     1.377   .     A
C34    C62     1.370   .     A
C34    H10     1.140   1_455 A
C35    C36     1.349   .     A
C35    C64     1.381   .     A
C36    C65     1.375   .     A
C37    C46     1.377   .     A
C37    C68     1.370   .     A
C37    H13     1.140   1_655 A
C38    C39     1.349   .     A
C38    C70     1.381   .     A
C39    C71     1.375   .     A
C40    C43     1.377   .     A
C40    C74     1.370   .     A
C41    C42     1.349   .     A
C41    C76     1.381   .     A
C41    H17     1.140   1_455 A
C42    C77     1.375   .     A
C42    H18     1.140   1_455 A
C43    C62     1.370   .     A
C44    C45     1.349   .     A
C44    C64     1.381   .     A
C44    H20     1.140   1_455 A
C45    C65     1.375   .     A
C45    H21     1.140   1_455 A
C46    C56     1.370   .     A
C46    H22     1.140   1_655 A
C47    C48     1.349   .     A
C47    C58     1.381   .     A
C48    C59     1.375   .     A
C49    C74     1.370   .     A
C49    H25     1.140   1_455 A
C50    C51     1.349   .     A
C50    C76     1.381   .     A
C51    C77     1.375   .     A
C52    C68     1.370   .     A
C53    C54     1.349   .     A
C53    C70     1.381   .     A
C53    H29     1.140   1_655 A
C54    C71     1.375   .     A
C54    H30     1.140   1_655 A
C55    C56     1.520   .     S
C55    O79     1.250   .     A
C55    O94     1.250   .     A
C57    C58     1.516   .     S
C57    O80     1.237   .     A
C57    O95     1.237   .     A
C59    C60     1.528   .     S
C60    O81     1.252   .     A
C60    O96     1.252   .     A
C61    C62     1.520   .     S
C61    O82     1.250   .     A
C61    O91     1.250   .     A
C63    C64     1.516   .     S
C63    O83     1.237   .     A
C63    O92     1.237   .     A
C65    C66     1.528   .     S
C66    O84     1.252   .     A
C66    O93     1.252   .     A
C67    C68     1.520   .     S
C67    O85     1.250   .     A
C67    O100    1.250   .     A
C69    C70     1.516   .     S
C69    O86     1.237   .     A
C69    O101    1.237   .     A
C71    C72     1.528   .     S
C72    O87     1.252   .     A
C72    O102    1.252   .     A
C73    C74     1.520   .     S
C73    O88     1.250   .     A
C73    O97     1.250   .     A
C75    C76     1.516   .     S
C75    O89     1.237   .     A
C75    O98     1.237   .     A
C77    C78     1.528   .     S
C78    O90     1.252   .     A
C78    O99     1.252   .     A
O79    In1     2.156   1_665 S
O80    In1     2.152   1_665 S
O81    In5     2.147   1_665 S
O84    In6     2.147   1_556 S
O85    In3     2.156   1_556 S
O86    In3     2.152   1_556 S
O87    In6     2.147   1_556 S
O90    In5     2.147   1_565 S
O93    In5     2.147   1_556 S
O94    In2     2.156   1_565 S
O95    In2     2.152   1_565 S
O96    In6     2.147   1_565 S
O99    In6     2.147   1_565 S
O100   In4     2.156   1_656 S
O101   In4     2.152   1_656 S
O102   In5     2.147   1_656 S
O103   H111    0.990   .     S
O103   In1     2.101   1_655 S
O104   H110    0.990   .     S
O104   In1     2.101   1_565 S
O104   In2     2.101   1_565 S
O105   H109    0.990   .     S
O105   In4     2.101   1_655 S
O106   H112    0.990   .     S
O106   In3     2.101   1_556 S
O106   In4     2.101   1_556 S
O107   H114    0.990   .     S
O107   In5     2.024   1_666 S
O107   In6     2.024   1_566 S
O108   H113    0.990   .     S
