data_LOQLIN_clean
_audit_creation_date              2015-05-15
_audit_creation_method            'Materials Studio'
_symmetry_space_group_name_H-M    'P1'
_symmetry_Int_Tables_number       1
_symmetry_cell_setting            triclinic
loop_
_symmetry_equiv_pos_as_xyz
  x,y,z
_cell_length_a                    21.1869
_cell_length_b                    21.1869
_cell_length_c                    6.7423
_cell_angle_alpha                 90.0000
_cell_angle_beta                  90.0000
_cell_angle_gamma                 59.9660
loop_
_atom_site_label
_atom_site_type_symbol
_atom_site_fract_x
_atom_site_fract_y
_atom_site_fract_z
_atom_site_U_iso_or_equiv
_atom_site_adp_type
_atom_site_occupancy
H1     H     0.32147   0.20907   0.94430   0.01267  Uiso   1.00
H2     H     0.67752   0.02892   0.94430   0.01267  Uiso   1.00
H3     H     0.79232   0.02380   0.94430   0.01267  Uiso   1.00
C4     C     0.29833   0.23221   0.07018   0.01267  Uiso   1.00
C5     C     0.70115   0.02787   0.07018   0.01267  Uiso   1.00
C6     C     0.76868   0.02486   0.07018   0.01267  Uiso   1.00
O7     O     0.43173   0.09881   0.08944   0.01267  Uiso   1.00
O8     O     0.56488   0.03394   0.08944   0.01267  Uiso   1.00
O9     O     0.90496   0.01878   0.08944   0.01267  Uiso   1.00
H10    H     0.50000   0.90680   0.25000   0.01267  Uiso   1.00
H11    H     0.67853   0.79093   0.44430   0.01267  Uiso   1.00
H12    H     0.32248   0.97108   0.44430   0.01267  Uiso   1.00
H13    H     0.20768   0.97620   0.44430   0.01267  Uiso   1.00
C14    C     0.70167   0.76779   0.57018   0.01267  Uiso   1.00
C15    C     0.29885   0.97213   0.57018   0.01267  Uiso   1.00
C16    C     0.23132   0.97514   0.57018   0.01267  Uiso   1.00
O17    O     0.56827   0.90119   0.58944   0.01267  Uiso   1.00
O18    O     0.43512   0.96606   0.58944   0.01267  Uiso   1.00
O19    O     0.09504   0.98122   0.58944   0.01267  Uiso   1.00
H20    H     0.50000   0.09320   0.75000   0.01267  Uiso   1.00
H21    H     0.20907   0.32147   0.55570   0.01267  Uiso   1.00
H22    H     0.02892   0.67752   0.55570   0.01267  Uiso   1.00
H23    H     0.02380   0.79232   0.55570   0.01267  Uiso   1.00
C24    C     0.23221   0.29833   0.42982   0.01267  Uiso   1.00
C25    C     0.02787   0.70115   0.42982   0.01267  Uiso   1.00
C26    C     0.02486   0.76868   0.42982   0.01267  Uiso   1.00
O27    O     0.09881   0.43173   0.41056   0.01267  Uiso   1.00
O28    O     0.03394   0.56488   0.41056   0.01267  Uiso   1.00
O29    O     0.01878   0.90496   0.41056   0.01267  Uiso   1.00
H30    H     0.90680   0.50000   0.25000   0.01267  Uiso   1.00
H31    H     0.79093   0.67853   0.05570   0.01267  Uiso   1.00
H32    H     0.97108   0.32248   0.05570   0.01267  Uiso   1.00
H33    H     0.97620   0.20768   0.05570   0.01267  Uiso   1.00
C34    C     0.76779   0.70167   0.92982   0.01267  Uiso   1.00
C35    C     0.97213   0.29885   0.92982   0.01267  Uiso   1.00
C36    C     0.97514   0.23132   0.92982   0.01267  Uiso   1.00
O37    O     0.90119   0.56827   0.91056   0.01267  Uiso   1.00
O38    O     0.96606   0.43512   0.91056   0.01267  Uiso   1.00
O39    O     0.98122   0.09504   0.91056   0.01267  Uiso   1.00
H40    H     0.09320   0.50000   0.75000   0.01267  Uiso   1.00
H41    H     0.67853   0.79093   0.05570   0.01267  Uiso   1.00
H42    H     0.32248   0.97108   0.05570   0.01267  Uiso   1.00
H43    H     0.20768   0.97620   0.05570   0.01267  Uiso   1.00
C44    C     0.70167   0.76779   0.92982   0.01267  Uiso   1.00
C45    C     0.29885   0.97213   0.92982   0.01267  Uiso   1.00
C46    C     0.23132   0.97514   0.92982   0.01267  Uiso   1.00
O47    O     0.56827   0.90119   0.91056   0.01267  Uiso   1.00
O48    O     0.43512   0.96606   0.91056   0.01267  Uiso   1.00
O49    O     0.09504   0.98122   0.91056   0.01267  Uiso   1.00
H51    H     0.32147   0.20907   0.55570   0.01267  Uiso   1.00
H52    H     0.67752   0.02892   0.55570   0.01267  Uiso   1.00
H53    H     0.79232   0.02380   0.55570   0.01267  Uiso   1.00
C54    C     0.29833   0.23221   0.42982   0.01267  Uiso   1.00
C55    C     0.70115   0.02787   0.42982   0.01267  Uiso   1.00
C56    C     0.76868   0.02486   0.42982   0.01267  Uiso   1.00
O57    O     0.43173   0.09881   0.41056   0.01267  Uiso   1.00
O58    O     0.56488   0.03394   0.41056   0.01267  Uiso   1.00
O59    O     0.90496   0.01878   0.41056   0.01267  Uiso   1.00
H61    H     0.79093   0.67853   0.44430   0.01267  Uiso   1.00
H62    H     0.97108   0.32248   0.44430   0.01267  Uiso   1.00
H63    H     0.97620   0.20768   0.44430   0.01267  Uiso   1.00
C64    C     0.76779   0.70167   0.57018   0.01267  Uiso   1.00
C65    C     0.97213   0.29885   0.57018   0.01267  Uiso   1.00
C66    C     0.97514   0.23132   0.57018   0.01267  Uiso   1.00
O67    O     0.90119   0.56827   0.58944   0.01267  Uiso   1.00
O68    O     0.96606   0.43512   0.58944   0.01267  Uiso   1.00
O69    O     0.98122   0.09504   0.58944   0.01267  Uiso   1.00
H71    H     0.20907   0.32147   0.94430   0.01267  Uiso   1.00
H72    H     0.02892   0.67752   0.94430   0.01267  Uiso   1.00
H73    H     0.02380   0.79232   0.94430   0.01267  Uiso   1.00
C74    C     0.23221   0.29833   0.07018   0.01267  Uiso   1.00
C75    C     0.02787   0.70115   0.07018   0.01267  Uiso   1.00
C76    C     0.02486   0.76868   0.07018   0.01267  Uiso   1.00
O77    O     0.09881   0.43173   0.08944   0.01267  Uiso   1.00
O78    O     0.03394   0.56488   0.08944   0.01267  Uiso   1.00
O79    O     0.01878   0.90496   0.08944   0.01267  Uiso   1.00
Ga81   Ga    0.50000   0.00000   0.00000   0.01267  Uiso   1.00
Ga82   Ga    0.50000   0.00000   0.50000   0.01267  Uiso   1.00
Ga83   Ga   -0.00000   0.50000   0.50000   0.01267  Uiso   1.00
Ga84   Ga   -0.00000   0.50000   0.00000   0.01267  Uiso   1.00
Ga85   Ga   -0.00000   0.00000   0.00000   0.01267  Uiso   1.00
Ga86   Ga   -0.00000   0.00000   0.50000   0.01267  Uiso   1.00
C87    C     0.40222   0.12832   0.25000   0.01267  Uiso   1.00
C88    C     0.33138   0.19916   0.25000   0.01267  Uiso   1.00
C89    C     0.59502   0.03260   0.25000   0.01267  Uiso   1.00
C90    C     0.66739   0.02937   0.25000   0.01267  Uiso   1.00
C91    C     0.80245   0.02335   0.25000   0.01267  Uiso   1.00
C92    C     0.87481   0.02013   0.25000   0.01267  Uiso   1.00
O93    O     0.50000   0.95400   0.25000   0.01267  Uiso   1.00
C94    C     0.59778   0.87168   0.75000   0.01267  Uiso   1.00
C95    C     0.66862   0.80084   0.75000   0.01267  Uiso   1.00
C96    C     0.40498   0.96740   0.75000   0.01267  Uiso   1.00
C97    C     0.33261   0.97063   0.75000   0.01267  Uiso   1.00
C98    C     0.19755   0.97665   0.75000   0.01267  Uiso   1.00
C99    C     0.12519   0.97987   0.75000   0.01267  Uiso   1.00
O100   O     0.50000   0.04600   0.75000   0.01267  Uiso   1.00
C101   C     0.12832   0.40222   0.25000   0.01267  Uiso   1.00
C102   C     0.19916   0.33138   0.25000   0.01267  Uiso   1.00
C103   C     0.03260   0.59502   0.25000   0.01267  Uiso   1.00
C104   C     0.02937   0.66739   0.25000   0.01267  Uiso   1.00
C105   C     0.02335   0.80245   0.25000   0.01267  Uiso   1.00
C106   C     0.02013   0.87481   0.25000   0.01267  Uiso   1.00
O107   O     0.95400   0.50000   0.25000   0.01267  Uiso   1.00
C108   C     0.87168   0.59778   0.75000   0.01267  Uiso   1.00
C109   C     0.80084   0.66862   0.75000   0.01267  Uiso   1.00
C110   C     0.96740   0.40498   0.75000   0.01267  Uiso   1.00
C111   C     0.97063   0.33261   0.75000   0.01267  Uiso   1.00
C112   C     0.97665   0.19755   0.75000   0.01267  Uiso   1.00
C113   C     0.97987   0.12519   0.75000   0.01267  Uiso   1.00
O114   O     0.04600   0.50000   0.75000   0.01267  Uiso   1.00
O115   O     0.02563   0.02563   0.25000   0.01267  Uiso   1.00
O116   O     0.97437   0.97437   0.75000   0.01267  Uiso   1.00
