data_LORMOW_clean
_audit_creation_date              2015-10-16
_audit_creation_method            'Materials Studio'
_symmetry_space_group_name_H-M    'P1'
_symmetry_Int_Tables_number       1
_symmetry_cell_setting            triclinic
loop_
_symmetry_equiv_pos_as_xyz
  x,y,z
_cell_length_a                    7.6690
_cell_length_b                    15.5888
_cell_length_c                    16.7319
_cell_angle_alpha                 69.9480
_cell_angle_beta                  80.1550
_cell_angle_gamma                 81.1160
loop_
_atom_site_label
_atom_site_type_symbol
_atom_site_fract_x
_atom_site_fract_y
_atom_site_fract_z
_atom_site_U_iso_or_equiv
_atom_site_adp_type
_atom_site_occupancy
Cd1    Cd    0.36779   0.99261   0.85753   0.01267  Uiso   1.00
Cd2    Cd    0.61510   0.17655   0.91263   0.01267  Uiso   1.00
Cd3    Cd    0.63221   0.00739   0.14247   0.01267  Uiso   1.00
Cd4    Cd    0.00000   0.00000   0.00000   0.01267  Uiso   1.00
Cd5    Cd    0.38490   0.82345   0.08737   0.01267  Uiso   1.00
H1     H     0.62050   0.49810   0.93710   0.01267  Uiso   1.00
H2     H     0.88130   0.96600   0.47070   0.01267  Uiso   1.00
H3     H     0.67710   0.00540   0.97910   0.01267  Uiso   1.00
H4     H     0.51440   0.38280   0.91190   0.01267  Uiso   1.00
H5     H     0.53050   0.25440   0.09850   0.01267  Uiso   1.00
H6     H     0.11340   0.21430   0.51930   0.01267  Uiso   1.00
H7     H     0.90630   0.65080   0.04390   0.01267  Uiso   1.00
H8     H     0.64760   0.34540   0.15240   0.01267  Uiso   1.00
H9     H     0.06310   0.71300   0.69730   0.01267  Uiso   1.00
H10    H     0.60640   0.05380   0.32620   0.01267  Uiso   1.00
H11    H     0.32290   0.99460   0.02090   0.01267  Uiso   1.00
H12    H     0.02250   0.76150   0.07320   0.01267  Uiso   1.00
H13    H     0.74050   0.03360   0.76010   0.01267  Uiso   1.00
H14    H     0.46950   0.74560   0.90150   0.01267  Uiso   1.00
H15    H     0.88660   0.78570   0.48070   0.01267  Uiso   1.00
H16    H     0.04960   0.97430   0.35010   0.01267  Uiso   1.00
H17    H     0.39360   0.94620   0.67380   0.01267  Uiso   1.00
H18    H     0.05120   0.81690   0.35000   0.01267  Uiso   1.00
H19    H     0.35400   0.74880   0.33850   0.01267  Uiso   1.00
H20    H     0.19280   0.36590   0.30540   0.01267  Uiso   1.00
H21    H     0.39560   0.25390   0.42600   0.01267  Uiso   1.00
H22    H     0.25950   0.96640   0.23990   0.01267  Uiso   1.00
H23    H     0.86580   0.56360   0.96550   0.01267  Uiso   1.00
H24    H     0.94880   0.18310   0.65000   0.01267  Uiso   1.00
H25    H     0.93690   0.28700   0.30270   0.01267  Uiso   1.00
H26    H     0.09370   0.34920   0.95610   0.01267  Uiso   1.00
H27    H     0.52160   0.60020   0.74160   0.01267  Uiso   1.00
H28    H     0.35240   0.65460   0.84760   0.01267  Uiso   1.00
H29    H     0.48560   0.61720   0.08810   0.01267  Uiso   1.00
H30    H     0.40670   0.06570   0.44040   0.01267  Uiso   1.00
H31    H     0.13420   0.43640   0.03450   0.01267  Uiso   1.00
H32    H     0.81960   0.19380   0.25160   0.01267  Uiso   1.00
H33    H     0.97750   0.23850   0.92680   0.01267  Uiso   1.00
H34    H     0.95040   0.02570   0.64990   0.01267  Uiso   1.00
H35    H     0.67260   0.29830   0.40910   0.01267  Uiso   1.00
H36    H     0.18040   0.80620   0.74840   0.01267  Uiso   1.00
H37    H     0.11870   0.03400   0.52930   0.01267  Uiso   1.00
H38    H     0.80720   0.63410   0.69460   0.01267  Uiso   1.00
H39    H     0.37950   0.50190   0.06290   0.01267  Uiso   1.00
H40    H     0.20290   0.69830   0.47300   0.01267  Uiso   1.00
H41    H     0.79710   0.30170   0.52700   0.01267  Uiso   1.00
H42    H     0.47840   0.39980   0.25840   0.01267  Uiso   1.00
H43    H     0.60440   0.74610   0.57400   0.01267  Uiso   1.00
H44    H     0.32740   0.70170   0.59090   0.01267  Uiso   1.00
H45    H     0.64600   0.25120   0.66150   0.01267  Uiso   1.00
H46    H     0.59330   0.93430   0.55960   0.01267  Uiso   1.00
C1     C     0.69490   0.44480   0.93780   0.01267  Uiso   1.00
C2     C     0.28360   0.25430   0.16600   0.01267  Uiso   1.00
C3     C     0.99480   0.73530   0.73900   0.01267  Uiso   1.00
C4     C     0.00520   0.26470   0.26100   0.01267  Uiso   1.00
C5     C     0.63240   0.37560   0.92160   0.01267  Uiso   1.00
C6     C     0.74070   0.65680   0.73630   0.01267  Uiso   1.00
C7     C     0.85820   0.81570   0.28160   0.01267  Uiso   1.00
C8     C     0.71640   0.74570   0.83400   0.01267  Uiso   1.00
C9     C     0.71010   0.01360   0.71850   0.01267  Uiso   1.00
C10    C     0.50750   0.96270   0.66870   0.01267  Uiso   1.00
C11    C     0.93230   0.80760   0.35530   0.01267  Uiso   1.00
C12    C     0.58420   0.76690   0.37260   0.01267  Uiso   1.00
C13    C     0.44180   0.25620   0.47310   0.01267  Uiso   1.00
C14    C     0.53960   0.72300   0.86040   0.01267  Uiso   1.00
C15    C     0.31400   0.20560   0.71010   0.01267  Uiso   1.00
C16    C     0.68240   0.83610   0.93490   0.01267  Uiso   1.00
C17    C     0.92040   0.98660   0.51000   0.01267  Uiso   1.00
C18    C     0.31540   0.71750   0.46510   0.01267  Uiso   1.00
C19    C     0.97250   0.84800   0.19750   0.01267  Uiso   1.00
C20    C     0.06770   0.19240   0.64470   0.01267  Uiso   1.00
C21    C     0.40350   0.20380   0.78390   0.01267  Uiso   1.00
C22    C     0.33860   0.23320   0.55510   0.01267  Uiso   1.00
C23    C     0.86780   0.43620   0.95520   0.01267  Uiso   1.00
C24    C     0.53150   0.33060   0.17210   0.01267  Uiso   1.00
C25    C     0.36760   0.62440   0.07840   0.01267  Uiso   1.00
C26    C     0.59190   0.25530   0.61440   0.01267  Uiso   1.00
C27    C     0.20350   0.01460   0.41310   0.01267  Uiso   1.00
C28    C     0.16430   0.21330   0.56620   0.01267  Uiso   1.00
C29    C     0.25930   0.34320   0.26370   0.01267  Uiso   1.00
C30    C     0.96810   0.82320   0.83520   0.01267  Uiso   1.00
C31    C     0.18200   0.28880   0.23110   0.01267  Uiso   1.00
C32    C     0.28990   0.98640   0.28150   0.01267  Uiso   1.00
C33    C     0.46040   0.27700   0.13960   0.01267  Uiso   1.00
C34    C     0.57060   0.63630   0.76440   0.01267  Uiso   1.00
C35    C     0.93430   0.20990   0.22980   0.01267  Uiso   1.00
C36    C     0.31760   0.16390   0.06510   0.01267  Uiso   1.00
C37    C     0.83570   0.78670   0.43380   0.01267  Uiso   1.00
C38    C     0.20330   0.19880   0.13350   0.01267  Uiso   1.00
C39    C     0.83680   0.01060   0.65160   0.01267  Uiso   1.00
C40    C     0.30510   0.55520   0.06220   0.01267  Uiso   1.00
C41    C     0.07960   0.01340   0.49000   0.01267  Uiso   1.00
C42    C     0.55820   0.74380   0.52690   0.01267  Uiso   1.00
C43    C     0.05720   0.87990   0.86850   0.01267  Uiso   1.00
C44    C     0.79650   0.98540   0.58690   0.01267  Uiso   1.00
C45    C     0.09620   0.70940   0.06920   0.01267  Uiso   1.00
C46    C     0.41580   0.23310   0.62740   0.01267  Uiso   1.00
C47    C     0.60760   0.28140   0.46340   0.01267  Uiso   1.00
C48    C     0.66140   0.76680   0.44490   0.01267  Uiso   1.00
C49    C     0.06570   0.79010   0.77020   0.01267  Uiso   1.00
C50    C     0.68600   0.79440   0.28990   0.01267  Uiso   1.00
C51    C     0.92980   0.50580   0.97960   0.01267  Uiso   1.00
C52    C     0.79670   0.80120   0.86650   0.01267  Uiso   1.00
C53    C     0.62590   0.95700   0.59900   0.01267  Uiso   1.00
C54    C     0.49250   0.03730   0.33130   0.01267  Uiso   1.00
C55    C     0.81800   0.71120   0.76890   0.01267  Uiso   1.00
C56    C     0.42940   0.36370   0.23560   0.01267  Uiso   1.00
C57    C     0.68460   0.28250   0.53490   0.01267  Uiso   1.00
C58    C     0.94280   0.12010   0.13150   0.01267  Uiso   1.00
C59    C     0.37410   0.04300   0.40100   0.01267  Uiso   1.00
C60    C     0.13220   0.56380   0.04480   0.01267  Uiso   1.00
C61    C     0.39240   0.71860   0.53660   0.01267  Uiso   1.00
C62    C     0.46850   0.66940   0.82790   0.01267  Uiso   1.00
C63    C     0.40810   0.74470   0.38560   0.01267  Uiso   1.00
C64    C     0.90380   0.29060   0.93080   0.01267  Uiso   1.00
C65    C     0.14180   0.18430   0.71840   0.01267  Uiso   1.00
C66    C     0.59650   0.79620   0.21610   0.01267  Uiso   1.00
C67    C     0.16320   0.98940   0.34840   0.01267  Uiso   1.00
C68    C     0.03190   0.17680   0.16480   0.01267  Uiso   1.00
C69    C     0.07020   0.49420   0.02040   0.01267  Uiso   1.00
C70    C     0.02750   0.15200   0.80250   0.01267  Uiso   1.00
C71    C     0.97430   0.35700   0.94850   0.01267  Uiso   1.00
C72    C     0.02570   0.64300   0.05150   0.01267  Uiso   1.00
N1     N     0.45310   0.00980   0.27110   0.01267  Uiso   1.00
N2     N     0.26760   0.70180   0.08090   0.01267  Uiso   1.00
N3     N     0.73240   0.29820   0.91910   0.01267  Uiso   1.00
N4     N     0.54690   0.99020   0.72890   0.01267  Uiso   1.00
O1     O     0.00740   0.10900   0.06150   0.01267  Uiso   1.00
O2     O     0.71120   0.04060   0.99850   0.01267  Uiso   1.00
O3     O     0.52270   0.87210   0.17080   0.01267  Uiso   1.00
O4     O     0.89620   0.89990   0.13380   0.01267  Uiso   1.00
O5     O     0.63480   0.78120   0.00450   0.01267  Uiso   1.00
O6     O     0.28880   0.95940   0.00150   0.01267  Uiso   1.00
O7     O     0.37110   0.07730   0.08930   0.01267  Uiso   1.00
O8     O     0.80380   0.08670   0.17690   0.01267  Uiso   1.00
O9     O     0.58440   0.72340   0.20440   0.01267  Uiso   1.00
O10    O     0.62890   0.92270   0.91070   0.01267  Uiso   1.00
O11    O     0.86550   0.17580   0.80580   0.01267  Uiso   1.00
O12    O     0.10380   0.10010   0.86620   0.01267  Uiso   1.00
O13    O     0.19620   0.91330   0.82310   0.01267  Uiso   1.00
O14    O     0.47730   0.12790   0.82920   0.01267  Uiso   1.00
O15    O     0.13450   0.82420   0.19420   0.01267  Uiso   1.00
O16    O     0.36520   0.21880   0.99550   0.01267  Uiso   1.00
O17    O     0.41560   0.27660   0.79560   0.01267  Uiso   1.00
O18    O     0.99260   0.89100   0.93850   0.01267  Uiso   1.00
