data_image0
_cell_length_a       14.6534
_cell_length_b       17.7687
_cell_length_c       31.9462
_cell_angle_alpha    90
_cell_angle_beta     90.292
_cell_angle_gamma    90

_symmetry_space_group_name_H-M    "P 1"
_symmetry_int_tables_number       1

loop_
  _symmetry_equiv_pos_as_xyz
  'x, y, z'

loop_
  _atom_site_label
  _atom_site_occupancy
  _atom_site_fract_x
  _atom_site_fract_y
  _atom_site_fract_z
  _atom_site_thermal_displace_type
  _atom_site_B_iso_or_equiv
  _atom_site_type_symbol
  C1       1.0000 0.54800  0.58080  0.95251  Biso   1.000  C
  C2       1.0000 0.45890  0.59420  0.93935  Biso   1.000  C
  H1       1.0000 0.43540  0.64400  0.93980  Biso   1.000  H
  C3       1.0000 0.40440  0.53570  0.92568  Biso   1.000  C
  C4       1.0000 0.44170  0.46340  0.92654  Biso   1.000  C
  H2       1.0000 0.40730  0.42160  0.91680  Biso   1.000  H
  C5       1.0000 0.53060  0.45330  0.94200  Biso   1.000  C
  C6       1.0000 0.57330  0.37820  0.94584  Biso   1.000  C
  C7       1.0000 0.52350  0.31170  0.94462  Biso   1.000  C
  H3       1.0000 0.45950  0.31360  0.93990  Biso   1.000  H
  C8       1.0000 0.56600  0.24220  0.95016  Biso   1.000  C
  H4       1.0000 0.53090  0.19720  0.94920  Biso   1.000  H
  C9       1.0000 0.65890  0.23860  0.95708  Biso   1.000  C
  C10      1.0000 0.70910  0.30410  0.95870  Biso   1.000  C
  H5       1.0000 0.77300  0.30200  0.96380  Biso   1.000  H
  C11      1.0000 0.66640  0.37320  0.95300  Biso   1.000  C
  H6       1.0000 0.70190  0.41800  0.95410  Biso   1.000  H
  C12      1.0000 0.70460  0.16430  0.96426  Biso   1.000  C
  C13      1.0000 0.30980  0.54880  0.91010  Biso   1.000  C
  C14      1.0000 0.24360  0.49250  0.91030  Biso   1.000  C
  H7       1.0000 0.25760  0.44400  0.92110  Biso   1.000  H
  C15      1.0000 0.15790  0.50750  0.89460  Biso   1.000  C
  H8       1.0000 0.11430  0.46800  0.89510  Biso   1.000  H
  C16      1.0000 0.19590  0.62820  0.87920  Biso   1.000  C
  H9       1.0000 0.17990  0.67620  0.86840  Biso   1.000  H
  C17      1.0000 0.28300  0.61820  0.89450  Biso   1.000  C
  H10      1.0000 0.32500  0.65890  0.89430  Biso   1.000  H
  C18      1.0000 0.00090  0.86570  0.11367  Biso   1.000  C
  C19      1.0000 0.07680  0.82520  0.13611  Biso   1.000  C
  C20      1.0000 0.16630  0.84030  0.12515  Biso   1.000  C
  H11      1.0000 0.17920  0.87630  0.10400  Biso   1.000  H
  C21      1.0000 0.23700  0.80260  0.14516  Biso   1.000  C
  H12      1.0000 0.29820  0.81370  0.13780  Biso   1.000  H
  C22      1.0000 0.21990  0.74910  0.17570  Biso   1.000  C
  C23      1.0000 0.12910  0.73580  0.18690  Biso   1.000  C
  H13      1.0000 0.11580  0.70060  0.20840  Biso   1.000  H
  C24      1.0000 0.05840  0.77330  0.16694  Biso   1.000  C
  H14      1.0000 0.99700  0.76330  0.17460  Biso   1.000  H
  C25      1.0000 0.29620  0.70790  0.19663  Biso   1.000  C
  C26      1.0000 0.38120  0.70300  0.17833  Biso   1.000  C
  H15      1.0000 0.39130  0.72440  0.15150  Biso   1.000  H
  C27      1.0000 0.45200  0.66680  0.19939  Biso   1.000  C
  C28      1.0000 0.43240  0.63370  0.23748  Biso   1.000  C
  H16      1.0000 0.47850  0.60740  0.25250  Biso   1.000  H
  C29      1.0000 0.34450  0.63910  0.25365  Biso   1.000  C
  C30      1.0000 0.32010  0.60740  0.29550  Biso   1.000  C
  C31      1.0000 0.38010  0.56070  0.31734  Biso   1.000  C
  H17      1.0000 0.43620  0.54620  0.30500  Biso   1.000  H
  C32      1.0000 0.35800  0.53520  0.35731  Biso   1.000  C
  H18      1.0000 0.39920  0.50290  0.37170  Biso   1.000  H
  C33      1.0000 0.27770  0.55600  0.37620  Biso   1.000  C
  C34      1.0000 0.21660  0.60170  0.35391  Biso   1.000  C
  H19      1.0000 0.15980  0.61500  0.36600  Biso   1.000  H
  C35      1.0000 0.23840  0.62750  0.31469  Biso   1.000  C
  H20      1.0000 0.19690  0.65960  0.30030  Biso   1.000  H
  C36      1.0000 0.25510  0.53160  0.41936  Biso   1.000  C
  C37      1.0000 0.54570  0.66650  0.18207  Biso   1.000  C
  C38      1.0000 0.60890  0.61190  0.19340  Biso   1.000  C
  H21      1.0000 0.59210  0.57250  0.21190  Biso   1.000  H
  C39      1.0000 0.69660  0.61510  0.17750  Biso   1.000  C
  H22      1.0000 0.73900  0.57750  0.18590  Biso   1.000  H
  C40      1.0000 0.66500  0.71880  0.14000  Biso   1.000  C
  H23      1.0000 0.68320  0.75660  0.12070  Biso   1.000  H
  C41      1.0000 0.57590  0.72030  0.15499  Biso   1.000  C
  H24      1.0000 0.53570  0.75930  0.14630  Biso   1.000  H
  C42      1.0000 0.63100  0.93380  0.09884  Biso   1.000  C
  C43      1.0000 0.57120  0.92630  0.13679  Biso   1.000  C
  C44      1.0000 0.47760  0.93650  0.13390  Biso   1.000  C
  H25      1.0000 0.45060  0.95060  0.10800  Biso   1.000  H
  C45      1.0000 0.42350  0.92600  0.16888  Biso   1.000  C
  H26      1.0000 0.35950  0.93380  0.16690  Biso   1.000  H
  C46      1.0000 0.46210  0.90410  0.20698  Biso   1.000  C
  C47      1.0000 0.55610  0.89560  0.20948  Biso   1.000  C
  H27      1.0000 0.58380  0.88150  0.23520  Biso   1.000  H
  C48      1.0000 0.60920  0.90760  0.17473  Biso   1.000  C
  H28      1.0000 0.67370  0.90290  0.17700  Biso   1.000  H
  C49      1.0000 0.40500  0.88380  0.24380  Biso   1.000  C
  C50      1.0000 0.31530  0.90520  0.24825  Biso   1.000  C
  H29      1.0000 0.28700  0.93690  0.22800  Biso   1.000  H
  C51      1.0000 0.26640  0.87990  0.28271  Biso   1.000  C
  C52      1.0000 0.30980  0.83390  0.31120  Biso   1.000  C
  H30      1.0000 0.27770  0.81540  0.33480  Biso   1.000  H
  C53      1.0000 0.40110  0.81460  0.30515  Biso   1.000  C
  C54      1.0000 0.45140  0.76250  0.33351  Biso   1.000  C
  C55      1.0000 0.42060  0.74440  0.37316  Biso   1.000  C
  H31      1.0000 0.37030  0.77090  0.38470  Biso   1.000  H
  C56      1.0000 0.46260  0.68800  0.39607  Biso   1.000  C
  H32      1.0000 0.44110  0.67620  0.42330  Biso   1.000  H
  C57      1.0000 0.53570  0.64860  0.37969  Biso   1.000  C
  C58      1.0000 0.56970  0.66890  0.34049  Biso   1.000  C
  H33      1.0000 0.62100  0.64330  0.32930  Biso   1.000  H
  C59      1.0000 0.52950  0.72560  0.31812  Biso   1.000  C
  H34      1.0000 0.55430  0.74030  0.29200  Biso   1.000  H
  C60      1.0000 0.57300  0.58100  0.40067  Biso   1.000  C
  C61      1.0000 0.16870  0.89850  0.28700  Biso   1.000  C
  C62      1.0000 0.11200  0.90500  0.25250  Biso   1.000  C
  H35      1.0000 0.13600  0.89820  0.22520  Biso   1.000  H
  C63      1.0000 0.02100  0.92120  0.25750  Biso   1.000  C
  H36      1.0000 0.98370  0.92340  0.23310  Biso   1.000  H
  C64      1.0000 0.03630  0.92850  0.32640  Biso   1.000  C
  H37      1.0000 0.01010  0.93710  0.35310  Biso   1.000  H
  C65      1.0000 0.12990  0.91110  0.32570  Biso   1.000  C
  H38      1.0000 0.16500  0.90810  0.35070  Biso   1.000  H
  C66      1.0000 0.53120  0.10420  0.04912  Biso   1.000  C
  H39      1.0000 0.49370  0.13260  0.06750  Biso   1.000  H
  N1       1.0000 0.13170  0.57330  0.87890  Biso   1.000  N
  N2       1.0000 0.58260  0.51160  0.95425  Biso   1.000  N
  N3       1.0000 0.72440  0.66830  0.15110  Biso   1.000  N
  N4       1.0000 0.27680  0.67580  0.23374  Biso   1.000  N
  N5       1.0000 0.98190  0.93390  0.29420  Biso   1.000  N
  N6       1.0000 0.44760  0.83950  0.27186  Biso   1.000  N
  O1       1.0000 0.65580  0.10669  0.96238  Biso   1.000  O
  O2       1.0000 0.78880  0.16432  0.97187  Biso   1.000  O
  O3       1.0000 0.01800  0.89907  0.07915  Biso   1.000  O
  O4       1.0000 0.92180  0.86650  0.12837  Biso   1.000  O
  O5       1.0000 0.17690  0.54672  0.43344  Biso   1.000  O
  O6       1.0000 0.31580  0.49743  0.44055  Biso   1.000  O
  O7       1.0000 0.59180  0.94440  0.06423  Biso   1.000  O
  O8       1.0000 0.71540  0.92720  0.10423  Biso   1.000  O
  O9       1.0000 0.62500  0.53770  0.38100  Biso   1.000  O
  O10      1.0000 0.54840  0.56562  0.43810  Biso   1.000  O
  O11      1.0000 0.49370  0.06646  0.02047  Biso   1.000  O
  O12      1.0000 0.61430  0.10580  0.05431  Biso   1.000  O
  O13      1.0000 0.77970  0.03735  0.03220  Biso   1.000  O
  O14      1.0000 0.93180  0.94659  0.00600  Biso   1.000  O
  H40      1.0000 0.77900  0.06100  0.05640  Biso   1.000  H
  H41      1.0000 0.91500  0.91800  0.98600  Biso   1.000  H
  C67      1.0000 0.76230  0.82100  0.02239  Biso   1.000  C
  C68      1.0000 0.71320  0.75840  0.00142  Biso   1.000  C
  C69      1.0000 0.64860  0.77320  0.97110  Biso   1.000  C
  H42      1.0000 0.63980  0.82340  0.96170  Biso   1.000  H
  C70      1.0000 0.59610  0.71570  0.95410  Biso   1.000  C
  H43      1.0000 0.55170  0.72690  0.93330  Biso   1.000  H
  C71      1.0000 0.60780  0.64220  0.96725  Biso   1.000  C
  C72      1.0000 0.67860  0.62670  0.99510  Biso   1.000  C
  H44      1.0000 0.69220  0.57590  0.00210  Biso   1.000  H
  C73      1.0000 0.72960  0.68450  0.01300  Biso   1.000  C
  H45      1.0000 0.77550  0.67330  0.03320  Biso   1.000  H
  O15      1.0000 0.74270  0.88857  0.01343  Biso   1.000  O
  O16      1.0000 0.82380  0.80730  0.04957  Biso   1.000  O
  Eu1      1.0000 0.85316  0.93813  0.06939  Biso   1.000  Eu
  Eu2      1.0000 0.09423  0.92457  0.01238  Biso   1.000  Eu
  Eu3      1.0000 0.64187  0.99742  0.00142  Biso   1.000  Eu
  C74      1.0000 0.95200  0.08080  0.54749  Biso   1.000  C
  C75      1.0000 0.04110  0.09420  0.56065  Biso   1.000  C
  H46      1.0000 0.06460  0.14400  0.56020  Biso   1.000  H
  C76      1.0000 0.09560  0.03570  0.57432  Biso   1.000  C
  C77      1.0000 0.05830  0.96340  0.57346  Biso   1.000  C
  H47      1.0000 0.09270  0.92160  0.58320  Biso   1.000  H
  C78      1.0000 0.96940  0.95330  0.55800  Biso   1.000  C
  C79      1.0000 0.92670  0.87820  0.55416  Biso   1.000  C
  C80      1.0000 0.97650  0.81170  0.55538  Biso   1.000  C
  H48      1.0000 0.04050  0.81360  0.56010  Biso   1.000  H
  C81      1.0000 0.93400  0.74220  0.54984  Biso   1.000  C
  H49      1.0000 0.96910  0.69720  0.55080  Biso   1.000  H
  C82      1.0000 0.84110  0.73860  0.54292  Biso   1.000  C
  C83      1.0000 0.79090  0.80410  0.54130  Biso   1.000  C
  H50      1.0000 0.72700  0.80200  0.53620  Biso   1.000  H
  C84      1.0000 0.83360  0.87320  0.54700  Biso   1.000  C
  H51      1.0000 0.79810  0.91800  0.54590  Biso   1.000  H
  C85      1.0000 0.79540  0.66430  0.53574  Biso   1.000  C
  C86      1.0000 0.19020  0.04880  0.58990  Biso   1.000  C
  C87      1.0000 0.25640  0.99250  0.58970  Biso   1.000  C
  H52      1.0000 0.24240  0.94400  0.57890  Biso   1.000  H
  C88      1.0000 0.34210  0.00750  0.60540  Biso   1.000  C
  H53      1.0000 0.38570  0.96800  0.60490  Biso   1.000  H
  C89      1.0000 0.30410  0.12820  0.62080  Biso   1.000  C
  H54      1.0000 0.32010  0.17620  0.63160  Biso   1.000  H
  C90      1.0000 0.21700  0.11820  0.60550  Biso   1.000  C
  H55      1.0000 0.17500  0.15890  0.60570  Biso   1.000  H
  C91      1.0000 0.49910  0.36570  0.38633  Biso   1.000  C
  C92      1.0000 0.42320  0.32520  0.36389  Biso   1.000  C
  C93      1.0000 0.33370  0.34030  0.37485  Biso   1.000  C
  H56      1.0000 0.32080  0.37630  0.39600  Biso   1.000  H
  C94      1.0000 0.26300  0.30260  0.35484  Biso   1.000  C
  H57      1.0000 0.20180  0.31370  0.36220  Biso   1.000  H
  C95      1.0000 0.28010  0.24910  0.32430  Biso   1.000  C
  C96      1.0000 0.37090  0.23580  0.31310  Biso   1.000  C
  H58      1.0000 0.38420  0.20060  0.29160  Biso   1.000  H
  C97      1.0000 0.44160  0.27330  0.33306  Biso   1.000  C
  H59      1.0000 0.50300  0.26330  0.32540  Biso   1.000  H
  C98      1.0000 0.20380  0.20790  0.30337  Biso   1.000  C
  C99      1.0000 0.11880  0.20300  0.32167  Biso   1.000  C
  H60      1.0000 0.10870  0.22440  0.34850  Biso   1.000  H
  C100     1.0000 0.04800  0.16680  0.30061  Biso   1.000  C
  C101     1.0000 0.06760  0.13370  0.26252  Biso   1.000  C
  H61      1.0000 0.02150  0.10740  0.24750  Biso   1.000  H
  C102     1.0000 0.15550  0.13910  0.24635  Biso   1.000  C
  C103     1.0000 0.17990  0.10740  0.20450  Biso   1.000  C
  C104     1.0000 0.11990  0.06070  0.18266  Biso   1.000  C
  H62      1.0000 0.06380  0.04620  0.19500  Biso   1.000  H
  C105     1.0000 0.14200  0.03520  0.14269  Biso   1.000  C
  H63      1.0000 0.10080  0.00290  0.12830  Biso   1.000  H
  C106     1.0000 0.22230  0.05600  0.12380  Biso   1.000  C
  C107     1.0000 0.28340  0.10170  0.14609  Biso   1.000  C
  H64      1.0000 0.34020  0.11500  0.13400  Biso   1.000  H
  C108     1.0000 0.26160  0.12750  0.18531  Biso   1.000  C
  H65      1.0000 0.30310  0.15960  0.19970  Biso   1.000  H
  C109     1.0000 0.24490  0.03160  0.08064  Biso   1.000  C
  C110     1.0000 0.95430  0.16650  0.31793  Biso   1.000  C
  C111     1.0000 0.89110  0.11190  0.30660  Biso   1.000  C
  H66      1.0000 0.90790  0.07250  0.28810  Biso   1.000  H
  C112     1.0000 0.80340  0.11510  0.32250  Biso   1.000  C
  H67      1.0000 0.76100  0.07750  0.31410  Biso   1.000  H
  C113     1.0000 0.83500  0.21880  0.36000  Biso   1.000  C
  H68      1.0000 0.81680  0.25660  0.37930  Biso   1.000  H
  C114     1.0000 0.92410  0.22030  0.34501  Biso   1.000  C
  H69      1.0000 0.96430  0.25930  0.35370  Biso   1.000  H
  C115     1.0000 0.86900  0.43380  0.40116  Biso   1.000  C
  C116     1.0000 0.92880  0.42630  0.36321  Biso   1.000  C
  C117     1.0000 0.02240  0.43650  0.36610  Biso   1.000  C
  H70      1.0000 0.04940  0.45060  0.39200  Biso   1.000  H
  C118     1.0000 0.07650  0.42600  0.33112  Biso   1.000  C
  H71      1.0000 0.14050  0.43380  0.33310  Biso   1.000  H
  C119     1.0000 0.03790  0.40410  0.29302  Biso   1.000  C
  C120     1.0000 0.94390  0.39560  0.29052  Biso   1.000  C
  H72      1.0000 0.91620  0.38150  0.26480  Biso   1.000  H
  C121     1.0000 0.89080  0.40760  0.32527  Biso   1.000  C
  H73      1.0000 0.82630  0.40290  0.32300  Biso   1.000  H
  C122     1.0000 0.09500  0.38380  0.25620  Biso   1.000  C
  C123     1.0000 0.18470  0.40520  0.25175  Biso   1.000  C
  H74      1.0000 0.21300  0.43690  0.27200  Biso   1.000  H
  C124     1.0000 0.23360  0.37990  0.21729  Biso   1.000  C
  C125     1.0000 0.19020  0.33390  0.18880  Biso   1.000  C
  H75      1.0000 0.22230  0.31540  0.16520  Biso   1.000  H
  C126     1.0000 0.09890  0.31460  0.19485  Biso   1.000  C
  C127     1.0000 0.04860  0.26250  0.16649  Biso   1.000  C
  C128     1.0000 0.07940  0.24440  0.12684  Biso   1.000  C
  H76      1.0000 0.12970  0.27090  0.11530  Biso   1.000  H
  C129     1.0000 0.03740  0.18800  0.10393  Biso   1.000  C
  H77      1.0000 0.05890  0.17620  0.07670  Biso   1.000  H
  C130     1.0000 0.96430  0.14860  0.12031  Biso   1.000  C
  C131     1.0000 0.93030  0.16890  0.15951  Biso   1.000  C
  H78      1.0000 0.87900  0.14330  0.17070  Biso   1.000  H
  C132     1.0000 0.97050  0.22560  0.18188  Biso   1.000  C
  H79      1.0000 0.94570  0.24030  0.20800  Biso   1.000  H
  C133     1.0000 0.92700  0.08100  0.09933  Biso   1.000  C
  C134     1.0000 0.33130  0.39850  0.21300  Biso   1.000  C
  C135     1.0000 0.38800  0.40500  0.24750  Biso   1.000  C
  H80      1.0000 0.36400  0.39820  0.27480  Biso   1.000  H
  C136     1.0000 0.47900  0.42120  0.24250  Biso   1.000  C
  H81      1.0000 0.51630  0.42340  0.26690  Biso   1.000  H
  C137     1.0000 0.46370  0.42850  0.17360  Biso   1.000  C
  H82      1.0000 0.48990  0.43710  0.14690  Biso   1.000  H
  C138     1.0000 0.37010  0.41110  0.17430  Biso   1.000  C
  H83      1.0000 0.33500  0.40810  0.14930  Biso   1.000  H
  C139     1.0000 0.96880  0.60420  0.45088  Biso   1.000  C
  H84      1.0000 0.00630  0.63260  0.43250  Biso   1.000  H
  N7       1.0000 0.36830  0.07330  0.62110  Biso   1.000  N
  N8       1.0000 0.91740  0.01160  0.54575  Biso   1.000  N
  N9       1.0000 0.77560  0.16830  0.34890  Biso   1.000  N
  N10      1.0000 0.22320  0.17580  0.26626  Biso   1.000  N
  N11      1.0000 0.51810  0.43390  0.20580  Biso   1.000  N
  N12      1.0000 0.05240  0.33950  0.22814  Biso   1.000  N
  O17      1.0000 0.84420  0.60669  0.53762  Biso   1.000  O
  O18      1.0000 0.71120  0.66432  0.52813  Biso   1.000  O
  O19      1.0000 0.48200  0.39907  0.42085  Biso   1.000  O
  O20      1.0000 0.57820  0.36650  0.37163  Biso   1.000  O
  O21      1.0000 0.32310  0.04672  0.06656  Biso   1.000  O
  O22      1.0000 0.18420  0.99743  0.05945  Biso   1.000  O
  O23      1.0000 0.90820  0.44440  0.43577  Biso   1.000  O
  O24      1.0000 0.78460  0.42720  0.39577  Biso   1.000  O
  O25      1.0000 0.87500  0.03770  0.11900  Biso   1.000  O
  O26      1.0000 0.95160  0.06562  0.06190  Biso   1.000  O
  O27      1.0000 0.00630  0.56646  0.47953  Biso   1.000  O
  O28      1.0000 0.88570  0.60580  0.44569  Biso   1.000  O
  O29      1.0000 0.72030  0.53735  0.46780  Biso   1.000  O
  O30      1.0000 0.56820  0.44659  0.49400  Biso   1.000  O
  H85      1.0000 0.72100  0.56100  0.44360  Biso   1.000  H
  H86      1.0000 0.58500  0.41800  0.51400  Biso   1.000  H
  C140     1.0000 0.73770  0.32100  0.47761  Biso   1.000  C
  C141     1.0000 0.78680  0.25840  0.49858  Biso   1.000  C
  C142     1.0000 0.85140  0.27320  0.52890  Biso   1.000  C
  H87      1.0000 0.86020  0.32340  0.53830  Biso   1.000  H
  C143     1.0000 0.90390  0.21570  0.54590  Biso   1.000  C
  H88      1.0000 0.94830  0.22690  0.56670  Biso   1.000  H
  C144     1.0000 0.89220  0.14220  0.53275  Biso   1.000  C
  C145     1.0000 0.82140  0.12670  0.50490  Biso   1.000  C
  H89      1.0000 0.80780  0.07590  0.49790  Biso   1.000  H
  C146     1.0000 0.77040  0.18450  0.48700  Biso   1.000  C
  H90      1.0000 0.72450  0.17330  0.46680  Biso   1.000  H
  O31      1.0000 0.75730  0.38857  0.48657  Biso   1.000  O
  O32      1.0000 0.67620  0.30730  0.45043  Biso   1.000  O
  Eu4      1.0000 0.64684  0.43813  0.43061  Biso   1.000  Eu
  Eu5      1.0000 0.40577  0.42457  0.48762  Biso   1.000  Eu
  Eu6      1.0000 0.85813  0.49742  0.49858  Biso   1.000  Eu
  C147     1.0000 0.45200  0.41920  0.04749  Biso   1.000  C
  C148     1.0000 0.54110  0.40580  0.06065  Biso   1.000  C
  H91      1.0000 0.56460  0.35600  0.06020  Biso   1.000  H
  C149     1.0000 0.59560  0.46430  0.07432  Biso   1.000  C
  C150     1.0000 0.55830  0.53660  0.07346  Biso   1.000  C
  H92      1.0000 0.59270  0.57840  0.08320  Biso   1.000  H
  C151     1.0000 0.46940  0.54670  0.05800  Biso   1.000  C
  C152     1.0000 0.42670  0.62180  0.05416  Biso   1.000  C
  C153     1.0000 0.47650  0.68830  0.05538  Biso   1.000  C
  H93      1.0000 0.54050  0.68640  0.06010  Biso   1.000  H
  C154     1.0000 0.43400  0.75780  0.04984  Biso   1.000  C
  H94      1.0000 0.46910  0.80280  0.05080  Biso   1.000  H
  C155     1.0000 0.34110  0.76140  0.04292  Biso   1.000  C
  C156     1.0000 0.29090  0.69590  0.04130  Biso   1.000  C
  H95      1.0000 0.22700  0.69800  0.03620  Biso   1.000  H
  C157     1.0000 0.33360  0.62680  0.04700  Biso   1.000  C
  H96      1.0000 0.29810  0.58200  0.04590  Biso   1.000  H
  C158     1.0000 0.29540  0.83570  0.03574  Biso   1.000  C
  C159     1.0000 0.69020  0.45120  0.08990  Biso   1.000  C
  C160     1.0000 0.75640  0.50750  0.08970  Biso   1.000  C
  H97      1.0000 0.74240  0.55600  0.07890  Biso   1.000  H
  C161     1.0000 0.84210  0.49250  0.10540  Biso   1.000  C
  H98      1.0000 0.88570  0.53200  0.10490  Biso   1.000  H
  C162     1.0000 0.80410  0.37180  0.12080  Biso   1.000  C
  H99      1.0000 0.82010  0.32380  0.13160  Biso   1.000  H
  C163     1.0000 0.71700  0.38180  0.10550  Biso   1.000  C
  H100     1.0000 0.67500  0.34110  0.10570  Biso   1.000  H
  C164     1.0000 0.99910  0.13430  0.88633  Biso   1.000  C
  C165     1.0000 0.92320  0.17480  0.86389  Biso   1.000  C
  C166     1.0000 0.83370  0.15970  0.87485  Biso   1.000  C
  H101     1.0000 0.82080  0.12370  0.89600  Biso   1.000  H
  C167     1.0000 0.76300  0.19740  0.85484  Biso   1.000  C
  H102     1.0000 0.70180  0.18630  0.86220  Biso   1.000  H
  C168     1.0000 0.78010  0.25090  0.82430  Biso   1.000  C
  C169     1.0000 0.87090  0.26420  0.81310  Biso   1.000  C
  H103     1.0000 0.88420  0.29940  0.79160  Biso   1.000  H
  C170     1.0000 0.94160  0.22670  0.83306  Biso   1.000  C
  H104     1.0000 0.00300  0.23670  0.82540  Biso   1.000  H
  C171     1.0000 0.70380  0.29210  0.80337  Biso   1.000  C
  C172     1.0000 0.61880  0.29700  0.82167  Biso   1.000  C
  H105     1.0000 0.60870  0.27560  0.84850  Biso   1.000  H
  C173     1.0000 0.54800  0.33320  0.80061  Biso   1.000  C
  C174     1.0000 0.56760  0.36630  0.76252  Biso   1.000  C
  H106     1.0000 0.52150  0.39260  0.74750  Biso   1.000  H
  C175     1.0000 0.65550  0.36090  0.74635  Biso   1.000  C
  C176     1.0000 0.67990  0.39260  0.70450  Biso   1.000  C
  C177     1.0000 0.61990  0.43930  0.68266  Biso   1.000  C
  H107     1.0000 0.56380  0.45380  0.69500  Biso   1.000  H
  C178     1.0000 0.64200  0.46480  0.64269  Biso   1.000  C
  H108     1.0000 0.60080  0.49710  0.62830  Biso   1.000  H
  C179     1.0000 0.72230  0.44400  0.62380  Biso   1.000  C
  C180     1.0000 0.78340  0.39830  0.64609  Biso   1.000  C
  H109     1.0000 0.84020  0.38500  0.63400  Biso   1.000  H
  C181     1.0000 0.76160  0.37250  0.68531  Biso   1.000  C
  H110     1.0000 0.80310  0.34040  0.69970  Biso   1.000  H
  C182     1.0000 0.74490  0.46840  0.58064  Biso   1.000  C
  C183     1.0000 0.45430  0.33350  0.81793  Biso   1.000  C
  C184     1.0000 0.39110  0.38810  0.80660  Biso   1.000  C
  H111     1.0000 0.40790  0.42750  0.78810  Biso   1.000  H
  C185     1.0000 0.30340  0.38490  0.82250  Biso   1.000  C
  H112     1.0000 0.26100  0.42250  0.81410  Biso   1.000  H
  C186     1.0000 0.33500  0.28120  0.86000  Biso   1.000  C
  H113     1.0000 0.31680  0.24340  0.87930  Biso   1.000  H
  C187     1.0000 0.42410  0.27970  0.84501  Biso   1.000  C
  H114     1.0000 0.46430  0.24070  0.85370  Biso   1.000  H
  C188     1.0000 0.36900  0.06620  0.90116  Biso   1.000  C
  C189     1.0000 0.42880  0.07370  0.86321  Biso   1.000  C
  C190     1.0000 0.52240  0.06350  0.86610  Biso   1.000  C
  H115     1.0000 0.54940  0.04940  0.89200  Biso   1.000  H
  C191     1.0000 0.57650  0.07400  0.83112  Biso   1.000  C
  H116     1.0000 0.64050  0.06620  0.83310  Biso   1.000  H
  C192     1.0000 0.53790  0.09590  0.79302  Biso   1.000  C
  C193     1.0000 0.44390  0.10440  0.79052  Biso   1.000  C
  H117     1.0000 0.41620  0.11850  0.76480  Biso   1.000  H
  C194     1.0000 0.39080  0.09240  0.82527  Biso   1.000  C
  H118     1.0000 0.32630  0.09710  0.82300  Biso   1.000  H
  C195     1.0000 0.59500  0.11620  0.75620  Biso   1.000  C
  C196     1.0000 0.68470  0.09480  0.75175  Biso   1.000  C
  H119     1.0000 0.71300  0.06310  0.77200  Biso   1.000  H
  C197     1.0000 0.73360  0.12010  0.71729  Biso   1.000  C
  C198     1.0000 0.69020  0.16610  0.68880  Biso   1.000  C
  H120     1.0000 0.72230  0.18460  0.66520  Biso   1.000  H
  C199     1.0000 0.59890  0.18540  0.69485  Biso   1.000  C
  C200     1.0000 0.54860  0.23750  0.66649  Biso   1.000  C
  C201     1.0000 0.57940  0.25560  0.62684  Biso   1.000  C
  H121     1.0000 0.62970  0.22910  0.61530  Biso   1.000  H
  C202     1.0000 0.53740  0.31200  0.60393  Biso   1.000  C
  H122     1.0000 0.55890  0.32380  0.57670  Biso   1.000  H
  C203     1.0000 0.46430  0.35140  0.62031  Biso   1.000  C
  C204     1.0000 0.43030  0.33110  0.65951  Biso   1.000  C
  H123     1.0000 0.37900  0.35670  0.67070  Biso   1.000  H
  C205     1.0000 0.47050  0.27440  0.68188  Biso   1.000  C
  H124     1.0000 0.44570  0.25970  0.70800  Biso   1.000  H
  C206     1.0000 0.42700  0.41900  0.59933  Biso   1.000  C
  C207     1.0000 0.83130  0.10150  0.71300  Biso   1.000  C
  C208     1.0000 0.88800  0.09500  0.74750  Biso   1.000  C
  H125     1.0000 0.86400  0.10180  0.77480  Biso   1.000  H
  C209     1.0000 0.97900  0.07880  0.74250  Biso   1.000  C
  H126     1.0000 0.01630  0.07660  0.76690  Biso   1.000  H
  C210     1.0000 0.96370  0.07150  0.67360  Biso   1.000  C
  H127     1.0000 0.98990  0.06290  0.64690  Biso   1.000  H
  C211     1.0000 0.87010  0.08890  0.67430  Biso   1.000  C
  H128     1.0000 0.83500  0.09190  0.64930  Biso   1.000  H
  C212     1.0000 0.46880  0.89580  0.95088  Biso   1.000  C
  H129     1.0000 0.50630  0.86740  0.93250  Biso   1.000  H
  N13      1.0000 0.86830  0.42670  0.12110  Biso   1.000  N
  N14      1.0000 0.41740  0.48840  0.04575  Biso   1.000  N
  N15      1.0000 0.27560  0.33170  0.84890  Biso   1.000  N
  N16      1.0000 0.72320  0.32420  0.76626  Biso   1.000  N
  N17      1.0000 0.01810  0.06610  0.70580  Biso   1.000  N
  N18      1.0000 0.55240  0.16050  0.72814  Biso   1.000  N
  O33      1.0000 0.34420  0.89331  0.03762  Biso   1.000  O
  O34      1.0000 0.21120  0.83568  0.02813  Biso   1.000  O
  O35      1.0000 0.98200  0.10093  0.92085  Biso   1.000  O
  O36      1.0000 0.07820  0.13350  0.87163  Biso   1.000  O
  O37      1.0000 0.82310  0.45328  0.56656  Biso   1.000  O
  O38      1.0000 0.68420  0.50257  0.55945  Biso   1.000  O
  O39      1.0000 0.40820  0.05560  0.93577  Biso   1.000  O
  O40      1.0000 0.28460  0.07280  0.89577  Biso   1.000  O
  O41      1.0000 0.37500  0.46230  0.61900  Biso   1.000  O
  O42      1.0000 0.45160  0.43438  0.56190  Biso   1.000  O
  O43      1.0000 0.50630  0.93354  0.97953  Biso   1.000  O
  O44      1.0000 0.38570  0.89420  0.94569  Biso   1.000  O
  O45      1.0000 0.22030  0.96265  0.96780  Biso   1.000  O
  O46      1.0000 0.06820  0.05341  0.99400  Biso   1.000  O
  H130     1.0000 0.22100  0.93900  0.94360  Biso   1.000  H
  H131     1.0000 0.08500  0.08200  0.01400  Biso   1.000  H
  C213     1.0000 0.23770  0.17900  0.97761  Biso   1.000  C
  C214     1.0000 0.28680  0.24160  0.99858  Biso   1.000  C
  C215     1.0000 0.35140  0.22680  0.02890  Biso   1.000  C
  H132     1.0000 0.36020  0.17660  0.03830  Biso   1.000  H
  C216     1.0000 0.40390  0.28430  0.04590  Biso   1.000  C
  H133     1.0000 0.44830  0.27310  0.06670  Biso   1.000  H
  C217     1.0000 0.39220  0.35780  0.03275  Biso   1.000  C
  C218     1.0000 0.32140  0.37330  0.00490  Biso   1.000  C
  H134     1.0000 0.30780  0.42410  0.99790  Biso   1.000  H
  C219     1.0000 0.27040  0.31550  0.98700  Biso   1.000  C
  H135     1.0000 0.22450  0.32670  0.96680  Biso   1.000  H
  O47      1.0000 0.25730  0.11143  0.98657  Biso   1.000  O
  O48      1.0000 0.17620  0.19270  0.95043  Biso   1.000  O
  Eu7      1.0000 0.14684  0.06187  0.93061  Biso   1.000  Eu
  Eu8      1.0000 0.90577  0.07543  0.98762  Biso   1.000  Eu
  Eu9      1.0000 0.35813  0.00258  0.99858  Biso   1.000  Eu
  C220     1.0000 0.04800  0.91920  0.45251  Biso   1.000  C
  C221     1.0000 0.95890  0.90580  0.43935  Biso   1.000  C
  H136     1.0000 0.93540  0.85600  0.43980  Biso   1.000  H
  C222     1.0000 0.90440  0.96430  0.42568  Biso   1.000  C
  C223     1.0000 0.94170  0.03660  0.42654  Biso   1.000  C
  H137     1.0000 0.90730  0.07840  0.41680  Biso   1.000  H
  C224     1.0000 0.03060  0.04670  0.44200  Biso   1.000  C
  C225     1.0000 0.07330  0.12180  0.44584  Biso   1.000  C
  C226     1.0000 0.02350  0.18830  0.44462  Biso   1.000  C
  H138     1.0000 0.95950  0.18640  0.43990  Biso   1.000  H
  C227     1.0000 0.06600  0.25780  0.45016  Biso   1.000  C
  H139     1.0000 0.03090  0.30280  0.44920  Biso   1.000  H
  C228     1.0000 0.15890  0.26140  0.45708  Biso   1.000  C
  C229     1.0000 0.20910  0.19590  0.45870  Biso   1.000  C
  H140     1.0000 0.27300  0.19800  0.46380  Biso   1.000  H
  C230     1.0000 0.16640  0.12680  0.45300  Biso   1.000  C
  H141     1.0000 0.20190  0.08200  0.45410  Biso   1.000  H
  C231     1.0000 0.20460  0.33570  0.46426  Biso   1.000  C
  C232     1.0000 0.80980  0.95120  0.41010  Biso   1.000  C
  C233     1.0000 0.74360  0.00750  0.41030  Biso   1.000  C
  H142     1.0000 0.75760  0.05600  0.42110  Biso   1.000  H
  C234     1.0000 0.65790  0.99250  0.39460  Biso   1.000  C
  H143     1.0000 0.61430  0.03200  0.39510  Biso   1.000  H
  C235     1.0000 0.69590  0.87180  0.37920  Biso   1.000  C
  H144     1.0000 0.67990  0.82380  0.36840  Biso   1.000  H
  C236     1.0000 0.78300  0.88180  0.39450  Biso   1.000  C
  H145     1.0000 0.82500  0.84110  0.39430  Biso   1.000  H
  C237     1.0000 0.50090  0.63430  0.61367  Biso   1.000  C
  C238     1.0000 0.57680  0.67480  0.63611  Biso   1.000  C
  C239     1.0000 0.66630  0.65970  0.62515  Biso   1.000  C
  H146     1.0000 0.67920  0.62370  0.60400  Biso   1.000  H
  C240     1.0000 0.73700  0.69740  0.64516  Biso   1.000  C
  H147     1.0000 0.79820  0.68630  0.63780  Biso   1.000  H
  C241     1.0000 0.71990  0.75090  0.67570  Biso   1.000  C
  C242     1.0000 0.62910  0.76420  0.68690  Biso   1.000  C
  H148     1.0000 0.61580  0.79940  0.70840  Biso   1.000  H
  C243     1.0000 0.55840  0.72670  0.66694  Biso   1.000  C
  H149     1.0000 0.49700  0.73670  0.67460  Biso   1.000  H
  C244     1.0000 0.79620  0.79210  0.69663  Biso   1.000  C
  C245     1.0000 0.88120  0.79700  0.67833  Biso   1.000  C
  H150     1.0000 0.89130  0.77560  0.65150  Biso   1.000  H
  C246     1.0000 0.95200  0.83320  0.69939  Biso   1.000  C
  C247     1.0000 0.93240  0.86630  0.73748  Biso   1.000  C
  H151     1.0000 0.97850  0.89260  0.75250  Biso   1.000  H
  C248     1.0000 0.84450  0.86090  0.75365  Biso   1.000  C
  C249     1.0000 0.82010  0.89260  0.79550  Biso   1.000  C
  C250     1.0000 0.88010  0.93930  0.81734  Biso   1.000  C
  H152     1.0000 0.93620  0.95380  0.80500  Biso   1.000  H
  C251     1.0000 0.85800  0.96480  0.85731  Biso   1.000  C
  H153     1.0000 0.89920  0.99710  0.87170  Biso   1.000  H
  C252     1.0000 0.77770  0.94400  0.87620  Biso   1.000  C
  C253     1.0000 0.71660  0.89830  0.85391  Biso   1.000  C
  H154     1.0000 0.65980  0.88500  0.86600  Biso   1.000  H
  C254     1.0000 0.73840  0.87250  0.81469  Biso   1.000  C
  H155     1.0000 0.69690  0.84040  0.80030  Biso   1.000  H
  C255     1.0000 0.75510  0.96840  0.91936  Biso   1.000  C
  C256     1.0000 0.04570  0.83350  0.68207  Biso   1.000  C
  C257     1.0000 0.10890  0.88810  0.69340  Biso   1.000  C
  H156     1.0000 0.09210  0.92750  0.71190  Biso   1.000  H
  C258     1.0000 0.19660  0.88490  0.67750  Biso   1.000  C
  H157     1.0000 0.23900  0.92250  0.68590  Biso   1.000  H
  C259     1.0000 0.16500  0.78120  0.64000  Biso   1.000  C
  H158     1.0000 0.18320  0.74340  0.62070  Biso   1.000  H
  C260     1.0000 0.07590  0.77970  0.65499  Biso   1.000  C
  H159     1.0000 0.03570  0.74070  0.64630  Biso   1.000  H
  C261     1.0000 0.13100  0.56620  0.59884  Biso   1.000  C
  C262     1.0000 0.07120  0.57370  0.63679  Biso   1.000  C
  C263     1.0000 0.97760  0.56350  0.63390  Biso   1.000  C
  H160     1.0000 0.95060  0.54940  0.60800  Biso   1.000  H
  C264     1.0000 0.92350  0.57400  0.66888  Biso   1.000  C
  H161     1.0000 0.85950  0.56620  0.66690  Biso   1.000  H
  C265     1.0000 0.96210  0.59590  0.70698  Biso   1.000  C
  C266     1.0000 0.05610  0.60440  0.70948  Biso   1.000  C
  H162     1.0000 0.08380  0.61850  0.73520  Biso   1.000  H
  C267     1.0000 0.10920  0.59240  0.67473  Biso   1.000  C
  H163     1.0000 0.17370  0.59710  0.67700  Biso   1.000  H
  C268     1.0000 0.90500  0.61620  0.74380  Biso   1.000  C
  C269     1.0000 0.81530  0.59480  0.74825  Biso   1.000  C
  H164     1.0000 0.78700  0.56310  0.72800  Biso   1.000  H
  C270     1.0000 0.76640  0.62010  0.78271  Biso   1.000  C
  C271     1.0000 0.80980  0.66610  0.81120  Biso   1.000  C
  H165     1.0000 0.77770  0.68460  0.83480  Biso   1.000  H
  C272     1.0000 0.90110  0.68540  0.80515  Biso   1.000  C
  C273     1.0000 0.95140  0.73750  0.83351  Biso   1.000  C
  C274     1.0000 0.92060  0.75560  0.87316  Biso   1.000  C
  H166     1.0000 0.87030  0.72910  0.88470  Biso   1.000  H
  C275     1.0000 0.96260  0.81200  0.89607  Biso   1.000  C
  H167     1.0000 0.94110  0.82380  0.92330  Biso   1.000  H
  C276     1.0000 0.03570  0.85140  0.87969  Biso   1.000  C
  C277     1.0000 0.06970  0.83110  0.84049  Biso   1.000  C
  H168     1.0000 0.12100  0.85670  0.82930  Biso   1.000  H
  C278     1.0000 0.02950  0.77440  0.81812  Biso   1.000  C
  H169     1.0000 0.05430  0.75970  0.79200  Biso   1.000  H
  C279     1.0000 0.07300  0.91900  0.90067  Biso   1.000  C
  C280     1.0000 0.66870  0.60150  0.78700  Biso   1.000  C
  C281     1.0000 0.61200  0.59500  0.75250  Biso   1.000  C
  H170     1.0000 0.63600  0.60180  0.72520  Biso   1.000  H
  C282     1.0000 0.52100  0.57880  0.75750  Biso   1.000  C
  H171     1.0000 0.48370  0.57660  0.73310  Biso   1.000  H
  C283     1.0000 0.53630  0.57150  0.82640  Biso   1.000  C
  H172     1.0000 0.51010  0.56290  0.85310  Biso   1.000  H
  C284     1.0000 0.62990  0.58890  0.82570  Biso   1.000  C
  H173     1.0000 0.66500  0.59190  0.85070  Biso   1.000  H
  C285     1.0000 0.03120  0.39580  0.54912  Biso   1.000  C
  H174     1.0000 0.99370  0.36740  0.56750  Biso   1.000  H
  N19      1.0000 0.63170  0.92670  0.37890  Biso   1.000  N
  N20      1.0000 0.08260  0.98840  0.45425  Biso   1.000  N
  N21      1.0000 0.22440  0.83170  0.65110  Biso   1.000  N
  N22      1.0000 0.77680  0.82420  0.73374  Biso   1.000  N
  N23      1.0000 0.48190  0.56610  0.79420  Biso   1.000  N
  N24      1.0000 0.94760  0.66050  0.77186  Biso   1.000  N
  O49      1.0000 0.15580  0.39331  0.46238  Biso   1.000  O
  O50      1.0000 0.28880  0.33568  0.47187  Biso   1.000  O
  O51      1.0000 0.51800  0.60093  0.57915  Biso   1.000  O
  O52      1.0000 0.42180  0.63350  0.62837  Biso   1.000  O
  O53      1.0000 0.67690  0.95328  0.93344  Biso   1.000  O
  O54      1.0000 0.81580  0.00257  0.94055  Biso   1.000  O
  O55      1.0000 0.09180  0.55560  0.56423  Biso   1.000  O
  O56      1.0000 0.21540  0.57280  0.60423  Biso   1.000  O
  O57      1.0000 0.12500  0.96230  0.88100  Biso   1.000  O
  O58      1.0000 0.04840  0.93438  0.93810  Biso   1.000  O
  O59      1.0000 0.99370  0.43354  0.52047  Biso   1.000  O
  O60      1.0000 0.11430  0.39420  0.55431  Biso   1.000  O
  O61      1.0000 0.27970  0.46265  0.53220  Biso   1.000  O
  O62      1.0000 0.43180  0.55341  0.50600  Biso   1.000  O
  H175     1.0000 0.27900  0.43900  0.55640  Biso   1.000  H
  H176     1.0000 0.41500  0.58200  0.48600  Biso   1.000  H
  C286     1.0000 0.26230  0.67900  0.52239  Biso   1.000  C
  C287     1.0000 0.21320  0.74160  0.50142  Biso   1.000  C
  C288     1.0000 0.14860  0.72680  0.47110  Biso   1.000  C
  H177     1.0000 0.13980  0.67660  0.46170  Biso   1.000  H
  C289     1.0000 0.09610  0.78430  0.45410  Biso   1.000  C
  H178     1.0000 0.05170  0.77310  0.43330  Biso   1.000  H
  C290     1.0000 0.10780  0.85780  0.46725  Biso   1.000  C
  C291     1.0000 0.17860  0.87330  0.49510  Biso   1.000  C
  H179     1.0000 0.19220  0.92410  0.50210  Biso   1.000  H
  C292     1.0000 0.22960  0.81550  0.51300  Biso   1.000  C
  H180     1.0000 0.27550  0.82670  0.53320  Biso   1.000  H
  O63      1.0000 0.24270  0.61143  0.51343  Biso   1.000  O
  O64      1.0000 0.32380  0.69270  0.54957  Biso   1.000  O
  Eu10     1.0000 0.35316  0.56187  0.56939  Biso   1.000  Eu
  Eu11     1.0000 0.59423  0.57543  0.51238  Biso   1.000  Eu
  Eu12     1.0000 0.14187  0.50258  0.50142  Biso   1.000  Eu
