data_LORRUH_clean
_audit_creation_date              2015-10-16
_audit_creation_method            'Materials Studio'
_symmetry_space_group_name_H-M    'P1'
_symmetry_Int_Tables_number       1
_symmetry_cell_setting            triclinic
loop_
_symmetry_equiv_pos_as_xyz
  x,y,z
_cell_length_a                    14.5551
_cell_length_b                    17.8237
_cell_length_c                    31.7548
_cell_angle_alpha                 90.0000
_cell_angle_beta                  90.9390
_cell_angle_gamma                 90.0000
loop_
_atom_site_label
_atom_site_type_symbol
_atom_site_fract_x
_atom_site_fract_y
_atom_site_fract_z
_atom_site_U_iso_or_equiv
_atom_site_adp_type
_atom_site_occupancy
Eu1    Eu    0.90521   0.57670   0.98869   0.01267  Uiso   1.00
Eu2    Eu    0.85831   0.99676   0.49958   0.01267  Uiso   1.00
Eu3    Eu    0.09479   0.42330   0.01131   0.01267  Uiso   1.00
Eu4    Eu    0.64169   0.49676   0.00042   0.01267  Uiso   1.00
Eu5    Eu    0.85529   0.43352   0.06890   0.01267  Uiso   1.00
Eu6    Eu    0.40521   0.92330   0.48869   0.01267  Uiso   1.00
Eu7    Eu    0.59479   0.07670   0.51131   0.01267  Uiso   1.00
Eu8    Eu    0.64471   0.93352   0.43110   0.01267  Uiso   1.00
Eu9    Eu    0.14169   0.00324   0.50042   0.01267  Uiso   1.00
Eu10   Eu    0.35831   0.50324   0.99958   0.01267  Uiso   1.00
Eu11   Eu    0.14471   0.56648   0.93110   0.01267  Uiso   1.00
Eu12   Eu    0.35529   0.06648   0.56891   0.01267  Uiso   1.00
H1     H     0.53370   0.22670   0.94090   0.01267  Uiso   1.00
H2     H     0.67910   0.86350   0.12310   0.01267  Uiso   1.00
H3     H     0.80140   0.19490   0.63620   0.01267  Uiso   1.00
H4     H     0.74150   0.06720   0.18220   0.01267  Uiso   1.00
H5     H     0.69860   0.69490   0.86380   0.01267  Uiso   1.00
H6     H     0.63830   0.57340   0.83590   0.01267  Uiso   1.00
H7     H     0.67590   0.40420   0.17840   0.01267  Uiso   1.00
H8     H     0.31010   0.74680   0.87390   0.01267  Uiso   1.00
H9     H     0.22340   0.81520   0.16750   0.01267  Uiso   1.00
H10    H     0.49770   0.75420   0.32880   0.01267  Uiso   1.00
H11    H     0.33860   0.91460   0.15490   0.01267  Uiso   1.00
H12    H     0.03370   0.27330   0.44090   0.01267  Uiso   1.00
H13    H     0.96720   0.20040   0.55480   0.01267  Uiso   1.00
H14    H     0.09720   0.41930   0.58020   0.01267  Uiso   1.00
H15    H     0.62030   0.31290   0.70230   0.01267  Uiso   1.00
H16    H     0.60060   0.00440   0.62960   0.01267  Uiso   1.00
H17    H     0.44290   0.75650   0.70620   0.01267  Uiso   1.00
H18    H     0.00230   0.25420   0.17120   0.01267  Uiso   1.00
H19    H     0.32090   0.13650   0.87690   0.01267  Uiso   1.00
H20    H     0.95390   0.75440   0.34930   0.01267  Uiso   1.00
H21    H     0.37470   0.85240   0.66890   0.01267  Uiso   1.00
H22    H     0.12410   0.17790   0.46820   0.01267  Uiso   1.00
H23    H     0.55710   0.24350   0.29380   0.01267  Uiso   1.00
H24    H     0.29920   0.64750   0.20360   0.01267  Uiso   1.00
H25    H     0.01750   0.59900   0.24840   0.01267  Uiso   1.00
H26    H     0.68140   0.13350   0.60350   0.01267  Uiso   1.00
H27    H     0.19980   0.58280   0.45540   0.01267  Uiso   1.00
H28    H     0.52340   0.90220   0.27050   0.01267  Uiso   1.00
H29    H     0.24150   0.43280   0.68220   0.01267  Uiso   1.00
H30    H     0.34080   0.60500   0.13860   0.01267  Uiso   1.00
H31    H     0.10330   0.71430   0.34940   0.01267  Uiso   1.00
H32    H     0.76890   0.80330   0.96670   0.01267  Uiso   1.00
H33    H     0.06230   0.53760   0.19510   0.01267  Uiso   1.00
H34    H     0.49370   0.94020   0.15290   0.01267  Uiso   1.00
H35    H     0.59900   0.52530   0.41780   0.01267  Uiso   1.00
H36    H     0.17590   0.09580   0.67840   0.01267  Uiso   1.00
H37    H     0.69980   0.91720   0.95540   0.01267  Uiso   1.00
H38    H     0.28540   0.43070   0.22530   0.01267  Uiso   1.00
H39    H     0.26890   0.69670   0.46670   0.01267  Uiso   1.00
H40    H     0.46630   0.77330   0.05910   0.01267  Uiso   1.00
H41    H     0.46720   0.29960   0.05480   0.01267  Uiso   1.00
H42    H     0.58500   0.38330   0.23540   0.01267  Uiso   1.00
H43    H     0.03280   0.79960   0.44520   0.01267  Uiso   1.00
H44    H     0.15920   0.10500   0.36140   0.01267  Uiso   1.00
H45    H     0.54610   0.25440   0.15070   0.01267  Uiso   1.00
H46    H     0.71520   0.67370   0.47750   0.01267  Uiso   1.00
H47    H     0.43330   0.16650   0.42000   0.01267  Uiso   1.00
H48    H     0.54670   0.55870   0.89310   0.01267  Uiso   1.00
H49    H     0.12530   0.35240   0.83110   0.01267  Uiso   1.00
H50    H     0.66140   0.08540   0.84510   0.01267  Uiso   1.00
H51    H     0.79330   0.57910   0.51490   0.01267  Uiso   1.00
H52    H     0.09900   0.97470   0.91780   0.01267  Uiso   1.00
H53    H     0.93770   0.46240   0.80490   0.01267  Uiso   1.00
H54    H     0.04670   0.94130   0.39310   0.01267  Uiso   1.00
H55    H     0.86790   0.61920   0.77770   0.01267  Uiso   1.00
H56    H     0.13830   0.92660   0.33590   0.01267  Uiso   1.00
H57    H     0.16140   0.41460   0.34510   0.01267  Uiso   1.00
H58    H     0.36790   0.88080   0.27770   0.01267  Uiso   1.00
H59    H     0.74660   0.54800   0.43810   0.01267  Uiso   1.00
H60    H     0.97660   0.40220   0.22950   0.01267  Uiso   1.00
H61    H     0.06840   0.64030   0.56640   0.01267  Uiso   1.00
H62    H     0.82500   0.86750   0.15980   0.01267  Uiso   1.00
H63    H     0.96630   0.72670   0.55910   0.01267  Uiso   1.00
H64    H     0.94290   0.74350   0.20620   0.01267  Uiso   1.00
H65    H     0.90280   0.58070   0.41980   0.01267  Uiso   1.00
H66    H     0.02340   0.59780   0.77050   0.01267  Uiso   1.00
H67    H     0.37970   0.68710   0.29770   0.01267  Uiso   1.00
H68    H     0.50180   0.62510   0.07360   0.01267  Uiso   1.00
H69    H     0.25850   0.93280   0.81780   0.01267  Uiso   1.00
H70    H     0.86440   0.23700   0.88200   0.01267  Uiso   1.00
H71    H     0.18140   0.36650   0.10350   0.01267  Uiso   1.00
H72    H     0.93160   0.35970   0.43360   0.01267  Uiso   1.00
H73    H     0.87470   0.64760   0.16890   0.01267  Uiso   1.00
H74    H     0.80020   0.41720   0.54460   0.01267  Uiso   1.00
H75    H     0.81860   0.63350   0.89650   0.01267  Uiso   1.00
H76    H     0.17910   0.63650   0.62310   0.01267  Uiso   1.00
H77    H     0.99370   0.55980   0.65290   0.01267  Uiso   1.00
H78    H     0.05710   0.25650   0.79380   0.01267  Uiso   1.00
H79    H     0.23110   0.19670   0.03330   0.01267  Uiso   1.00
H80    H     0.65920   0.39500   0.86140   0.01267  Uiso   1.00
H81    H     0.36440   0.26300   0.38200   0.01267  Uiso   1.00
H82    H     0.87970   0.81290   0.79770   0.01267  Uiso   1.00
H83    H     0.06670   0.66650   0.08000   0.01267  Uiso   1.00
H84    H     0.40390   0.93950   0.79240   0.01267  Uiso   1.00
H85    H     0.08500   0.11670   0.73540   0.01267  Uiso   1.00
H86    H     0.45330   0.44130   0.10690   0.01267  Uiso   1.00
H87    H     0.81010   0.75320   0.37390   0.01267  Uiso   1.00
H88    H     0.46150   0.81370   0.93720   0.01267  Uiso   1.00
H89    H     0.90390   0.56050   0.29240   0.01267  Uiso   1.00
H90    H     0.50630   0.05980   0.84710   0.01267  Uiso   1.00
H91    H     0.18990   0.24680   0.62610   0.01267  Uiso   1.00
H92    H     0.71460   0.56930   0.77470   0.01267  Uiso   1.00
H93    H     0.82090   0.36350   0.37690   0.01267  Uiso   1.00
H94    H     0.51750   0.90100   0.74840   0.01267  Uiso   1.00
H95    H     0.45390   0.74560   0.84930   0.01267  Uiso   1.00
H96    H     0.39670   0.21430   0.15060   0.01267  Uiso   1.00
H97    H     0.62530   0.14760   0.33110   0.01267  Uiso   1.00
H98    H     0.62410   0.32210   0.96820   0.01267  Uiso   1.00
H99    H     0.99770   0.74580   0.82880   0.01267  Uiso   1.00
H100   H     0.09610   0.43950   0.70760   0.01267  Uiso   1.00
H101   H     0.40280   0.91930   0.91980   0.01267  Uiso   1.00
H102   H     0.84080   0.89500   0.63860   0.01267  Uiso   1.00
H103   H     0.47660   0.09780   0.72950   0.01267  Uiso   1.00
H104   H     0.00180   0.87490   0.57360   0.01267  Uiso   1.00
H105   H     0.78540   0.06930   0.72530   0.01267  Uiso   1.00
H106   H     0.20080   0.14750   0.29640   0.01267  Uiso   1.00
H107   H     0.56230   0.96240   0.69510   0.01267  Uiso   1.00
H108   H     0.41500   0.61670   0.76460   0.01267  Uiso   1.00
H109   H     0.27660   0.31520   0.33250   0.01267  Uiso   1.00
H110   H     0.40100   0.47470   0.58220   0.01267  Uiso   1.00
H111   H     0.36170   0.42660   0.16410   0.01267  Uiso   1.00
H112   H     0.00630   0.44020   0.34710   0.01267  Uiso   1.00
H113   H     0.98250   0.40100   0.75160   0.01267  Uiso   1.00
H114   H     0.32410   0.59580   0.82160   0.01267  Uiso   1.00
H115   H     0.24660   0.95200   0.93810   0.01267  Uiso   1.00
H116   H     0.59720   0.08070   0.08020   0.01267  Uiso   1.00
H117   H     0.75340   0.04800   0.06190   0.01267  Uiso   1.00
H118   H     0.68990   0.25320   0.12610   0.01267  Uiso   1.00
H119   H     0.39940   0.99560   0.37040   0.01267  Uiso   1.00
H120   H     0.04610   0.24560   0.65070   0.01267  Uiso   1.00
H121   H     0.72340   0.68480   0.66750   0.01267  Uiso   1.00
H122   H     0.79920   0.85250   0.70360   0.01267  Uiso   1.00
H123   H     0.49820   0.37490   0.92640   0.01267  Uiso   1.00
H124   H     0.19860   0.80510   0.36380   0.01267  Uiso   1.00
H125   H     0.21520   0.82630   0.97750   0.01267  Uiso   1.00
H126   H     0.96150   0.68630   0.43720   0.01267  Uiso   1.00
H127   H     0.90100   0.02530   0.08220   0.01267  Uiso   1.00
H128   H     0.60330   0.78570   0.84940   0.01267  Uiso   1.00
H129   H     0.70080   0.35250   0.79640   0.01267  Uiso   1.00
H130   H     0.70670   0.07910   0.98510   0.01267  Uiso   1.00
H131   H     0.93330   0.33350   0.92000   0.01267  Uiso   1.00
H132   H     0.89940   0.50440   0.87040   0.01267  Uiso   1.00
H133   H     0.82410   0.90420   0.32160   0.01267  Uiso   1.00
H134   H     0.95330   0.05870   0.60690   0.01267  Uiso   1.00
H135   H     0.37590   0.67790   0.03180   0.01267  Uiso   1.00
H136   H     0.83860   0.58540   0.65490   0.01267  Uiso   1.00
H137   H     0.13560   0.76300   0.11800   0.01267  Uiso   1.00
H138   H     0.29330   0.92090   0.01490   0.01267  Uiso   1.00
H139   H     0.91500   0.88330   0.26460   0.01267  Uiso   1.00
H140   H     0.43160   0.14030   0.93360   0.01267  Uiso   1.00
H141   H     0.25340   0.45200   0.56190   0.01267  Uiso   1.00
H142   H     0.56670   0.83350   0.58000   0.01267  Uiso   1.00
H143   H     0.87590   0.82210   0.53180   0.01267  Uiso   1.00
H144   H     0.28480   0.32630   0.52250   0.01267  Uiso   1.00
H145   H     0.21460   0.93070   0.27470   0.01267  Uiso   1.00
H146   H     0.77660   0.18480   0.83250   0.01267  Uiso   1.00
H147   H     0.56840   0.85970   0.06640   0.01267  Uiso   1.00
H148   H     0.10060   0.49560   0.12960   0.01267  Uiso   1.00
H149   H     0.31860   0.86650   0.39650   0.01267  Uiso   1.00
H150   H     0.99820   0.12510   0.42640   0.01267  Uiso   1.00
H151   H     0.13210   0.38080   0.22230   0.01267  Uiso   1.00
H152   H     0.12030   0.18710   0.20230   0.01267  Uiso   1.00
H153   H     0.17500   0.13250   0.84020   0.01267  Uiso   1.00
H154   H     0.50230   0.24580   0.67120   0.01267  Uiso   1.00
H155   H     0.30020   0.08280   0.04460   0.01267  Uiso   1.00
H156   H     0.78480   0.17370   0.02250   0.01267  Uiso   1.00
H157   H     0.32500   0.63250   0.65980   0.01267  Uiso   1.00
H158   H     0.48250   0.09900   0.25160   0.01267  Uiso   1.00
H159   H     0.86170   0.07340   0.66410   0.01267  Uiso   1.00
H160   H     0.67500   0.36750   0.34020   0.01267  Uiso   1.00
H161   H     0.53850   0.18630   0.06280   0.01267  Uiso   1.00
H162   H     0.30140   0.30510   0.13620   0.01267  Uiso   1.00
H163   H     0.73110   0.30330   0.53330   0.01267  Uiso   1.00
H164   H     0.59610   0.06050   0.20760   0.01267  Uiso   1.00
H165   H     0.63560   0.73700   0.61800   0.01267  Uiso   1.00
H166   H     0.03850   0.31370   0.56280   0.01267  Uiso   1.00
H167   H     0.20670   0.42090   0.48510   0.01267  Uiso   1.00
H168   H     0.53280   0.70040   0.94520   0.01267  Uiso   1.00
H169   H     0.75850   0.56720   0.31780   0.01267  Uiso   1.00
H170   H     0.43770   0.03760   0.30490   0.01267  Uiso   1.00
H171   H     0.89670   0.28570   0.65060   0.01267  Uiso   1.00
H172   H     0.63210   0.11920   0.72230   0.01267  Uiso   1.00
C1     C     0.59940   0.96770   0.07590   0.01267  Uiso   1.00
C2     C     0.93740   0.37520   0.73650   0.01267  Uiso   1.00
C3     C     0.92790   0.66990   0.15900   0.01267  Uiso   1.00
C4     C     0.88650   0.60120   0.30880   0.01267  Uiso   1.00
C5     C     0.24120   0.11680   0.31140   0.01267  Uiso   1.00
C6     C     0.08590   0.28600   0.45660   0.01267  Uiso   1.00
C7     C     0.58450   0.21440   0.15770   0.01267  Uiso   1.00
C8     C     0.66530   0.10560   0.78300   0.01267  Uiso   1.00
C9     C     0.45490   0.91880   0.05180   0.01267  Uiso   1.00
C10    C     0.52760   0.95320   0.94070   0.01267  Uiso   1.00
C11    C     0.45530   0.09190   0.93500   0.01267  Uiso   1.00
C12    C     0.86630   0.92950   0.40162   0.01267  Uiso   1.00
C13    C     0.89480   0.64220   0.53800   0.01267  Uiso   1.00
C14    C     0.33110   0.83010   0.37650   0.01267  Uiso   1.00
C15    C     0.45040   0.26040   0.33250   0.01267  Uiso   1.00
C16    C     0.34880   0.12920   0.25199   0.01267  Uiso   1.00
C17    C     0.96620   0.64550   0.12110   0.01267  Uiso   1.00
C18    C     0.56260   0.87520   0.76350   0.01267  Uiso   1.00
C19    C     0.80060   0.45750   0.41170   0.01267  Uiso   1.00
C20    C     0.78790   0.75870   0.50400   0.01267  Uiso   1.00
C21    C     0.68650   0.59860   0.75390   0.01267  Uiso   1.00
C22    C     0.19140   0.83310   0.19060   0.01267  Uiso   1.00
C23    C     0.43750   0.76320   0.33680   0.01267  Uiso   1.00
C24    C     0.34250   0.26110   0.04140   0.01267  Uiso   1.00
C25    C     0.53090   0.22700   0.31860   0.01267  Uiso   1.00
C26    C     0.63370   0.42950   0.09838   0.01267  Uiso   1.00
C27    C     0.04470   0.59190   0.56500   0.01267  Uiso   1.00
C28    C     0.38650   0.19330   0.17690   0.01267  Uiso   1.00
C29    C     0.57010   0.07630   0.39980   0.01267  Uiso   1.00
C30    C     0.07470   0.07720   0.63650   0.01267  Uiso   1.00
C31    C     0.46840   0.92600   0.17840   0.01267  Uiso   1.00
C32    C     0.57260   0.87810   0.94540   0.01267  Uiso   1.00
C33    C     0.04510   0.41880   0.44820   0.01267  Uiso   1.00
C34    C     0.16530   0.39440   0.28300   0.01267  Uiso   1.00
C35    C     0.82800   0.71330   0.35700   0.01267  Uiso   1.00
C36    C     0.54960   0.73960   0.66750   0.01267  Uiso   1.00
C37    C     0.45720   0.18110   0.39430   0.01267  Uiso   1.00
C38    C     0.31350   0.40140   0.24610   0.01267  Uiso   1.00
C39    C     0.38650   0.89880   0.80880   0.01267  Uiso   1.00
C40    C     0.68510   0.12810   0.98370   0.01267  Uiso   1.00
C41    C     0.38770   0.59300   0.82470   0.01267  Uiso   1.00
C42    C     0.97570   0.31230   0.55710   0.01267  Uiso   1.00
C43    C     0.32320   0.09760   0.29330   0.01267  Uiso   1.00
C44    C     0.74120   0.38320   0.81140   0.01267  Uiso   1.00
C45    C     0.45910   0.15870   0.19840   0.01267  Uiso   1.00
C46    C     0.20290   0.83490   0.46630   0.01267  Uiso   1.00
C47    C     0.14050   0.22740   0.47350   0.01267  Uiso   1.00
C48    C     0.25880   0.79300   0.35720   0.01267  Uiso   1.00
C49    C     0.07010   0.42370   0.89980   0.01267  Uiso   1.00
C50    C     0.90070   0.18490   0.80480   0.01267  Uiso   1.00
C51    C     0.03380   0.35450   0.87890   0.01267  Uiso   1.00
C52    C     0.26360   0.81470   0.99580   0.01267  Uiso   1.00
C53    C     0.35950   0.02740   0.35584   0.01267  Uiso   1.00
C54    C     0.64050   0.27260   0.97350   0.01267  Uiso   1.00
C55    C     0.09460   0.88210   0.25730   0.01267  Uiso   1.00
C56    C     0.53160   0.07400   0.82160   0.01267  Uiso   1.00
C57    C     0.31300   0.60250   0.63650   0.01267  Uiso   1.00
C58    C     0.52430   0.81230   0.94290   0.01267  Uiso   1.00
C59    C     0.02430   0.68770   0.44290   0.01267  Uiso   1.00
C60    C     0.61350   0.80670   0.82310   0.01267  Uiso   1.00
C61    C     0.92500   0.07960   0.66700   0.01267  Uiso   1.00
C62    C     0.57500   0.57960   0.83300   0.01267  Uiso   1.00
C63    C     0.96370   0.10050   0.44650   0.01267  Uiso   1.00
C64    C     0.50450   0.14290   0.61131   0.01267  Uiso   1.00
C65    C     0.22300   0.23670   0.17250   0.01267  Uiso   1.00
C66    C     0.10520   0.35780   0.46200   0.01267  Uiso   1.00
C67    C     0.03090   0.27300   0.81860   0.01267  Uiso   1.00
C68    C     0.19940   0.54250   0.58830   0.01267  Uiso   1.00
C69    C     0.07210   0.33010   0.84100   0.01267  Uiso   1.00
C70    C     0.03640   0.90170   0.29430   0.01267  Uiso   1.00
C71    C     0.47990   0.42990   0.13300   0.01267  Uiso   1.00
C72    C     0.28370   0.59270   0.14930   0.01267  Uiso   1.00
C73    C     0.41560   0.23880   0.37140   0.01267  Uiso   1.00
C74    C     0.85950   0.47260   0.85584   0.01267  Uiso   1.00
C75    C     0.84250   0.23890   0.54140   0.01267  Uiso   1.00
C76    C     0.43780   0.96110   0.92700   0.01267  Uiso   1.00
C77    C     0.95910   0.34130   0.69840   0.01267  Uiso   1.00
C78    C     0.47240   0.04680   0.05930   0.01267  Uiso   1.00
C79    C     0.58440   0.76120   0.62860   0.01267  Uiso   1.00
C80    C     0.40070   0.31510   0.30480   0.01267  Uiso   1.00
C81    C     0.93290   0.24410   0.55150   0.01267  Uiso   1.00
C82    C     0.77780   0.40010   0.38320   0.01267  Uiso   1.00
C83    C     0.91560   0.26120   0.87140   0.01267  Uiso   1.00
C84    C     0.57210   0.16990   0.34100   0.01267  Uiso   1.00
C85    C     0.91410   0.71400   0.54340   0.01267  Uiso   1.00
C86    C     0.72150   0.95050   0.62582   0.01267  Uiso   1.00
C87    C     0.81350   0.09860   0.74610   0.01267  Uiso   1.00
C88    C     0.84880   0.37080   0.75199   0.01267  Uiso   1.00
C89    C     0.88770   0.90700   0.32470   0.01267  Uiso   1.00
C90    C     0.59460   0.61790   0.75730   0.01267  Uiso   1.00
C91    C     0.46360   0.40170   0.20570   0.01267  Uiso   1.00
C92    C     0.73310   0.50620   0.42170   0.01267  Uiso   1.00
C93    C     0.22220   0.59990   0.61680   0.01267  Uiso   1.00
C94    C     0.61230   0.40700   0.17530   0.01267  Uiso   1.00
C95    C     0.04090   0.65870   0.30160   0.01267  Uiso   1.00
C96    C     0.30060   0.04250   0.91170   0.01267  Uiso   1.00
C97    C     0.94770   0.65870   0.31770   0.01267  Uiso   1.00
C98    C     0.04960   0.76040   0.16750   0.01267  Uiso   1.00
C99    C     0.23560   0.87760   0.22030   0.01267  Uiso   1.00
C100   C     0.06260   0.62480   0.26350   0.01267  Uiso   1.00
C101   C     0.67680   0.90240   0.70670   0.01267  Uiso   1.00
C102   C     0.60520   0.14220   0.96200   0.01267  Uiso   1.00
C103   C     0.92740   0.37810   0.55460   0.01267  Uiso   1.00
C104   C     0.74120   0.20700   0.64280   0.01267  Uiso   1.00
C105   C     0.05230   0.34130   0.68230   0.01267  Uiso   1.00
C106   C     0.36630   0.57050   0.90162   0.01267  Uiso   1.00
C107   C     0.88190   0.44800   0.81632   0.01267  Uiso   1.00
C108   C     0.18650   0.90140   0.25390   0.01267  Uiso   1.00
C109   C     0.54280   0.81890   0.60570   0.01267  Uiso   1.00
C110   C     0.41550   0.78560   0.84230   0.01267  Uiso   1.00
C111   C     0.03630   0.89950   0.55350   0.01267  Uiso   1.00
C112   C     0.31490   0.87190   0.01630   0.01267  Uiso   1.00
C113   C     0.44770   0.84130   0.81770   0.01267  Uiso   1.00
C114   C     0.29710   0.33490   0.03370   0.01267  Uiso   1.00
C115   C     0.23310   0.99380   0.92170   0.01267  Uiso   1.00
C116   C     0.42990   0.92370   0.60020   0.01267  Uiso   1.00
C117   C     0.05820   0.10460   0.70950   0.01267  Uiso   1.00
C118   C     0.94180   0.89540   0.29050   0.01267  Uiso   1.00
C119   C     0.32800   0.78670   0.85700   0.01267  Uiso   1.00
C120   C     0.11230   0.09300   0.67530   0.01267  Uiso   1.00
C121   C     0.43290   0.25590   0.05150   0.01267  Uiso   1.00
C122   C     0.48530   0.90470   0.24680   0.01267  Uiso   1.00
C123   C     0.21630   0.09270   0.35070   0.01267  Uiso   1.00
C124   C     0.95720   0.31890   0.89430   0.01267  Uiso   1.00
C125   C     0.85540   0.99400   0.09240   0.01267  Uiso   1.00
C126   C     0.42500   0.42040   0.16700   0.01267  Uiso   1.00
C127   C     0.40060   0.03230   0.92410   0.01267  Uiso   1.00
C128   C     0.12580   0.41200   0.32060   0.01267  Uiso   1.00
C129   C     0.83470   0.60560   0.71700   0.01267  Uiso   1.00
C130   C     0.77700   0.76330   0.82750   0.01267  Uiso   1.00
C131   C     0.98530   0.59530   0.74680   0.01267  Uiso   1.00
C132   C     0.30070   0.19690   0.19350   0.01267  Uiso   1.00
C133   C     0.80070   0.30310   0.69350   0.01267  Uiso   1.00
C134   C     0.18700   0.10250   0.86350   0.01267  Uiso   1.00
C135   C     0.96360   0.09830   0.70570   0.01267  Uiso   1.00
C136   C     0.36620   0.72350   0.31770   0.01267  Uiso   1.00
C137   C     0.79930   0.60570   0.32470   0.01267  Uiso   1.00
C138   C     0.08440   0.73880   0.12860   0.01267  Uiso   1.00
C139   C     0.10850   0.39150   0.24870   0.01267  Uiso   1.00
C140   C     0.57470   0.42280   0.13650   0.01267  Uiso   1.00
C141   C     0.06220   0.46110   0.57300   0.01267  Uiso   1.00
C142   C     0.54510   0.08120   0.94820   0.01267  Uiso   1.00
C143   C     0.95530   0.40810   0.43500   0.01267  Uiso   1.00
C144   C     0.03160   0.42600   0.32160   0.01267  Uiso   1.00
C145   C     0.72220   0.90010   0.11680   0.01267  Uiso   1.00
C146   C     0.69140   0.66690   0.69060   0.01267  Uiso   1.00
C147   C     0.19930   0.69690   0.30650   0.01267  Uiso   1.00
C148   C     0.14460   0.00600   0.90760   0.01267  Uiso   1.00
C149   C     0.33470   0.89440   0.21700   0.01267  Uiso   1.00
C150   C     0.80860   0.16690   0.80940   0.01267  Uiso   1.00
C151   C     0.07260   0.62190   0.44540   0.01267  Uiso   1.00
C152   C     0.99550   0.64290   0.88869   0.01267  Uiso   1.00
C153   C     0.67200   0.21330   0.14300   0.01267  Uiso   1.00
C154   C     0.52010   0.57010   0.86700   0.01267  Uiso   1.00
C155   C     0.20620   0.69510   0.46060   0.01267  Uiso   1.00
C156   C     0.51470   0.09530   0.75320   0.01267  Uiso   1.00
C157   C     0.11350   0.69330   0.32310   0.01267  Uiso   1.00
C158   C     0.46910   0.77300   0.68140   0.01267  Uiso   1.00
C159   C     0.74440   0.97350   0.58147   0.01267  Uiso   1.00
C160   C     0.92530   0.92280   0.36350   0.01267  Uiso   1.00
C161   C     0.93750   0.73680   0.83680   0.01267  Uiso   1.00
C162   C     0.56710   0.74410   0.94850   0.01267  Uiso   1.00
C163   C     0.42530   0.57720   0.86350   0.01267  Uiso   1.00
C164   C     0.76180   0.31960   0.01820   0.01267  Uiso   1.00
C165   C     0.27700   0.73670   0.32750   0.01267  Uiso   1.00
C166   C     0.42790   0.83010   0.65900   0.01267  Uiso   1.00
C167   C     0.29380   0.19510   0.03940   0.01267  Uiso   1.00
C168   C     0.69930   0.80310   0.80650   0.01267  Uiso   1.00
C169   C     0.26440   0.37760   0.27970   0.01267  Uiso   1.00
C170   C     0.60850   0.10850   0.74870   0.01267  Uiso   1.00
C171   C     0.26180   0.18040   0.51820   0.01267  Uiso   1.00
C172   C     0.96840   0.57400   0.67840   0.01267  Uiso   1.00
C173   C     0.59930   0.68490   0.69520   0.01267  Uiso   1.00
C174   C     0.16470   0.62640   0.45400   0.01267  Uiso   1.00
C175   C     0.73560   0.62240   0.72030   0.01267  Uiso   1.00
C176   C     0.77850   0.45050   0.87418   0.01267  Uiso   1.00
C177   C     0.13370   0.07050   0.59838   0.01267  Uiso   1.00
C178   C     0.56250   0.23680   0.66320   0.01267  Uiso   1.00
C179   C     0.06710   0.75590   0.44850   0.01267  Uiso   1.00
C180   C     0.58590   0.21400   0.95660   0.01267  Uiso   1.00
C181   C     0.53380   0.14550   0.37890   0.01267  Uiso   1.00
C182   C     0.64050   0.97260   0.64416   0.01267  Uiso   1.00
C183   C     0.18510   0.37190   0.48370   0.01267  Uiso   1.00
C184   C     0.29930   0.89430   0.82470   0.01267  Uiso   1.00
C185   C     0.35540   0.50600   0.59240   0.01267  Uiso   1.00
C186   C     0.73640   0.18530   0.00420   0.01267  Uiso   1.00
C187   C     0.63380   0.27650   0.68230   0.01267  Uiso   1.00
C188   C     0.21210   0.24130   0.49600   0.01267  Uiso   1.00
C189   C     0.23820   0.68040   0.98180   0.01267  Uiso   1.00
C190   C     0.15750   0.76110   0.45860   0.01267  Uiso   1.00
C191   C     0.68700   0.39750   0.36350   0.01267  Uiso   1.00
C192   C     0.92990   0.57630   0.10020   0.01267  Uiso   1.00
C193   C     0.81490   0.62810   0.51630   0.01267  Uiso   1.00
C194   C     0.81300   0.89750   0.13650   0.01267  Uiso   1.00
C195   C     0.39150   0.89150   0.25130   0.01267  Uiso   1.00
C196   C     0.46370   0.39950   0.94650   0.01267  Uiso   1.00
C197   C     0.70620   0.80490   0.96060   0.01267  Uiso   1.00
C198   C     0.53630   0.60050   0.05350   0.01267  Uiso   1.00
C199   C     0.97990   0.07010   0.63300   0.01267  Uiso   1.00
C200   C     0.72300   0.26330   0.67250   0.01267  Uiso   1.00
C201   C     0.56220   0.03890   0.07300   0.01267  Uiso   1.00
C202   C     0.11350   0.39880   0.69120   0.01267  Uiso   1.00
C203   C     0.49550   0.85710   0.38869   0.01267  Uiso   1.00
C204   C     0.06250   0.26320   0.16320   0.01267  Uiso   1.00
C205   C     0.15120   0.62920   0.24801   0.01267  Uiso   1.00
C206   C     0.83530   0.37360   0.54600   0.01267  Uiso   1.00
C207   C     0.30860   0.33310   0.30940   0.01267  Uiso   1.00
C208   C     0.04280   0.68110   0.10570   0.01267  Uiso   1.00
C209   C     0.42030   0.81520   0.36708   0.01267  Uiso   1.00
C210   C     0.66890   0.16990   0.62350   0.01267  Uiso   1.00
C211   C     0.83110   0.66990   0.87650   0.01267  Uiso   1.00
C212   C     0.96910   0.72700   0.18140   0.01267  Uiso   1.00
C213   C     0.35950   0.72740   0.02650   0.01267  Uiso   1.00
C214   C     0.09940   0.53230   0.57590   0.01267  Uiso   1.00
C215   C     0.71630   0.40730   0.85070   0.01267  Uiso   1.00
C216   C     0.73820   0.81960   0.48180   0.01267  Uiso   1.00
C217   C     0.62580   0.08800   0.82060   0.01267  Uiso   1.00
C218   C     0.82320   0.40240   0.79330   0.01267  Uiso   1.00
C219   C     0.85950   0.77260   0.52650   0.01267  Uiso   1.00
C220   C     0.75880   0.70700   0.85720   0.01267  Uiso   1.00
C221   C     0.64460   0.49400   0.40760   0.01267  Uiso   1.00
C222   C     0.76440   0.12240   0.77970   0.01267  Uiso   1.00
C223   C     0.47570   0.18770   0.05710   0.01267  Uiso   1.00
C224   C     0.75880   0.88320   0.68860   0.01267  Uiso   1.00
C225   C     0.54470   0.90810   0.06500   0.01267  Uiso   1.00
C226   C     0.44180   0.60460   0.79050   0.01267  Uiso   1.00
C227   C     0.20070   0.39430   0.67530   0.01267  Uiso   1.00
C228   C     0.65120   0.87080   0.74801   0.01267  Uiso   1.00
C229   C     0.02760   0.54680   0.44070   0.01267  Uiso   1.00
C230   C     0.70290   0.66510   0.96630   0.01267  Uiso   1.00
C231   C     0.01470   0.40470   0.25320   0.01267  Uiso   1.00
C232   C     0.16890   0.33010   0.12350   0.01267  Uiso   1.00
C233   C     0.97240   0.45320   0.55930   0.01267  Uiso   1.00
C234   C     0.17200   0.28670   0.64300   0.01267  Uiso   1.00
C235   C     0.55230   0.15870   0.18230   0.01267  Uiso   1.00
C236   C     0.07970   0.31520   0.13292   0.01267  Uiso   1.00
C237   C     0.23640   0.31470   0.50420   0.01267  Uiso   1.00
C238   C     0.24440   0.52650   0.08147   0.01267  Uiso   1.00
C239   C     0.71210   0.25870   0.99600   0.01267  Uiso   1.00
C240   C     0.75560   0.47350   0.91853   0.01267  Uiso   1.00
C241   C     0.69940   0.95750   0.08830   0.01267  Uiso   1.00
C242   C     0.07500   0.92040   0.33300   0.01267  Uiso   1.00
C243   C     0.39480   0.85780   0.03800   0.01267  Uiso   1.00
C244   C     0.40540   0.38210   0.24270   0.01267  Uiso   1.00
C245   C     0.90540   0.11790   0.74270   0.01267  Uiso   1.00
C246   C     0.09930   0.81510   0.19520   0.01267  Uiso   1.00
C247   C     0.28790   0.74130   0.00400   0.01267  Uiso   1.00
C248   C     0.79380   0.30490   0.53940   0.01267  Uiso   1.00
C249   C     0.91550   0.71440   0.34230   0.01267  Uiso   1.00
C250   C     0.54090   0.84130   0.80160   0.01267  Uiso   1.00
C251   C     0.13380   0.22350   0.18230   0.01267  Uiso   1.00
C252   C     0.57970   0.18480   0.63292   0.01267  Uiso   1.00
C253   C     0.90060   0.46770   0.42410   0.01267  Uiso   1.00
C254   C     0.43740   0.12480   0.23650   0.01267  Uiso   1.00
C255   C     0.65750   0.73890   0.95860   0.01267  Uiso   1.00
C256   C     0.11810   0.55200   0.18368   0.01267  Uiso   1.00
C257   C     0.93780   0.53890   0.42700   0.01267  Uiso   1.00
C258   C     0.79710   0.16510   0.53370   0.01267  Uiso   1.00
C259   C     0.22150   0.54950   0.12582   0.01267  Uiso   1.00
C260   C     0.86620   0.77650   0.81770   0.01267  Uiso   1.00
C261   C     0.25880   0.61680   0.18860   0.01267  Uiso   1.00
C262   C     0.00450   0.35710   0.11131   0.01267  Uiso   1.00
C263   C     0.78370   0.90730   0.64930   0.01267  Uiso   1.00
C264   C     0.61350   0.10120   0.19120   0.01267  Uiso   1.00
C265   C     0.55820   0.39540   0.20950   0.01267  Uiso   1.00
C266   C     0.76690   0.00620   0.07830   0.01267  Uiso   1.00
C267   C     0.53640   0.59830   0.79430   0.01267  Uiso   1.00
C268   C     0.27850   0.04950   0.37418   0.01267  Uiso   1.00
C269   C     0.88650   0.30670   0.67690   0.01267  Uiso   1.00
C270   C     0.76360   0.68530   0.49580   0.01267  Uiso   1.00
C271   C     0.08450   0.28560   0.65770   0.01267  Uiso   1.00
C272   C     0.46620   0.85450   0.62110   0.01267  Uiso   1.00
C273   C     0.92030   0.68480   0.86708   0.01267  Uiso   1.00
C274   C     0.02010   0.92990   0.36700   0.01267  Uiso   1.00
C275   C     0.95040   0.23960   0.83250   0.01267  Uiso   1.00
C276   C     0.66470   0.87360   0.95400   0.01267  Uiso   1.00
C277   C     0.27780   0.09990   0.88320   0.01267  Uiso   1.00
C278   C     0.26690   0.49380   0.57830   0.01267  Uiso   1.00
C279   C     0.41410   0.78600   0.04340   0.01267  Uiso   1.00
C280   C     0.33530   0.12640   0.04600   0.01267  Uiso   1.00
C281   C     0.70070   0.10570   0.17530   0.01267  Uiso   1.00
C282   C     0.25560   0.02650   0.41853   0.01267  Uiso   1.00
C283   C     0.89150   0.60850   0.75130   0.01267  Uiso   1.00
C284   C     0.24120   0.29300   0.14280   0.01267  Uiso   1.00
C285   C     0.42740   0.12190   0.05460   0.01267  Uiso   1.00
C286   C     0.37420   0.91200   0.17940   0.01267  Uiso   1.00
C287   C     0.87420   0.58800   0.67940   0.01267  Uiso   1.00
C288   C     0.38190   0.05200   0.31632   0.01267  Uiso   1.00
C289   C     0.95490   0.58120   0.55180   0.01267  Uiso   1.00
C290   C     0.14050   0.52740   0.14416   0.01267  Uiso   1.00
C291   C     0.17680   0.59760   0.20670   0.01267  Uiso   1.00
C292   C     0.61810   0.94800   0.68368   0.01267  Uiso   1.00
N1     N     0.05230   0.83850   0.22788   0.01267  Uiso   1.00
N2     N     0.61960   0.44120   0.38070   0.01267  Uiso   1.00
N3     N     0.71920   0.83540   0.76938   0.01267  Uiso   1.00
N4     N     0.28080   0.16460   0.23062   0.01267  Uiso   1.00
N5     N     0.11960   0.05880   0.88070   0.01267  Uiso   1.00
N6     N     0.21920   0.66460   0.26938   0.01267  Uiso   1.00
N7     N     0.88040   0.94120   0.11930   0.01267  Uiso   1.00
N8     N     0.94770   0.16150   0.77212   0.01267  Uiso   1.00
N9     N     0.02160   0.57950   0.71050   0.01267  Uiso   1.00
N10    N     0.58030   0.01230   0.95062   0.01267  Uiso   1.00
N11    N     0.08030   0.48770   0.45062   0.01267  Uiso   1.00
N12    N     0.55230   0.66150   0.72788   0.01267  Uiso   1.00
N13    N     0.26800   0.83870   0.84950   0.01267  Uiso   1.00
N14    N     0.38040   0.55880   0.61930   0.01267  Uiso   1.00
N15    N     0.73200   0.16130   0.15050   0.01267  Uiso   1.00
N16    N     0.52160   0.92050   0.21050   0.01267  Uiso   1.00
N17    N     0.44770   0.33850   0.27212   0.01267  Uiso   1.00
N18    N     0.97840   0.42050   0.28950   0.01267  Uiso   1.00
N19    N     0.41970   0.98770   0.04938   0.01267  Uiso   1.00
N20    N     0.47840   0.07950   0.78950   0.01267  Uiso   1.00
N21    N     0.91970   0.51230   0.54938   0.01267  Uiso   1.00
N22    N     0.76800   0.66130   0.34950   0.01267  Uiso   1.00
N23    N     0.23200   0.33870   0.65050   0.01267  Uiso   1.00
N24    N     0.78080   0.33540   0.73062   0.01267  Uiso   1.00
O1     O     0.45440   0.93870   0.56321   0.01267  Uiso   1.00
O2     O     0.75990   0.88710   0.48884   0.01267  Uiso   1.00
O3     O     0.32230   0.54240   0.06843   0.01267  Uiso   1.00
O4     O     0.09580   0.05830   0.56412   0.01267  Uiso   1.00
O5     O     0.15370   0.89120   0.46374   0.01267  Uiso   1.00
O6     O     0.04560   0.43870   0.93679   0.01267  Uiso   1.00
O7     O     0.40420   0.55830   0.93588   0.01267  Uiso   1.00
O8     O     0.34630   0.39120   0.03626   0.01267  Uiso   1.00
O9     O     0.43150   0.05290   0.50507   0.01267  Uiso   1.00
O10    O     0.99490   0.93590   0.52363   0.01267  Uiso   1.00
O11    O     0.93150   0.44710   0.00507   0.01267  Uiso   1.00
O12    O     0.17770   0.04240   0.43157   0.01267  Uiso   1.00
O13    O     0.78130   0.92110   0.39576   0.01267  Uiso   1.00
O14    O     0.56850   0.94710   0.49493   0.01267  Uiso   1.00
O15    O     0.48000   0.89290   0.42229   0.01267  Uiso   1.00
O16    O     0.57440   0.85810   0.37354   0.01267  Uiso   1.00
O17    O     0.71870   0.42110   0.10424   0.01267  Uiso   1.00
O18    O     0.50510   0.43590   0.97637   0.01267  Uiso   1.00
O19    O     0.17080   0.69440   0.95584   0.01267  Uiso   1.00
O20    O     0.84630   0.10880   0.53626   0.01267  Uiso   1.00
O21    O     0.42560   0.14190   0.62646   0.01267  Uiso   1.00
O22    O     0.25990   0.61290   0.98884   0.01267  Uiso   1.00
O23    O     0.21960   0.46530   0.96688   0.01267  Uiso   1.00
O24    O     0.78040   0.53470   0.03312   0.01267  Uiso   1.00
O25    O     0.90420   0.94170   0.43588   0.01267  Uiso   1.00
O26    O     0.87810   0.53310   0.11985   0.01267  Uiso   1.00
O27    O     0.06850   0.55290   0.99493   0.01267  Uiso   1.00
O28    O     0.78700   0.66460   0.97535   0.01267  Uiso   1.00
O29    O     0.61970   0.60320   0.05560   0.01267  Uiso   1.00
O30    O     0.12190   0.46690   0.88015   0.01267  Uiso   1.00
O31    O     0.67770   0.45760   0.93157   0.01267  Uiso   1.00
O32    O     0.21870   0.07890   0.60424   0.01267  Uiso   1.00
O33    O     0.71960   0.03470   0.46688   0.01267  Uiso   1.00
O34    O     0.02000   0.39290   0.07771   0.01267  Uiso   1.00
O35    O     0.11970   0.89680   0.55560   0.01267  Uiso   1.00
O36    O     0.71300   0.16460   0.52465   0.01267  Uiso   1.00
O37    O     0.37810   0.96690   0.61985   0.01267  Uiso   1.00
O38    O     0.28130   0.57890   0.89576   0.01267  Uiso   1.00
O39    O     0.62190   0.03310   0.38015   0.01267  Uiso   1.00
O40    O     0.95440   0.56130   0.06321   0.01267  Uiso   1.00
O41    O     0.49490   0.56410   0.02363   0.01267  Uiso   1.00
O42    O     0.38030   0.39680   0.94440   0.01267  Uiso   1.00
O43    O     0.52000   0.10710   0.57771   0.01267  Uiso   1.00
O44    O     0.74010   0.38710   0.01116   0.01267  Uiso   1.00
O45    O     0.21300   0.33540   0.02465   0.01267  Uiso   1.00
O46    O     0.18370   0.49330   0.05997   0.01267  Uiso   1.00
O47    O     0.31630   0.99330   0.44003   0.01267  Uiso   1.00
O48    O     0.24010   0.11290   0.51116   0.01267  Uiso   1.00
O49    O     0.82920   0.30560   0.04416   0.01267  Uiso   1.00
O50    O     0.81630   0.50670   0.94003   0.01267  Uiso   1.00
O51    O     0.32920   0.19440   0.54416   0.01267  Uiso   1.00
O52    O     0.67080   0.80560   0.45584   0.01267  Uiso   1.00
O53    O     0.28700   0.83540   0.47535   0.01267  Uiso   1.00
O54    O     0.07440   0.64190   0.87354   0.01267  Uiso   1.00
O55    O     0.00510   0.06410   0.47637   0.01267  Uiso   1.00
O56    O     0.68370   0.00670   0.55997   0.01267  Uiso   1.00
O57    O     0.98000   0.60710   0.92229   0.01267  Uiso   1.00
O58    O     0.92560   0.35810   0.12646   0.01267  Uiso   1.00
O59    O     0.88030   0.10320   0.44440   0.01267  Uiso   1.00
O60    O     0.65370   0.60880   0.96374   0.01267  Uiso   1.00
O61    O     0.28040   0.96530   0.53312   0.01267  Uiso   1.00
O62    O     0.82230   0.95760   0.56843   0.01267  Uiso   1.00
O63    O     0.59580   0.44170   0.06412   0.01267  Uiso   1.00
O64    O     0.54560   0.06130   0.43679   0.01267  Uiso   1.00
