data_LOSBOM_clean
_audit_creation_date              2015-10-16
_audit_creation_method            'Materials Studio'
_symmetry_space_group_name_H-M    'P1'
_symmetry_Int_Tables_number       1
_symmetry_cell_setting            triclinic
loop_
_symmetry_equiv_pos_as_xyz
  x,y,z
_cell_length_a                    11.0640
_cell_length_b                    15.9570
_cell_length_c                    23.3620
_cell_angle_alpha                 90.0000
_cell_angle_beta                  92.2650
_cell_angle_gamma                 90.0000
loop_
_atom_site_label
_atom_site_type_symbol
_atom_site_fract_x
_atom_site_fract_y
_atom_site_fract_z
_atom_site_U_iso_or_equiv
_atom_site_adp_type
_atom_site_occupancy
Mg1    Mg    0.35870   0.84676   0.25929   0.01267  Uiso   1.00
Mg2    Mg    0.64130   0.15324   0.74071   0.01267  Uiso   1.00
Mg3    Mg    0.55275   0.51090   0.83946   0.01267  Uiso   1.00
Mg4    Mg    0.55275   0.98910   0.33946   0.01267  Uiso   1.00
Mg5    Mg    0.44725   0.48910   0.16054   0.01267  Uiso   1.00
Mg6    Mg    0.44725   0.01090   0.66054   0.01267  Uiso   1.00
Mg7    Mg    0.64130   0.34676   0.24071   0.01267  Uiso   1.00
Mg8    Mg    0.35870   0.65324   0.75929   0.01267  Uiso   1.00
H1     H     0.38140   0.57580   0.99660   0.01267  Uiso   1.00
H2     H     0.21860   0.23130   0.61060   0.01267  Uiso   1.00
H3     H     0.25560   0.61660   0.53520   0.01267  Uiso   1.00
H4     H     0.79590   0.96550   0.82920   0.01267  Uiso   1.00
H5     H     0.19280   0.76890   0.39250   0.01267  Uiso   1.00
H6     H     0.25560   0.88340   0.03520   0.01267  Uiso   1.00
H7     H     0.01590   0.26090   0.59560   0.01267  Uiso   1.00
H8     H     0.74440   0.38340   0.46480   0.01267  Uiso   1.00
H9     H     0.38140   0.92420   0.49660   0.01267  Uiso   1.00
H10    H     0.16470   0.75070   0.56220   0.01267  Uiso   1.00
H11    H     0.42360   0.20400   0.24890   0.01267  Uiso   1.00
H12    H     0.80720   0.23110   0.60750   0.01267  Uiso   1.00
H13    H     0.83530   0.24930   0.43780   0.01267  Uiso   1.00
H14    H     0.16470   0.74930   0.06220   0.01267  Uiso   1.00
H15    H     0.42360   0.29600   0.74890   0.01267  Uiso   1.00
H16    H     0.74440   0.11660   0.96480   0.01267  Uiso   1.00
H17    H     0.78140   0.73130   0.88940   0.01267  Uiso   1.00
H18    H     0.80720   0.26890   0.10750   0.01267  Uiso   1.00
H19    H     0.79590   0.53450   0.32920   0.01267  Uiso   1.00
H20    H     0.61860   0.42420   0.00340   0.01267  Uiso   1.00
H21    H     0.73510   0.99480   0.91680   0.01267  Uiso   1.00
H22    H     0.98410   0.73910   0.40440   0.01267  Uiso   1.00
H23    H     0.26490   0.00520   0.08320   0.01267  Uiso   1.00
H24    H     0.83530   0.25070   0.93780   0.01267  Uiso   1.00
H25    H     0.57640   0.79600   0.75110   0.01267  Uiso   1.00
H26    H     0.98410   0.76090   0.90440   0.01267  Uiso   1.00
H27    H     0.73510   0.50520   0.41680   0.01267  Uiso   1.00
H28    H     0.78140   0.76870   0.38940   0.01267  Uiso   1.00
H29    H     0.01590   0.23910   0.09560   0.01267  Uiso   1.00
H30    H     0.61860   0.07580   0.50340   0.01267  Uiso   1.00
H31    H     0.26490   0.49480   0.58320   0.01267  Uiso   1.00
H32    H     0.19280   0.73110   0.89250   0.01267  Uiso   1.00
H33    H     0.20410   0.46550   0.67080   0.01267  Uiso   1.00
H34    H     0.20410   0.03450   0.17080   0.01267  Uiso   1.00
H35    H     0.21860   0.26870   0.11060   0.01267  Uiso   1.00
H36    H     0.57640   0.70400   0.25110   0.01267  Uiso   1.00
C1     C     0.31350   0.62740   0.09780   0.01267  Uiso   1.00
C2     C     0.80850   0.42090   0.46890   0.01267  Uiso   1.00
C3     C     0.62660   0.95950   0.74590   0.01267  Uiso   1.00
C4     C     0.78560   0.21320   0.57060   0.01267  Uiso   1.00
C5     C     0.19690   0.50640   0.55980   0.01267  Uiso   1.00
C6     C     0.23560   0.41150   0.67280   0.01267  Uiso   1.00
C7     C     0.68650   0.12740   0.40220   0.01267  Uiso   1.00
C8     C     0.07940   0.82260   0.96520   0.01267  Uiso   1.00
C9     C     0.67170   0.74960   0.32060   0.01267  Uiso   1.00
C10    C     0.91130   0.10060   0.00580   0.01267  Uiso   1.00
C11    C     0.32250   0.39130   0.71560   0.01267  Uiso   1.00
C12    C     0.10140   0.44590   0.55550   0.01267  Uiso   1.00
C13    C     0.32700   0.88030   0.49140   0.01267  Uiso   1.00
C14    C     0.34920   0.89160   0.38530   0.01267  Uiso   1.00
C15    C     0.72210   0.34200   0.96170   0.01267  Uiso   1.00
C16    C     0.76440   0.91150   0.82720   0.01267  Uiso   1.00
C17    C     0.19760   0.77600   0.53040   0.01267  Uiso   1.00
C18    C     0.89860   0.94590   0.94450   0.01267  Uiso   1.00
C19    C     0.70530   0.14720   0.56340   0.01267  Uiso   1.00
C20    C     0.19560   0.35160   0.63310   0.01267  Uiso   1.00
C21    C     0.89860   0.55410   0.44450   0.01267  Uiso   1.00
C22    C     0.89750   0.62900   0.41250   0.01267  Uiso   1.00
C23    C     0.16550   0.74680   0.47560   0.01267  Uiso   1.00
C24    C     0.80440   0.85160   0.86690   0.01267  Uiso   1.00
C25    C     0.23560   0.08850   0.17280   0.01267  Uiso   1.00
C26    C     0.29470   0.64720   0.93660   0.01267  Uiso   1.00
C27    C     0.62660   0.54050   0.24590   0.01267  Uiso   1.00
C28    C     0.75610   0.72840   0.36290   0.01267  Uiso   1.00
C29    C     0.08870   0.89940   0.99420   0.01267  Uiso   1.00
C30    C     0.70530   0.35280   0.06340   0.01267  Uiso   1.00
C31    C     0.75610   0.77160   0.86290   0.01267  Uiso   1.00
C32    C     0.80310   0.00640   0.94020   0.01267  Uiso   1.00
C33    C     0.29470   0.85280   0.43660   0.01267  Uiso   1.00
C34    C     0.00300   0.03880   0.01520   0.01267  Uiso   1.00
C35    C     0.08870   0.60060   0.49420   0.01267  Uiso   1.00
C36    C     0.01300   0.31100   0.57530   0.01267  Uiso   1.00
C37    C     0.24390   0.27160   0.63710   0.01267  Uiso   1.00
C38    C     0.32830   0.25040   0.67940   0.01267  Uiso   1.00
C39    C     0.63220   0.81030   0.78030   0.01267  Uiso   1.00
C40    C     0.72210   0.15800   0.46170   0.01267  Uiso   1.00
C41    C     0.67300   0.11970   0.50860   0.01267  Uiso   1.00
C42    C     0.76440   0.58850   0.32720   0.01267  Uiso   1.00
C43    C     0.68650   0.37260   0.90220   0.01267  Uiso   1.00
C44    C     0.62160   0.83710   0.32070   0.01267  Uiso   1.00
C45    C     0.98700   0.68900   0.42470   0.01267  Uiso   1.00
C46    C     0.67750   0.89130   0.78440   0.01267  Uiso   1.00
C47    C     0.65080   0.39160   0.11470   0.01267  Uiso   1.00
C48    C     0.37340   0.45950   0.75410   0.01267  Uiso   1.00
C49    C     0.01300   0.18900   0.07530   0.01267  Uiso   1.00
C50    C     0.80440   0.64840   0.36690   0.01267  Uiso   1.00
C51    C     0.24390   0.22840   0.13710   0.01267  Uiso   1.00
C52    C     0.32700   0.61970   0.99140   0.01267  Uiso   1.00
C53    C     0.99700   0.53880   0.48480   0.01267  Uiso   1.00
C54    C     0.00300   0.46120   0.51520   0.01267  Uiso   1.00
C55    C     0.62160   0.66290   0.82070   0.01267  Uiso   1.00
C56    C     0.34920   0.60840   0.88530   0.01267  Uiso   1.00
C57    C     0.19560   0.14840   0.13310   0.01267  Uiso   1.00
C58    C     0.19690   0.99360   0.05980   0.01267  Uiso   1.00
C59    C     0.19760   0.72400   0.03040   0.01267  Uiso   1.00
C60    C     0.65080   0.10840   0.61470   0.01267  Uiso   1.00
C61    C     0.07940   0.67740   0.46520   0.01267  Uiso   1.00
C62    C     0.80850   0.07910   0.96890   0.01267  Uiso   1.00
C63    C     0.92060   0.32260   0.53480   0.01267  Uiso   1.00
C64    C     0.78560   0.28680   0.07060   0.01267  Uiso   1.00
C65    C     0.37840   0.33710   0.17930   0.01267  Uiso   1.00
C66    C     0.83450   0.24680   0.02440   0.01267  Uiso   1.00
C67    C     0.16550   0.75320   0.97560   0.01267  Uiso   1.00
C68    C     0.27790   0.84200   0.53830   0.01267  Uiso   1.00
C69    C     0.37340   0.04050   0.25410   0.01267  Uiso   1.00
C70    C     0.36780   0.18970   0.21970   0.01267  Uiso   1.00
C71    C     0.80310   0.49360   0.44020   0.01267  Uiso   1.00
C72    C     0.67750   0.60870   0.28440   0.01267  Uiso   1.00
C73    C     0.10140   0.05410   0.05550   0.01267  Uiso   1.00
C74    C     0.21440   0.78680   0.42940   0.01267  Uiso   1.00
C75    C     0.19150   0.57910   0.53110   0.01267  Uiso   1.00
C76    C     0.80240   0.27600   0.96960   0.01267  Uiso   1.00
C77    C     0.92060   0.17740   0.03480   0.01267  Uiso   1.00
C78    C     0.98700   0.81100   0.92470   0.01267  Uiso   1.00
C79    C     0.80240   0.22400   0.46960   0.01267  Uiso   1.00
C80    C     0.89750   0.87100   0.91250   0.01267  Uiso   1.00
C81    C     0.67300   0.38030   0.00860   0.01267  Uiso   1.00
C82    C     0.67170   0.75040   0.82060   0.01267  Uiso   1.00
C83    C     0.37840   0.16290   0.67930   0.01267  Uiso   1.00
C84    C     0.83450   0.25320   0.52440   0.01267  Uiso   1.00
C85    C     0.19150   0.92090   0.03110   0.01267  Uiso   1.00
C86    C     0.32830   0.24960   0.17940   0.01267  Uiso   1.00
C87    C     0.27790   0.65800   0.03830   0.01267  Uiso   1.00
C88    C     0.36780   0.31030   0.71970   0.01267  Uiso   1.00
C89    C     0.91130   0.39940   0.50580   0.01267  Uiso   1.00
C90    C     0.21440   0.71320   0.92940   0.01267  Uiso   1.00
C91    C     0.63220   0.68970   0.28030   0.01267  Uiso   1.00
C92    C     0.10250   0.37100   0.58750   0.01267  Uiso   1.00
C93    C     0.10250   0.12900   0.08750   0.01267  Uiso   1.00
C94    C     0.31350   0.87260   0.59780   0.01267  Uiso   1.00
C95    C     0.32250   0.10870   0.21560   0.01267  Uiso   1.00
C96    C     0.99700   0.96120   0.98480   0.01267  Uiso   1.00
O1     O     0.46100   0.35710   0.21490   0.01267  Uiso   1.00
O2     O     0.27350   0.83320   0.63930   0.01267  Uiso   1.00
O3     O     0.72650   0.16680   0.36070   0.01267  Uiso   1.00
O4     O     0.53900   0.64290   0.78510   0.01267  Uiso   1.00
O5     O     0.43070   0.94480   0.39296   0.01267  Uiso   1.00
O6     O     0.66550   0.61180   0.85680   0.01267  Uiso   1.00
O7     O     0.56930   0.05520   0.60704   0.01267  Uiso   1.00
O8     O     0.69100   0.13410   0.66220   0.01267  Uiso   1.00
O9     O     0.56930   0.44480   0.10704   0.01267  Uiso   1.00
O10    O     0.72650   0.33320   0.86070   0.01267  Uiso   1.00
O11    O     0.56140   0.93910   0.70490   0.01267  Uiso   1.00
O12    O     0.65220   0.03390   0.76110   0.01267  Uiso   1.00
O13    O     0.69100   0.36590   0.16220   0.01267  Uiso   1.00
O14    O     0.43860   0.43910   0.79510   0.01267  Uiso   1.00
O15    O     0.37900   0.93450   0.60138   0.01267  Uiso   1.00
O16    O     0.46100   0.14290   0.71490   0.01267  Uiso   1.00
O17    O     0.30900   0.63410   0.83780   0.01267  Uiso   1.00
O18    O     0.62100   0.43450   0.89862   0.01267  Uiso   1.00
O19    O     0.62100   0.06550   0.39862   0.01267  Uiso   1.00
O20    O     0.65220   0.46610   0.26110   0.01267  Uiso   1.00
O21    O     0.53900   0.85710   0.28510   0.01267  Uiso   1.00
O22    O     0.43860   0.06090   0.29510   0.01267  Uiso   1.00
O23    O     0.34780   0.53390   0.73890   0.01267  Uiso   1.00
O24    O     0.56140   0.56090   0.20490   0.01267  Uiso   1.00
O25    O     0.34780   0.96610   0.23890   0.01267  Uiso   1.00
O26    O     0.37900   0.56550   0.10138   0.01267  Uiso   1.00
O27    O     0.30900   0.86590   0.33780   0.01267  Uiso   1.00
O28    O     0.33450   0.38820   0.14320   0.01267  Uiso   1.00
O29    O     0.27350   0.66680   0.13930   0.01267  Uiso   1.00
O30    O     0.66550   0.88820   0.35680   0.01267  Uiso   1.00
O31    O     0.33450   0.11180   0.64320   0.01267  Uiso   1.00
O32    O     0.43070   0.55520   0.89296   0.01267  Uiso   1.00
