data_image0
_cell_length_a       28.95
_cell_length_b       39.508
_cell_length_c       10.2785
_cell_angle_alpha    90
_cell_angle_beta     95.737
_cell_angle_gamma    90

_symmetry_space_group_name_H-M    "P 1"
_symmetry_int_tables_number       1

loop_
  _symmetry_equiv_pos_as_xyz
  'x, y, z'

loop_
  _atom_site_label
  _atom_site_occupancy
  _atom_site_fract_x
  _atom_site_fract_y
  _atom_site_fract_z
  _atom_site_thermal_displace_type
  _atom_site_B_iso_or_equiv
  _atom_site_type_symbol
  Cd1      1.0000 0.23966  0.67604  0.94463  Biso   1.000  Cd
  Cd2      1.0000 0.23216  0.68634  0.45716  Biso   1.000  Cd
  O1       1.0000 0.30626  0.67952  0.57230  Biso   1.000  O
  O2       1.0000 0.30185  0.66966  0.36290  Biso   1.000  O
  O3       1.0000 0.17394  0.68258  0.30280  Biso   1.000  O
  O4       1.0000 0.19887  0.69567  0.11080  Biso   1.000  O
  O5       1.0000 0.17733  0.67064  0.79460  Biso   1.000  O
  O6       1.0000 0.19766  0.70381  0.63400  Biso   1.000  O
  N1       1.0000 0.22594  0.62129  0.01340  Biso   1.000  N
  N2       1.0000 0.13824  0.42779  0.24480  Biso   1.000  N
  N3       1.0000 0.23753  0.23044  0.09360  Biso   1.000  N
  N4       1.0000 0.21525  0.62965  0.50020  Biso   1.000  N
  N5       1.0000 0.13690  0.43360  0.74410  Biso   1.000  N
  N6       1.0000 0.25320  0.24201  0.58890  Biso   1.000  N
  C1       1.0000 0.22947  0.61289  0.13870  Biso   1.000  C
  H1       1.0000 0.23840  0.62960  0.20000  Biso   1.000  H
  C2       1.0000 0.22084  0.58161  0.18280  Biso   1.000  C
  H2       1.0000 0.22420  0.57730  0.27220  Biso   1.000  H
  C3       1.0000 0.20707  0.55583  0.09620  Biso   1.000  C
  C4       1.0000 0.20300  0.56477  0.96460  Biso   1.000  C
  H3       1.0000 0.19430  0.54860  0.90130  Biso   1.000  H
  C5       1.0000 0.21180  0.59758  0.92730  Biso   1.000  C
  H4       1.0000 0.20770  0.60320  0.83900  Biso   1.000  H
  C6       1.0000 0.19288  0.52138  0.13870  Biso   1.000  C
  C7       1.0000 0.17803  0.51673  0.26060  Biso   1.000  C
  H5       1.0000 0.17890  0.53490  0.31820  Biso   1.000  H
  C8       1.0000 0.16192  0.48592  0.30020  Biso   1.000  C
  H6       1.0000 0.15260  0.48350  0.38370  Biso   1.000  H
  C9       1.0000 0.15957  0.45811  0.21420  Biso   1.000  C
  C10      1.0000 0.17828  0.46247  0.09430  Biso   1.000  C
  H7       1.0000 0.17960  0.44410  0.03850  Biso   1.000  H
  C11      1.0000 0.19463  0.49341  0.05760  Biso   1.000  C
  H8       1.0000 0.20690  0.49560  0.97780  Biso   1.000  H
  C12      1.0000 0.15561  0.39637  0.20820  Biso   1.000  C
  C13      1.0000 0.20178  0.38910  0.22900  Biso   1.000  C
  H9       1.0000 0.22230  0.40590  0.26210  Biso   1.000  H
  C14      1.0000 0.21904  0.35735  0.20220  Biso   1.000  C
  H10      1.0000 0.25070  0.35300  0.21620  Biso   1.000  H
  C15      1.0000 0.18862  0.33212  0.15450  Biso   1.000  C
  C16      1.0000 0.14242  0.33968  0.12820  Biso   1.000  C
  H11      1.0000 0.12210  0.32300  0.09330  Biso   1.000  H
  C17      1.0000 0.12551  0.37135  0.15240  Biso   1.000  C
  H12      1.0000 0.09420  0.37620  0.13180  Biso   1.000  H
  C18      1.0000 0.20606  0.29673  0.13330  Biso   1.000  C
  C19      1.0000 0.25242  0.28957  0.11900  Biso   1.000  C
  H13      1.0000 0.27420  0.30690  0.12290  Biso   1.000  H
  C20      1.0000 0.26562  0.25718  0.09930  Biso   1.000  C
  H14      1.0000 0.29670  0.25340  0.08890  Biso   1.000  H
  C21      1.0000 0.19454  0.23729  0.11150  Biso   1.000  C
  H15      1.0000 0.17390  0.21920  0.11100  Biso   1.000  H
  C22      1.0000 0.17759  0.26842  0.13070  Biso   1.000  C
  H16      1.0000 0.14630  0.27100  0.14240  Biso   1.000  H
  C23      1.0000 0.09787  0.42898  0.31630  Biso   1.000  C
  C24      1.0000 0.06706  0.45563  0.30770  Biso   1.000  C
  H17      1.0000 0.07150  0.47350  0.25140  Biso   1.000  H
  C25      1.0000 0.02924  0.45635  0.38180  Biso   1.000  C
  H18      1.0000 0.01010  0.47530  0.37770  Biso   1.000  H
  C26      1.0000 0.01963  0.42985  0.46060  Biso   1.000  C
  C27      1.0000 0.04945  0.40212  0.46290  Biso   1.000  C
  H19      1.0000 0.04280  0.38310  0.51110  Biso   1.000  H
  C28      1.0000 0.08811  0.40193  0.39680  Biso   1.000  C
  H20      1.0000 0.10820  0.38350  0.40540  Biso   1.000  H
  C29      1.0000 0.24652  0.60699  0.54910  Biso   1.000  C
  H21      1.0000 0.27760  0.61340  0.55990  Biso   1.000  H
  C30      1.0000 0.23535  0.57474  0.58430  Biso   1.000  C
  H22      1.0000 0.25870  0.56010  0.61800  Biso   1.000  H
  C31      1.0000 0.18985  0.56361  0.57030  Biso   1.000  C
  C32      1.0000 0.15758  0.58702  0.51800  Biso   1.000  C
  H23      1.0000 0.12630  0.58130  0.50630  Biso   1.000  H
  C33      1.0000 0.17147  0.61844  0.48350  Biso   1.000  C
  H24      1.0000 0.14890  0.63310  0.44560  Biso   1.000  H
  C34      1.0000 0.17758  0.52912  0.61160  Biso   1.000  C
  C35      1.0000 0.21003  0.50572  0.66060  Biso   1.000  C
  H25      1.0000 0.24140  0.51120  0.66590  Biso   1.000  H
  C36      1.0000 0.19682  0.47454  0.70160  Biso   1.000  C
  H26      1.0000 0.21950  0.45940  0.73570  Biso   1.000  H
  C37      1.0000 0.15079  0.46487  0.69370  Biso   1.000  C
  C38      1.0000 0.11721  0.48726  0.63940  Biso   1.000  C
  H27      1.0000 0.08620  0.48080  0.62950  Biso   1.000  H
  C39      1.0000 0.12966  0.51855  0.60060  Biso   1.000  C
  H28      1.0000 0.10680  0.53350  0.56630  Biso   1.000  H
  C40      1.0000 0.16413  0.40370  0.72450  Biso   1.000  C
  C41      1.0000 0.17052  0.37877  0.82460  Biso   1.000  C
  H29      1.0000 0.16050  0.38270  0.90640  Biso   1.000  H
  C42      1.0000 0.19157  0.34905  0.79850  Biso   1.000  C
  H30      1.0000 0.19550  0.33280  0.86430  Biso   1.000  H
  C43      1.0000 0.20751  0.34178  0.67860  Biso   1.000  C
  C44      1.0000 0.20334  0.36794  0.58350  Biso   1.000  C
  H31      1.0000 0.21480  0.36450  0.50320  Biso   1.000  H
  C45      1.0000 0.18288  0.39784  0.60820  Biso   1.000  C
  H32      1.0000 0.18150  0.41480  0.54530  Biso   1.000  H
  C46      1.0000 0.22567  0.30848  0.64860  Biso   1.000  C
  C47      1.0000 0.22560  0.28164  0.73730  Biso   1.000  C
  H33      1.0000 0.21590  0.28560  0.81950  Biso   1.000  H
  C48      1.0000 0.23944  0.24964  0.70630  Biso   1.000  C
  H34      1.0000 0.23930  0.23270  0.76890  Biso   1.000  H
  C49      1.0000 0.25170  0.26694  0.50270  Biso   1.000  C
  H35      1.0000 0.26110  0.26210  0.42080  Biso   1.000  H
  C50      1.0000 0.23740  0.29909  0.52460  Biso   1.000  C
  H36      1.0000 0.23550  0.31490  0.45710  Biso   1.000  H
  C51      1.0000 0.09712  0.43185  0.81430  Biso   1.000  C
  C52      1.0000 0.08577  0.45918  0.88950  Biso   1.000  C
  H37      1.0000 0.10450  0.47840  0.89360  Biso   1.000  H
  C53      1.0000 0.04740  0.45848  0.95810  Biso   1.000  C
  H38      1.0000 0.03960  0.47770  0.00350  Biso   1.000  H
  C54      1.0000 0.02022  0.42985  0.96100  Biso   1.000  C
  C55      1.0000 0.03232  0.40277  0.88890  Biso   1.000  C
  H39      1.0000 0.01450  0.38320  0.88920  Biso   1.000  H
  C56      1.0000 0.07028  0.40324  0.81470  Biso   1.000  C
  H40      1.0000 0.07720  0.38440  0.76610  Biso   1.000  H
  C57      1.0000 0.32494  0.67280  0.47250  Biso   1.000  C
  C58      1.0000 0.37727  0.66897  0.48020  Biso   1.000  C
  C59      1.0000 0.40002  0.66138  0.37290  Biso   1.000  C
  H41      1.0000 0.38250  0.65770  0.29330  Biso   1.000  H
  C60      1.0000 0.44696  0.65907  0.37800  Biso   1.000  C
  H42      1.0000 0.46080  0.65400  0.30240  Biso   1.000  H
  C61      1.0000 0.47492  0.66420  0.49630  Biso   1.000  C
  C62      1.0000 0.45155  0.67270  0.60650  Biso   1.000  C
  H43      1.0000 0.46880  0.67670  0.68630  Biso   1.000  H
  C63      1.0000 0.40348  0.67521  0.59820  Biso   1.000  C
  H44      1.0000 0.38890  0.68110  0.67160  Biso   1.000  H
  C64      1.0000 0.16776  0.69027  0.18350  Biso   1.000  C
  C65      1.0000 0.11794  0.69387  0.12670  Biso   1.000  C
  C66      1.0000 0.08388  0.68970  0.20650  Biso   1.000  C
  H45      1.0000 0.09140  0.68390  0.29380  Biso   1.000  H
  C67      1.0000 0.03739  0.69400  0.15760  Biso   1.000  C
  H46      1.0000 0.01430  0.69250  0.21410  Biso   1.000  H
  C68      1.0000 0.02533  0.70061  0.02740  Biso   1.000  C
  C69      1.0000 0.06066  0.70503  0.94700  Biso   1.000  C
  H47      1.0000 0.05340  0.71000  0.85880  Biso   1.000  H
  C70      1.0000 0.10577  0.70218  0.99650  Biso   1.000  C
  H48      1.0000 0.12900  0.70590  0.94190  Biso   1.000  H
  C71      1.0000 0.16869  0.68669  0.69130  Biso   1.000  C
  C72      1.0000 0.11787  0.68840  0.63360  Biso   1.000  C
  C73      1.0000 0.08964  0.66028  0.64400  Biso   1.000  C
  H49      1.0000 0.10190  0.64130  0.68860  Biso   1.000  H
  C74      1.0000 0.04444  0.65957  0.59090  Biso   1.000  C
  H50      1.0000 0.02680  0.64000  0.59550  Biso   1.000  H
  C75      1.0000 0.02457  0.68912  0.52850  Biso   1.000  C
  C76      1.0000 0.05225  0.71572  0.52050  Biso   1.000  C
  H51      1.0000 0.04010  0.73540  0.48070  Biso   1.000  H
  C77      1.0000 0.09947  0.71527  0.57040  Biso   1.000  C
  H52      1.0000 0.11800  0.73410  0.55870  Biso   1.000  H
  Cd3      1.0000 0.73966  0.17604  0.94463  Biso   1.000  Cd
  Cd4      1.0000 0.73216  0.18634  0.45716  Biso   1.000  Cd
  O7       1.0000 0.80626  0.17952  0.57230  Biso   1.000  O
  O8       1.0000 0.80185  0.16966  0.36290  Biso   1.000  O
  O9       1.0000 0.67394  0.18258  0.30280  Biso   1.000  O
  O10      1.0000 0.69887  0.19567  0.11080  Biso   1.000  O
  O11      1.0000 0.67733  0.17064  0.79460  Biso   1.000  O
  O12      1.0000 0.69766  0.20381  0.63400  Biso   1.000  O
  N7       1.0000 0.72594  0.12129  0.01340  Biso   1.000  N
  N8       1.0000 0.63824  0.92779  0.24480  Biso   1.000  N
  N9       1.0000 0.73753  0.73044  0.09360  Biso   1.000  N
  N10      1.0000 0.71525  0.12965  0.50020  Biso   1.000  N
  N11      1.0000 0.63690  0.93360  0.74410  Biso   1.000  N
  N12      1.0000 0.75320  0.74201  0.58890  Biso   1.000  N
  C78      1.0000 0.72947  0.11289  0.13870  Biso   1.000  C
  H53      1.0000 0.73840  0.12960  0.20000  Biso   1.000  H
  C79      1.0000 0.72084  0.08161  0.18280  Biso   1.000  C
  H54      1.0000 0.72420  0.07730  0.27220  Biso   1.000  H
  C80      1.0000 0.70707  0.05583  0.09620  Biso   1.000  C
  C81      1.0000 0.70300  0.06477  0.96460  Biso   1.000  C
  H55      1.0000 0.69430  0.04860  0.90130  Biso   1.000  H
  C82      1.0000 0.71180  0.09758  0.92730  Biso   1.000  C
  H56      1.0000 0.70770  0.10320  0.83900  Biso   1.000  H
  C83      1.0000 0.69288  0.02138  0.13870  Biso   1.000  C
  C84      1.0000 0.67803  0.01673  0.26060  Biso   1.000  C
  H57      1.0000 0.67890  0.03490  0.31820  Biso   1.000  H
  C85      1.0000 0.66192  0.98592  0.30020  Biso   1.000  C
  H58      1.0000 0.65260  0.98350  0.38370  Biso   1.000  H
  C86      1.0000 0.65957  0.95811  0.21420  Biso   1.000  C
  C87      1.0000 0.67828  0.96247  0.09430  Biso   1.000  C
  H59      1.0000 0.67960  0.94410  0.03850  Biso   1.000  H
  C88      1.0000 0.69463  0.99341  0.05760  Biso   1.000  C
  H60      1.0000 0.70690  0.99560  0.97780  Biso   1.000  H
  C89      1.0000 0.65561  0.89637  0.20820  Biso   1.000  C
  C90      1.0000 0.70178  0.88910  0.22900  Biso   1.000  C
  H61      1.0000 0.72230  0.90590  0.26210  Biso   1.000  H
  C91      1.0000 0.71904  0.85735  0.20220  Biso   1.000  C
  H62      1.0000 0.75070  0.85300  0.21620  Biso   1.000  H
  C92      1.0000 0.68862  0.83212  0.15450  Biso   1.000  C
  C93      1.0000 0.64242  0.83968  0.12820  Biso   1.000  C
  H63      1.0000 0.62210  0.82300  0.09330  Biso   1.000  H
  C94      1.0000 0.62551  0.87135  0.15240  Biso   1.000  C
  H64      1.0000 0.59420  0.87620  0.13180  Biso   1.000  H
  C95      1.0000 0.70606  0.79673  0.13330  Biso   1.000  C
  C96      1.0000 0.75242  0.78957  0.11900  Biso   1.000  C
  H65      1.0000 0.77420  0.80690  0.12290  Biso   1.000  H
  C97      1.0000 0.76562  0.75718  0.09930  Biso   1.000  C
  H66      1.0000 0.79670  0.75340  0.08890  Biso   1.000  H
  C98      1.0000 0.69454  0.73729  0.11150  Biso   1.000  C
  H67      1.0000 0.67390  0.71920  0.11100  Biso   1.000  H
  C99      1.0000 0.67759  0.76842  0.13070  Biso   1.000  C
  H68      1.0000 0.64630  0.77100  0.14240  Biso   1.000  H
  C100     1.0000 0.59787  0.92898  0.31630  Biso   1.000  C
  C101     1.0000 0.56706  0.95563  0.30770  Biso   1.000  C
  H69      1.0000 0.57150  0.97350  0.25140  Biso   1.000  H
  C102     1.0000 0.52924  0.95635  0.38180  Biso   1.000  C
  H70      1.0000 0.51010  0.97530  0.37770  Biso   1.000  H
  C103     1.0000 0.51963  0.92985  0.46060  Biso   1.000  C
  C104     1.0000 0.54945  0.90212  0.46290  Biso   1.000  C
  H71      1.0000 0.54280  0.88310  0.51110  Biso   1.000  H
  C105     1.0000 0.58811  0.90193  0.39680  Biso   1.000  C
  H72      1.0000 0.60820  0.88350  0.40540  Biso   1.000  H
  C106     1.0000 0.74652  0.10699  0.54910  Biso   1.000  C
  H73      1.0000 0.77760  0.11340  0.55990  Biso   1.000  H
  C107     1.0000 0.73535  0.07474  0.58430  Biso   1.000  C
  H74      1.0000 0.75870  0.06010  0.61800  Biso   1.000  H
  C108     1.0000 0.68985  0.06361  0.57030  Biso   1.000  C
  C109     1.0000 0.65758  0.08702  0.51800  Biso   1.000  C
  H75      1.0000 0.62630  0.08130  0.50630  Biso   1.000  H
  C110     1.0000 0.67147  0.11844  0.48350  Biso   1.000  C
  H76      1.0000 0.64890  0.13310  0.44560  Biso   1.000  H
  C111     1.0000 0.67758  0.02912  0.61160  Biso   1.000  C
  C112     1.0000 0.71003  0.00572  0.66060  Biso   1.000  C
  H77      1.0000 0.74140  0.01120  0.66590  Biso   1.000  H
  C113     1.0000 0.69682  0.97454  0.70160  Biso   1.000  C
  H78      1.0000 0.71950  0.95940  0.73570  Biso   1.000  H
  C114     1.0000 0.65079  0.96487  0.69370  Biso   1.000  C
  C115     1.0000 0.61721  0.98726  0.63940  Biso   1.000  C
  H79      1.0000 0.58620  0.98080  0.62950  Biso   1.000  H
  C116     1.0000 0.62966  0.01855  0.60060  Biso   1.000  C
  H80      1.0000 0.60680  0.03350  0.56630  Biso   1.000  H
  C117     1.0000 0.66413  0.90370  0.72450  Biso   1.000  C
  C118     1.0000 0.67052  0.87877  0.82460  Biso   1.000  C
  H81      1.0000 0.66050  0.88270  0.90640  Biso   1.000  H
  C119     1.0000 0.69157  0.84905  0.79850  Biso   1.000  C
  H82      1.0000 0.69550  0.83280  0.86430  Biso   1.000  H
  C120     1.0000 0.70751  0.84178  0.67860  Biso   1.000  C
  C121     1.0000 0.70334  0.86794  0.58350  Biso   1.000  C
  H83      1.0000 0.71480  0.86450  0.50320  Biso   1.000  H
  C122     1.0000 0.68288  0.89784  0.60820  Biso   1.000  C
  H84      1.0000 0.68150  0.91480  0.54530  Biso   1.000  H
  C123     1.0000 0.72567  0.80848  0.64860  Biso   1.000  C
  C124     1.0000 0.72560  0.78164  0.73730  Biso   1.000  C
  H85      1.0000 0.71590  0.78560  0.81950  Biso   1.000  H
  C125     1.0000 0.73944  0.74964  0.70630  Biso   1.000  C
  H86      1.0000 0.73930  0.73270  0.76890  Biso   1.000  H
  C126     1.0000 0.75170  0.76694  0.50270  Biso   1.000  C
  H87      1.0000 0.76110  0.76210  0.42080  Biso   1.000  H
  C127     1.0000 0.73740  0.79909  0.52460  Biso   1.000  C
  H88      1.0000 0.73550  0.81490  0.45710  Biso   1.000  H
  C128     1.0000 0.59712  0.93185  0.81430  Biso   1.000  C
  C129     1.0000 0.58577  0.95918  0.88950  Biso   1.000  C
  H89      1.0000 0.60450  0.97840  0.89360  Biso   1.000  H
  C130     1.0000 0.54740  0.95848  0.95810  Biso   1.000  C
  H90      1.0000 0.53960  0.97770  0.00350  Biso   1.000  H
  C131     1.0000 0.52022  0.92985  0.96100  Biso   1.000  C
  C132     1.0000 0.53232  0.90277  0.88890  Biso   1.000  C
  H91      1.0000 0.51450  0.88320  0.88920  Biso   1.000  H
  C133     1.0000 0.57028  0.90324  0.81470  Biso   1.000  C
  H92      1.0000 0.57720  0.88440  0.76610  Biso   1.000  H
  C134     1.0000 0.82494  0.17280  0.47250  Biso   1.000  C
  C135     1.0000 0.87727  0.16897  0.48020  Biso   1.000  C
  C136     1.0000 0.90002  0.16138  0.37290  Biso   1.000  C
  H93      1.0000 0.88250  0.15770  0.29330  Biso   1.000  H
  C137     1.0000 0.94696  0.15907  0.37800  Biso   1.000  C
  H94      1.0000 0.96080  0.15400  0.30240  Biso   1.000  H
  C138     1.0000 0.97492  0.16420  0.49630  Biso   1.000  C
  C139     1.0000 0.95155  0.17270  0.60650  Biso   1.000  C
  H95      1.0000 0.96880  0.17670  0.68630  Biso   1.000  H
  C140     1.0000 0.90348  0.17521  0.59820  Biso   1.000  C
  H96      1.0000 0.88890  0.18110  0.67160  Biso   1.000  H
  C141     1.0000 0.66776  0.19027  0.18350  Biso   1.000  C
  C142     1.0000 0.61794  0.19387  0.12670  Biso   1.000  C
  C143     1.0000 0.58388  0.18970  0.20650  Biso   1.000  C
  H97      1.0000 0.59140  0.18390  0.29380  Biso   1.000  H
  C144     1.0000 0.53739  0.19400  0.15760  Biso   1.000  C
  H98      1.0000 0.51430  0.19250  0.21410  Biso   1.000  H
  C145     1.0000 0.52533  0.20061  0.02740  Biso   1.000  C
  C146     1.0000 0.56066  0.20503  0.94700  Biso   1.000  C
  H99      1.0000 0.55340  0.21000  0.85880  Biso   1.000  H
  C147     1.0000 0.60577  0.20218  0.99650  Biso   1.000  C
  H100     1.0000 0.62900  0.20590  0.94190  Biso   1.000  H
  C148     1.0000 0.66869  0.18669  0.69130  Biso   1.000  C
  C149     1.0000 0.61787  0.18840  0.63360  Biso   1.000  C
  C150     1.0000 0.58964  0.16028  0.64400  Biso   1.000  C
  H101     1.0000 0.60190  0.14130  0.68860  Biso   1.000  H
  C151     1.0000 0.54444  0.15957  0.59090  Biso   1.000  C
  H102     1.0000 0.52680  0.14000  0.59550  Biso   1.000  H
  C152     1.0000 0.52457  0.18912  0.52850  Biso   1.000  C
  C153     1.0000 0.55225  0.21572  0.52050  Biso   1.000  C
  H103     1.0000 0.54010  0.23540  0.48070  Biso   1.000  H
  C154     1.0000 0.59947  0.21527  0.57040  Biso   1.000  C
  H104     1.0000 0.61800  0.23410  0.55870  Biso   1.000  H
  Cd5      1.0000 0.76034  0.67604  0.05537  Biso   1.000  Cd
  Cd6      1.0000 0.76784  0.68634  0.54284  Biso   1.000  Cd
  O13      1.0000 0.69374  0.67952  0.42770  Biso   1.000  O
  O14      1.0000 0.69815  0.66966  0.63710  Biso   1.000  O
  O15      1.0000 0.82606  0.68258  0.69720  Biso   1.000  O
  O16      1.0000 0.80113  0.69567  0.88920  Biso   1.000  O
  O17      1.0000 0.82267  0.67064  0.20540  Biso   1.000  O
  O18      1.0000 0.80234  0.70381  0.36600  Biso   1.000  O
  N13      1.0000 0.77406  0.62129  0.98660  Biso   1.000  N
  N14      1.0000 0.86176  0.42779  0.75520  Biso   1.000  N
  N15      1.0000 0.76247  0.23044  0.90640  Biso   1.000  N
  N16      1.0000 0.78475  0.62965  0.49980  Biso   1.000  N
  N17      1.0000 0.86310  0.43360  0.25590  Biso   1.000  N
  N18      1.0000 0.74680  0.24201  0.41110  Biso   1.000  N
  C155     1.0000 0.77053  0.61289  0.86130  Biso   1.000  C
  H105     1.0000 0.76160  0.62960  0.80000  Biso   1.000  H
  C156     1.0000 0.77916  0.58161  0.81720  Biso   1.000  C
  H106     1.0000 0.77580  0.57730  0.72780  Biso   1.000  H
  C157     1.0000 0.79293  0.55583  0.90380  Biso   1.000  C
  C158     1.0000 0.79700  0.56477  0.03540  Biso   1.000  C
  H107     1.0000 0.80570  0.54860  0.09870  Biso   1.000  H
  C159     1.0000 0.78820  0.59758  0.07270  Biso   1.000  C
  H108     1.0000 0.79230  0.60320  0.16100  Biso   1.000  H
  C160     1.0000 0.80712  0.52138  0.86130  Biso   1.000  C
  C161     1.0000 0.82197  0.51673  0.73940  Biso   1.000  C
  H109     1.0000 0.82110  0.53490  0.68180  Biso   1.000  H
  C162     1.0000 0.83808  0.48592  0.69980  Biso   1.000  C
  H110     1.0000 0.84740  0.48350  0.61630  Biso   1.000  H
  C163     1.0000 0.84043  0.45811  0.78580  Biso   1.000  C
  C164     1.0000 0.82172  0.46247  0.90570  Biso   1.000  C
  H111     1.0000 0.82040  0.44410  0.96150  Biso   1.000  H
  C165     1.0000 0.80537  0.49341  0.94240  Biso   1.000  C
  H112     1.0000 0.79310  0.49560  0.02220  Biso   1.000  H
  C166     1.0000 0.84439  0.39637  0.79180  Biso   1.000  C
  C167     1.0000 0.79822  0.38910  0.77100  Biso   1.000  C
  H113     1.0000 0.77770  0.40590  0.73790  Biso   1.000  H
  C168     1.0000 0.78096  0.35735  0.79780  Biso   1.000  C
  H114     1.0000 0.74930  0.35300  0.78380  Biso   1.000  H
  C169     1.0000 0.81138  0.33212  0.84550  Biso   1.000  C
  C170     1.0000 0.85758  0.33968  0.87180  Biso   1.000  C
  H115     1.0000 0.87790  0.32300  0.90670  Biso   1.000  H
  C171     1.0000 0.87449  0.37135  0.84760  Biso   1.000  C
  H116     1.0000 0.90580  0.37620  0.86820  Biso   1.000  H
  C172     1.0000 0.79394  0.29673  0.86670  Biso   1.000  C
  C173     1.0000 0.74758  0.28957  0.88100  Biso   1.000  C
  H117     1.0000 0.72580  0.30690  0.87710  Biso   1.000  H
  C174     1.0000 0.73438  0.25718  0.90070  Biso   1.000  C
  H118     1.0000 0.70330  0.25340  0.91110  Biso   1.000  H
  C175     1.0000 0.80546  0.23729  0.88850  Biso   1.000  C
  H119     1.0000 0.82610  0.21920  0.88900  Biso   1.000  H
  C176     1.0000 0.82241  0.26842  0.86930  Biso   1.000  C
  H120     1.0000 0.85370  0.27100  0.85760  Biso   1.000  H
  C177     1.0000 0.90213  0.42898  0.68370  Biso   1.000  C
  C178     1.0000 0.93294  0.45563  0.69230  Biso   1.000  C
  H121     1.0000 0.92850  0.47350  0.74860  Biso   1.000  H
  C179     1.0000 0.97076  0.45635  0.61820  Biso   1.000  C
  H122     1.0000 0.98990  0.47530  0.62230  Biso   1.000  H
  C180     1.0000 0.98037  0.42985  0.53940  Biso   1.000  C
  C181     1.0000 0.95055  0.40212  0.53710  Biso   1.000  C
  H123     1.0000 0.95720  0.38310  0.48890  Biso   1.000  H
  C182     1.0000 0.91189  0.40193  0.60320  Biso   1.000  C
  H124     1.0000 0.89180  0.38350  0.59460  Biso   1.000  H
  C183     1.0000 0.75348  0.60699  0.45090  Biso   1.000  C
  H125     1.0000 0.72240  0.61340  0.44010  Biso   1.000  H
  C184     1.0000 0.76465  0.57474  0.41570  Biso   1.000  C
  H126     1.0000 0.74130  0.56010  0.38200  Biso   1.000  H
  C185     1.0000 0.81015  0.56361  0.42970  Biso   1.000  C
  C186     1.0000 0.84242  0.58702  0.48200  Biso   1.000  C
  H127     1.0000 0.87370  0.58130  0.49370  Biso   1.000  H
  C187     1.0000 0.82853  0.61844  0.51650  Biso   1.000  C
  H128     1.0000 0.85110  0.63310  0.55440  Biso   1.000  H
  C188     1.0000 0.82242  0.52912  0.38840  Biso   1.000  C
  C189     1.0000 0.78997  0.50572  0.33940  Biso   1.000  C
  H129     1.0000 0.75860  0.51120  0.33410  Biso   1.000  H
  C190     1.0000 0.80318  0.47454  0.29840  Biso   1.000  C
  H130     1.0000 0.78050  0.45940  0.26430  Biso   1.000  H
  C191     1.0000 0.84921  0.46487  0.30630  Biso   1.000  C
  C192     1.0000 0.88279  0.48726  0.36060  Biso   1.000  C
  H131     1.0000 0.91380  0.48080  0.37050  Biso   1.000  H
  C193     1.0000 0.87034  0.51855  0.39940  Biso   1.000  C
  H132     1.0000 0.89320  0.53350  0.43370  Biso   1.000  H
  C194     1.0000 0.83587  0.40370  0.27550  Biso   1.000  C
  C195     1.0000 0.82948  0.37877  0.17540  Biso   1.000  C
  H133     1.0000 0.83950  0.38270  0.09360  Biso   1.000  H
  C196     1.0000 0.80843  0.34905  0.20150  Biso   1.000  C
  H134     1.0000 0.80450  0.33280  0.13570  Biso   1.000  H
  C197     1.0000 0.79249  0.34178  0.32140  Biso   1.000  C
  C198     1.0000 0.79666  0.36794  0.41650  Biso   1.000  C
  H135     1.0000 0.78520  0.36450  0.49680  Biso   1.000  H
  C199     1.0000 0.81712  0.39784  0.39180  Biso   1.000  C
  H136     1.0000 0.81850  0.41480  0.45470  Biso   1.000  H
  C200     1.0000 0.77433  0.30848  0.35140  Biso   1.000  C
  C201     1.0000 0.77440  0.28164  0.26270  Biso   1.000  C
  H137     1.0000 0.78410  0.28560  0.18050  Biso   1.000  H
  C202     1.0000 0.76056  0.24964  0.29370  Biso   1.000  C
  H138     1.0000 0.76070  0.23270  0.23110  Biso   1.000  H
  C203     1.0000 0.74830  0.26694  0.49730  Biso   1.000  C
  H139     1.0000 0.73890  0.26210  0.57920  Biso   1.000  H
  C204     1.0000 0.76260  0.29909  0.47540  Biso   1.000  C
  H140     1.0000 0.76450  0.31490  0.54290  Biso   1.000  H
  C205     1.0000 0.90288  0.43185  0.18570  Biso   1.000  C
  C206     1.0000 0.91423  0.45918  0.11050  Biso   1.000  C
  H141     1.0000 0.89550  0.47840  0.10640  Biso   1.000  H
  C207     1.0000 0.95260  0.45848  0.04190  Biso   1.000  C
  H142     1.0000 0.96040  0.47770  0.99650  Biso   1.000  H
  C208     1.0000 0.97978  0.42985  0.03900  Biso   1.000  C
  C209     1.0000 0.96768  0.40277  0.11110  Biso   1.000  C
  H143     1.0000 0.98550  0.38320  0.11080  Biso   1.000  H
  C210     1.0000 0.92972  0.40324  0.18530  Biso   1.000  C
  H144     1.0000 0.92280  0.38440  0.23390  Biso   1.000  H
  C211     1.0000 0.67506  0.67280  0.52750  Biso   1.000  C
  C212     1.0000 0.62273  0.66897  0.51980  Biso   1.000  C
  C213     1.0000 0.59998  0.66138  0.62710  Biso   1.000  C
  H145     1.0000 0.61750  0.65770  0.70670  Biso   1.000  H
  C214     1.0000 0.55304  0.65907  0.62200  Biso   1.000  C
  H146     1.0000 0.53920  0.65400  0.69760  Biso   1.000  H
  C215     1.0000 0.52508  0.66420  0.50370  Biso   1.000  C
  C216     1.0000 0.54845  0.67270  0.39350  Biso   1.000  C
  H147     1.0000 0.53120  0.67670  0.31370  Biso   1.000  H
  C217     1.0000 0.59652  0.67521  0.40180  Biso   1.000  C
  H148     1.0000 0.61110  0.68110  0.32840  Biso   1.000  H
  C218     1.0000 0.83224  0.69027  0.81650  Biso   1.000  C
  C219     1.0000 0.88206  0.69387  0.87330  Biso   1.000  C
  C220     1.0000 0.91612  0.68970  0.79350  Biso   1.000  C
  H149     1.0000 0.90860  0.68390  0.70620  Biso   1.000  H
  C221     1.0000 0.96261  0.69400  0.84240  Biso   1.000  C
  H150     1.0000 0.98570  0.69250  0.78590  Biso   1.000  H
  C222     1.0000 0.97467  0.70061  0.97260  Biso   1.000  C
  C223     1.0000 0.93934  0.70503  0.05300  Biso   1.000  C
  H151     1.0000 0.94660  0.71000  0.14120  Biso   1.000  H
  C224     1.0000 0.89423  0.70218  0.00350  Biso   1.000  C
  H152     1.0000 0.87100  0.70590  0.05810  Biso   1.000  H
  C225     1.0000 0.83131  0.68669  0.30870  Biso   1.000  C
  C226     1.0000 0.88213  0.68840  0.36640  Biso   1.000  C
  C227     1.0000 0.91036  0.66028  0.35600  Biso   1.000  C
  H153     1.0000 0.89810  0.64130  0.31140  Biso   1.000  H
  C228     1.0000 0.95556  0.65957  0.40910  Biso   1.000  C
  H154     1.0000 0.97320  0.64000  0.40450  Biso   1.000  H
  C229     1.0000 0.97543  0.68912  0.47150  Biso   1.000  C
  C230     1.0000 0.94775  0.71572  0.47950  Biso   1.000  C
  H155     1.0000 0.95990  0.73540  0.51930  Biso   1.000  H
  C231     1.0000 0.90053  0.71527  0.42960  Biso   1.000  C
  H156     1.0000 0.88200  0.73410  0.44130  Biso   1.000  H
  Cd7      1.0000 0.26034  0.17604  0.05537  Biso   1.000  Cd
  Cd8      1.0000 0.26784  0.18634  0.54284  Biso   1.000  Cd
  O19      1.0000 0.19374  0.17952  0.42770  Biso   1.000  O
  O20      1.0000 0.19815  0.16966  0.63710  Biso   1.000  O
  O21      1.0000 0.32606  0.18258  0.69720  Biso   1.000  O
  O22      1.0000 0.30113  0.19567  0.88920  Biso   1.000  O
  O23      1.0000 0.32267  0.17064  0.20540  Biso   1.000  O
  O24      1.0000 0.30234  0.20381  0.36600  Biso   1.000  O
  N19      1.0000 0.27406  0.12129  0.98660  Biso   1.000  N
  N20      1.0000 0.36176  0.92779  0.75520  Biso   1.000  N
  N21      1.0000 0.26247  0.73044  0.90640  Biso   1.000  N
  N22      1.0000 0.28475  0.12965  0.49980  Biso   1.000  N
  N23      1.0000 0.36310  0.93360  0.25590  Biso   1.000  N
  N24      1.0000 0.24680  0.74201  0.41110  Biso   1.000  N
  C232     1.0000 0.27053  0.11289  0.86130  Biso   1.000  C
  H157     1.0000 0.26160  0.12960  0.80000  Biso   1.000  H
  C233     1.0000 0.27916  0.08161  0.81720  Biso   1.000  C
  H158     1.0000 0.27580  0.07730  0.72780  Biso   1.000  H
  C234     1.0000 0.29293  0.05583  0.90380  Biso   1.000  C
  C235     1.0000 0.29700  0.06477  0.03540  Biso   1.000  C
  H159     1.0000 0.30570  0.04860  0.09870  Biso   1.000  H
  C236     1.0000 0.28820  0.09758  0.07270  Biso   1.000  C
  H160     1.0000 0.29230  0.10320  0.16100  Biso   1.000  H
  C237     1.0000 0.30712  0.02138  0.86130  Biso   1.000  C
  C238     1.0000 0.32197  0.01673  0.73940  Biso   1.000  C
  H161     1.0000 0.32110  0.03490  0.68180  Biso   1.000  H
  C239     1.0000 0.33808  0.98592  0.69980  Biso   1.000  C
  H162     1.0000 0.34740  0.98350  0.61630  Biso   1.000  H
  C240     1.0000 0.34043  0.95811  0.78580  Biso   1.000  C
  C241     1.0000 0.32172  0.96247  0.90570  Biso   1.000  C
  H163     1.0000 0.32040  0.94410  0.96150  Biso   1.000  H
  C242     1.0000 0.30537  0.99341  0.94240  Biso   1.000  C
  H164     1.0000 0.29310  0.99560  0.02220  Biso   1.000  H
  C243     1.0000 0.34439  0.89637  0.79180  Biso   1.000  C
  C244     1.0000 0.29822  0.88910  0.77100  Biso   1.000  C
  H165     1.0000 0.27770  0.90590  0.73790  Biso   1.000  H
  C245     1.0000 0.28096  0.85735  0.79780  Biso   1.000  C
  H166     1.0000 0.24930  0.85300  0.78380  Biso   1.000  H
  C246     1.0000 0.31138  0.83212  0.84550  Biso   1.000  C
  C247     1.0000 0.35758  0.83968  0.87180  Biso   1.000  C
  H167     1.0000 0.37790  0.82300  0.90670  Biso   1.000  H
  C248     1.0000 0.37449  0.87135  0.84760  Biso   1.000  C
  H168     1.0000 0.40580  0.87620  0.86820  Biso   1.000  H
  C249     1.0000 0.29394  0.79673  0.86670  Biso   1.000  C
  C250     1.0000 0.24758  0.78957  0.88100  Biso   1.000  C
  H169     1.0000 0.22580  0.80690  0.87710  Biso   1.000  H
  C251     1.0000 0.23438  0.75718  0.90070  Biso   1.000  C
  H170     1.0000 0.20330  0.75340  0.91110  Biso   1.000  H
  C252     1.0000 0.30546  0.73729  0.88850  Biso   1.000  C
  H171     1.0000 0.32610  0.71920  0.88900  Biso   1.000  H
  C253     1.0000 0.32241  0.76842  0.86930  Biso   1.000  C
  H172     1.0000 0.35370  0.77100  0.85760  Biso   1.000  H
  C254     1.0000 0.40213  0.92898  0.68370  Biso   1.000  C
  C255     1.0000 0.43294  0.95563  0.69230  Biso   1.000  C
  H173     1.0000 0.42850  0.97350  0.74860  Biso   1.000  H
  C256     1.0000 0.47076  0.95635  0.61820  Biso   1.000  C
  H174     1.0000 0.48990  0.97530  0.62230  Biso   1.000  H
  C257     1.0000 0.48037  0.92985  0.53940  Biso   1.000  C
  C258     1.0000 0.45055  0.90212  0.53710  Biso   1.000  C
  H175     1.0000 0.45720  0.88310  0.48890  Biso   1.000  H
  C259     1.0000 0.41189  0.90193  0.60320  Biso   1.000  C
  H176     1.0000 0.39180  0.88350  0.59460  Biso   1.000  H
  C260     1.0000 0.25348  0.10699  0.45090  Biso   1.000  C
  H177     1.0000 0.22240  0.11340  0.44010  Biso   1.000  H
  C261     1.0000 0.26465  0.07474  0.41570  Biso   1.000  C
  H178     1.0000 0.24130  0.06010  0.38200  Biso   1.000  H
  C262     1.0000 0.31015  0.06361  0.42970  Biso   1.000  C
  C263     1.0000 0.34242  0.08702  0.48200  Biso   1.000  C
  H179     1.0000 0.37370  0.08130  0.49370  Biso   1.000  H
  C264     1.0000 0.32853  0.11844  0.51650  Biso   1.000  C
  H180     1.0000 0.35110  0.13310  0.55440  Biso   1.000  H
  C265     1.0000 0.32242  0.02912  0.38840  Biso   1.000  C
  C266     1.0000 0.28997  0.00572  0.33940  Biso   1.000  C
  H181     1.0000 0.25860  0.01120  0.33410  Biso   1.000  H
  C267     1.0000 0.30318  0.97454  0.29840  Biso   1.000  C
  H182     1.0000 0.28050  0.95940  0.26430  Biso   1.000  H
  C268     1.0000 0.34921  0.96487  0.30630  Biso   1.000  C
  C269     1.0000 0.38279  0.98726  0.36060  Biso   1.000  C
  H183     1.0000 0.41380  0.98080  0.37050  Biso   1.000  H
  C270     1.0000 0.37034  0.01855  0.39940  Biso   1.000  C
  H184     1.0000 0.39320  0.03350  0.43370  Biso   1.000  H
  C271     1.0000 0.33587  0.90370  0.27550  Biso   1.000  C
  C272     1.0000 0.32948  0.87877  0.17540  Biso   1.000  C
  H185     1.0000 0.33950  0.88270  0.09360  Biso   1.000  H
  C273     1.0000 0.30843  0.84905  0.20150  Biso   1.000  C
  H186     1.0000 0.30450  0.83280  0.13570  Biso   1.000  H
  C274     1.0000 0.29249  0.84178  0.32140  Biso   1.000  C
  C275     1.0000 0.29666  0.86794  0.41650  Biso   1.000  C
  H187     1.0000 0.28520  0.86450  0.49680  Biso   1.000  H
  C276     1.0000 0.31712  0.89784  0.39180  Biso   1.000  C
  H188     1.0000 0.31850  0.91480  0.45470  Biso   1.000  H
  C277     1.0000 0.27433  0.80848  0.35140  Biso   1.000  C
  C278     1.0000 0.27440  0.78164  0.26270  Biso   1.000  C
  H189     1.0000 0.28410  0.78560  0.18050  Biso   1.000  H
  C279     1.0000 0.26056  0.74964  0.29370  Biso   1.000  C
  H190     1.0000 0.26070  0.73270  0.23110  Biso   1.000  H
  C280     1.0000 0.24830  0.76694  0.49730  Biso   1.000  C
  H191     1.0000 0.23890  0.76210  0.57920  Biso   1.000  H
  C281     1.0000 0.26260  0.79909  0.47540  Biso   1.000  C
  H192     1.0000 0.26450  0.81490  0.54290  Biso   1.000  H
  C282     1.0000 0.40288  0.93185  0.18570  Biso   1.000  C
  C283     1.0000 0.41423  0.95918  0.11050  Biso   1.000  C
  H193     1.0000 0.39550  0.97840  0.10640  Biso   1.000  H
  C284     1.0000 0.45260  0.95848  0.04190  Biso   1.000  C
  H194     1.0000 0.46040  0.97770  0.99650  Biso   1.000  H
  C285     1.0000 0.47978  0.92985  0.03900  Biso   1.000  C
  C286     1.0000 0.46768  0.90277  0.11110  Biso   1.000  C
  H195     1.0000 0.48550  0.88320  0.11080  Biso   1.000  H
  C287     1.0000 0.42972  0.90324  0.18530  Biso   1.000  C
  H196     1.0000 0.42280  0.88440  0.23390  Biso   1.000  H
  C288     1.0000 0.17506  0.17280  0.52750  Biso   1.000  C
  C289     1.0000 0.12273  0.16897  0.51980  Biso   1.000  C
  C290     1.0000 0.09998  0.16138  0.62710  Biso   1.000  C
  H197     1.0000 0.11750  0.15770  0.70670  Biso   1.000  H
  C291     1.0000 0.05304  0.15907  0.62200  Biso   1.000  C
  H198     1.0000 0.03920  0.15400  0.69760  Biso   1.000  H
  C292     1.0000 0.02508  0.16420  0.50370  Biso   1.000  C
  C293     1.0000 0.04845  0.17270  0.39350  Biso   1.000  C
  H199     1.0000 0.03120  0.17670  0.31370  Biso   1.000  H
  C294     1.0000 0.09652  0.17521  0.40180  Biso   1.000  C
  H200     1.0000 0.11110  0.18110  0.32840  Biso   1.000  H
  C295     1.0000 0.33224  0.19027  0.81650  Biso   1.000  C
  C296     1.0000 0.38206  0.19387  0.87330  Biso   1.000  C
  C297     1.0000 0.41612  0.18970  0.79350  Biso   1.000  C
  H201     1.0000 0.40860  0.18390  0.70620  Biso   1.000  H
  C298     1.0000 0.46261  0.19400  0.84240  Biso   1.000  C
  H202     1.0000 0.48570  0.19250  0.78590  Biso   1.000  H
  C299     1.0000 0.47467  0.20061  0.97260  Biso   1.000  C
  C300     1.0000 0.43934  0.20503  0.05300  Biso   1.000  C
  H203     1.0000 0.44660  0.21000  0.14120  Biso   1.000  H
  C301     1.0000 0.39423  0.20218  0.00350  Biso   1.000  C
  H204     1.0000 0.37100  0.20590  0.05810  Biso   1.000  H
  C302     1.0000 0.33131  0.18669  0.30870  Biso   1.000  C
  C303     1.0000 0.38213  0.18840  0.36640  Biso   1.000  C
  C304     1.0000 0.41036  0.16028  0.35600  Biso   1.000  C
  H205     1.0000 0.39810  0.14130  0.31140  Biso   1.000  H
  C305     1.0000 0.45556  0.15957  0.40910  Biso   1.000  C
  H206     1.0000 0.47320  0.14000  0.40450  Biso   1.000  H
  C306     1.0000 0.47543  0.18912  0.47150  Biso   1.000  C
  C307     1.0000 0.44775  0.21572  0.47950  Biso   1.000  C
  H207     1.0000 0.45990  0.23540  0.51930  Biso   1.000  H
  C308     1.0000 0.40053  0.21527  0.42960  Biso   1.000  C
  H208     1.0000 0.38200  0.23410  0.44130  Biso   1.000  H
