data_LOXWAY_clean
_audit_creation_date              2015-10-16
_audit_creation_method            'Materials Studio'
_symmetry_space_group_name_H-M    'P1'
_symmetry_Int_Tables_number       1
_symmetry_cell_setting            triclinic
loop_
_symmetry_equiv_pos_as_xyz
  x,y,z
_cell_length_a                    8.5771
_cell_length_b                    13.2483
_cell_length_c                    13.8125
_cell_angle_alpha                 118.6580
_cell_angle_beta                  90.0702
_cell_angle_gamma                 90.0000
loop_
_atom_site_label
_atom_site_type_symbol
_atom_site_fract_x
_atom_site_fract_y
_atom_site_fract_z
_atom_site_U_iso_or_equiv
_atom_site_adp_type
_atom_site_occupancy
Cu1    Cu    0.94992   0.00148   0.59090   0.01267  Uiso   1.00
Cu2    Cu    0.05008   0.99852   0.40910   0.01267  Uiso   1.00
Cu3    Cu    0.55008   0.41058   0.40910   0.01267  Uiso   1.00
Cu4    Cu    0.44992   0.58942   0.59090   0.01267  Uiso   1.00
H1     H     0.91010   0.58170   0.35700   0.01267  Uiso   1.00
H2     H     0.27490   0.26180   0.59900   0.01267  Uiso   1.00
H3     H     0.51450   0.88170   0.94260   0.01267  Uiso   1.00
H4     H     0.41010   0.77530   0.35700   0.01267  Uiso   1.00
H5     H     0.59210   0.84360   0.27300   0.01267  Uiso   1.00
H6     H     0.63280   0.65940   0.28940   0.01267  Uiso   1.00
H7     H     0.31210   0.19770   0.21500   0.01267  Uiso   1.00
H8     H     0.99500   0.57910   0.62880   0.01267  Uiso   1.00
H9     H     0.98550   0.93910   0.05740   0.01267  Uiso   1.00
H10    H     0.00820   0.37560   0.52540   0.01267  Uiso   1.00
H11    H     0.60170   0.14500   0.93100   0.01267  Uiso   1.00
H12    H     0.99180   0.62440   0.47460   0.01267  Uiso   1.00
H13    H     0.10170   0.78600   0.93100   0.01267  Uiso   1.00
H14    H     0.26510   0.64790   0.80280   0.01267  Uiso   1.00
H15    H     0.68790   0.80230   0.78500   0.01267  Uiso   1.00
H16    H     0.76510   0.15490   0.80280   0.01267  Uiso   1.00
H17    H     0.89830   0.21400   0.06900   0.01267  Uiso   1.00
H18    H     0.49180   0.85020   0.47460   0.01267  Uiso   1.00
H19    H     0.08990   0.41830   0.64300   0.01267  Uiso   1.00
H20    H     0.39830   0.85500   0.06900   0.01267  Uiso   1.00
H21    H     0.22510   0.66280   0.40100   0.01267  Uiso   1.00
H22    H     0.01450   0.06090   0.94260   0.01267  Uiso   1.00
H23    H     0.00500   0.42090   0.37120   0.01267  Uiso   1.00
H24    H     0.84860   0.82260   0.66100   0.01267  Uiso   1.00
H25    H     0.73490   0.35210   0.19720   0.01267  Uiso   1.00
H26    H     0.58990   0.22470   0.64300   0.01267  Uiso   1.00
H27    H     0.81210   0.01730   0.21500   0.01267  Uiso   1.00
H28    H     0.15140   0.17740   0.33900   0.01267  Uiso   1.00
H29    H     0.13280   0.63000   0.28940   0.01267  Uiso   1.00
H30    H     0.90790   0.57060   0.72700   0.01267  Uiso   1.00
H31    H     0.50500   0.95030   0.37120   0.01267  Uiso   1.00
H32    H     0.50820   0.14980   0.52540   0.01267  Uiso   1.00
H33    H     0.65140   0.16160   0.33900   0.01267  Uiso   1.00
H34    H     0.86720   0.37000   0.71060   0.01267  Uiso   1.00
H35    H     0.40790   0.15640   0.72700   0.01267  Uiso   1.00
H36    H     0.49500   0.04970   0.62880   0.01267  Uiso   1.00
H37    H     0.23490   0.84510   0.19720   0.01267  Uiso   1.00
H38    H     0.48550   0.11830   0.05740   0.01267  Uiso   1.00
H39    H     0.09210   0.42940   0.27300   0.01267  Uiso   1.00
H40    H     0.18790   0.98270   0.78500   0.01267  Uiso   1.00
H41    H     0.36720   0.34060   0.71060   0.01267  Uiso   1.00
H42    H     0.34860   0.83840   0.66100   0.01267  Uiso   1.00
H43    H     0.77490   0.33720   0.59900   0.01267  Uiso   1.00
H44    H     0.72510   0.73820   0.40100   0.01267  Uiso   1.00
C1     C     0.62120   0.70633   0.37042   0.01267  Uiso   1.00
C2     C     0.75020   0.08260   0.80020   0.01267  Uiso   1.00
C3     C     0.96770   0.00238   0.04444   0.01267  Uiso   1.00
C4     C     0.84760   0.20035   0.12274   0.01267  Uiso   1.00
C5     C     0.65240   0.07761   0.87726   0.01267  Uiso   1.00
C6     C     0.29690   0.12376   0.20862   0.01267  Uiso   1.00
C7     C     0.57100   0.62792   0.41624   0.01267  Uiso   1.00
C8     C     0.92900   0.21168   0.58376   0.01267  Uiso   1.00
C9     C     0.70310   0.87624   0.79138   0.01267  Uiso   1.00
C10    C     0.37880   0.29367   0.62958   0.01267  Uiso   1.00
C11    C     0.23550   0.47047   0.40712   0.01267  Uiso   1.00
C12    C     0.26450   0.06335   0.59288   0.01267  Uiso   1.00
C13    C     0.07100   0.78832   0.41624   0.01267  Uiso   1.00
C14    C     0.46770   0.04206   0.04444   0.01267  Uiso   1.00
C15    C     0.87880   0.33591   0.62958   0.01267  Uiso   1.00
C16    C     0.79690   0.08486   0.20862   0.01267  Uiso   1.00
C17    C     0.76450   0.52953   0.59288   0.01267  Uiso   1.00
C18    C     0.42900   0.37208   0.58376   0.01267  Uiso   1.00
C19    C     0.24980   0.91740   0.19980   0.01267  Uiso   1.00
C20    C     0.07920   0.46738   0.35404   0.01267  Uiso   1.00
C21    C     0.29910   0.82846   0.71738   0.01267  Uiso   1.00
C22    C     0.20090   0.11108   0.28262   0.01267  Uiso   1.00
C23    C     0.12890   0.90340   0.87500   0.01267  Uiso   1.00
C24    C     0.53230   0.95794   0.95556   0.01267  Uiso   1.00
C25    C     0.73550   0.93665   0.40712   0.01267  Uiso   1.00
C26    C     0.03230   0.99762   0.95556   0.01267  Uiso   1.00
C27    C     0.87110   0.09660   0.12500   0.01267  Uiso   1.00
C28    C     0.15240   0.79965   0.87726   0.01267  Uiso   1.00
C29    C     0.92080   0.53262   0.64596   0.01267  Uiso   1.00
C30    C     0.79910   0.88892   0.71738   0.01267  Uiso   1.00
C31    C     0.48880   0.19390   0.60580   0.01267  Uiso   1.00
C32    C     0.42080   0.11334   0.64596   0.01267  Uiso   1.00
C33    C     0.62890   0.97160   0.87500   0.01267  Uiso   1.00
C34    C     0.12120   0.66409   0.37042   0.01267  Uiso   1.00
C35    C     0.25020   0.71760   0.80020   0.01267  Uiso   1.00
C36    C     0.98880   0.41190   0.60580   0.01267  Uiso   1.00
C37    C     0.51120   0.80610   0.39420   0.01267  Uiso   1.00
C38    C     0.70090   0.17154   0.28262   0.01267  Uiso   1.00
C39    C     0.57920   0.88666   0.35404   0.01267  Uiso   1.00
C40    C     0.01120   0.58810   0.39420   0.01267  Uiso   1.00
C41    C     0.37110   0.02840   0.12500   0.01267  Uiso   1.00
C42    C     0.74980   0.28240   0.19980   0.01267  Uiso   1.00
C43    C     0.34760   0.92239   0.12274   0.01267  Uiso   1.00
C44    C     0.20310   0.91514   0.79138   0.01267  Uiso   1.00
N1     N     0.82494   0.99095   0.72208   0.01267  Uiso   1.00
N2     N     0.67506   0.26887   0.27792   0.01267  Uiso   1.00
N3     N     0.17506   0.00905   0.27792   0.01267  Uiso   1.00
N4     N     0.32494   0.73113   0.72208   0.01267  Uiso   1.00
O1     O     0.09440   0.83435   0.35652   0.01267  Uiso   1.00
O2     O     0.16227   0.04979   0.65128   0.01267  Uiso   1.00
O3     O     0.74715   0.45452   0.49382   0.01267  Uiso   1.00
O4     O     0.40560   0.47783   0.64348   0.01267  Uiso   1.00
O5     O     0.90560   0.16565   0.64348   0.01267  Uiso   1.00
O6     O     0.59440   0.52217   0.35652   0.01267  Uiso   1.00
O7     O     0.98666   0.16218   0.48814   0.01267  Uiso   1.00
O8     O     0.51334   0.67404   0.51186   0.01267  Uiso   1.00
O9     O     0.01334   0.83782   0.51186   0.01267  Uiso   1.00
O10    O     0.75285   0.96070   0.50618   0.01267  Uiso   1.00
O11    O     0.33773   0.39851   0.34872   0.01267  Uiso   1.00
O12    O     0.25285   0.54548   0.50618   0.01267  Uiso   1.00
O13    O     0.24715   0.03930   0.49382   0.01267  Uiso   1.00
O14    O     0.83773   0.95021   0.34872   0.01267  Uiso   1.00
O15    O     0.48666   0.32596   0.48814   0.01267  Uiso   1.00
O16    O     0.66227   0.60149   0.65128   0.01267  Uiso   1.00
