data_image0
_cell_length_a       8.7151
_cell_length_b       8.7151
_cell_length_c       19.011
_cell_angle_alpha    90
_cell_angle_beta     90
_cell_angle_gamma    120

_symmetry_space_group_name_H-M    "P 1"
_symmetry_int_tables_number       1

loop_
  _symmetry_equiv_pos_as_xyz
  'x, y, z'

loop_
  _atom_site_label
  _atom_site_occupancy
  _atom_site_fract_x
  _atom_site_fract_y
  _atom_site_fract_z
  _atom_site_thermal_displace_type
  _atom_site_B_iso_or_equiv
  _atom_site_type_symbol
  Co1      1.0000 0.66667  0.33333  0.33333  Biso   1.000  Co
  Co2      1.0000 0.33333  0.66667  0.66667  Biso   1.000  Co
  Co3      1.0000 0.00000  0.00000  0.00000  Biso   1.000  Co
  K1       1.0000 0.00000  0.00000  0.50000  Biso   1.000  K
  K2       1.0000 0.66667  0.33333  0.83333  Biso   1.000  K
  K3       1.0000 0.33333  0.66667  0.16667  Biso   1.000  K
  N1       1.0000 0.83425  0.66850  0.42266  Biso   1.000  N
  C1       1.0000 0.77040  0.54080  0.39003  Biso   1.000  C
  N2       1.0000 0.50092  0.00183  0.75599  Biso   1.000  N
  C2       1.0000 0.43707  0.87413  0.72336  Biso   1.000  C
  N3       1.0000 0.16758  0.33517  0.08933  Biso   1.000  N
  C3       1.0000 0.10373  0.20747  0.05670  Biso   1.000  C
  N4       1.0000 0.33150  0.16575  0.42266  Biso   1.000  N
  C4       1.0000 0.45920  0.22960  0.39003  Biso   1.000  C
  N5       1.0000 0.99817  0.49908  0.75599  Biso   1.000  N
  C5       1.0000 0.12587  0.56293  0.72336  Biso   1.000  C
  N6       1.0000 0.66483  0.83242  0.08933  Biso   1.000  N
  C6       1.0000 0.79253  0.89627  0.05670  Biso   1.000  C
  N7       1.0000 0.83425  0.16575  0.42266  Biso   1.000  N
  C7       1.0000 0.77040  0.22960  0.39003  Biso   1.000  C
  N8       1.0000 0.50092  0.49908  0.75599  Biso   1.000  N
  C8       1.0000 0.43707  0.56293  0.72336  Biso   1.000  C
  N9       1.0000 0.16758  0.83242  0.08933  Biso   1.000  N
  C9       1.0000 0.10373  0.89627  0.05670  Biso   1.000  C
  N10      1.0000 0.66850  0.83425  0.57734  Biso   1.000  N
  C10      1.0000 0.54080  0.77040  0.60997  Biso   1.000  C
  N11      1.0000 0.33517  0.16758  0.91067  Biso   1.000  N
  C11      1.0000 0.20747  0.10373  0.94330  Biso   1.000  C
  N12      1.0000 0.00183  0.50092  0.24401  Biso   1.000  N
  C12      1.0000 0.87413  0.43707  0.27664  Biso   1.000  C
  N13      1.0000 0.16575  0.33150  0.57734  Biso   1.000  N
  C13      1.0000 0.22960  0.45920  0.60997  Biso   1.000  C
  N14      1.0000 0.83242  0.66483  0.91067  Biso   1.000  N
  C14      1.0000 0.89627  0.79253  0.94330  Biso   1.000  C
  N15      1.0000 0.49908  0.99817  0.24401  Biso   1.000  N
  C15      1.0000 0.56293  0.12587  0.27664  Biso   1.000  C
  N16      1.0000 0.16575  0.83425  0.57734  Biso   1.000  N
  C16      1.0000 0.22960  0.77040  0.60997  Biso   1.000  C
  N17      1.0000 0.83242  0.16758  0.91067  Biso   1.000  N
  C17      1.0000 0.89627  0.10373  0.94330  Biso   1.000  C
  N18      1.0000 0.49908  0.50092  0.24401  Biso   1.000  N
  C18      1.0000 0.56293  0.43707  0.27664  Biso   1.000  C
