data_LUCDES_clean
_audit_creation_date              2014-07-02
_audit_creation_method            'Materials Studio'
_symmetry_space_group_name_H-M    'P1'
_symmetry_Int_Tables_number       1
_symmetry_cell_setting            triclinic
loop_
_symmetry_equiv_pos_as_xyz
  x,y,z
_cell_length_a                    12.1323
_cell_length_b                    12.3676
_cell_length_c                    13.3757
_cell_angle_alpha                 101.7480
_cell_angle_beta                  99.0250
_cell_angle_gamma                 105.9840
loop_
_atom_site_label
_atom_site_type_symbol
_atom_site_fract_x
_atom_site_fract_y
_atom_site_fract_z
_atom_site_U_iso_or_equiv
_atom_site_adp_type
_atom_site_occupancy
Tb1    Tb    0.32646   0.48121   0.45432   0.01267  Uiso   1.00
Tb2    Tb    0.67354   0.51879   0.54568   0.01267  Uiso   1.00
H1     H     0.04450   0.35640   0.10910   0.01267  Uiso   1.00
H2     H     0.19730   0.69900   0.21230   0.01267  Uiso   1.00
H3     H     0.89310   0.27240   0.93910   0.01267  Uiso   1.00
H4     H     0.59550   0.22850   0.53970   0.01267  Uiso   1.00
H5     H     0.25840   0.06110   0.38450   0.01267  Uiso   1.00
H6     H     0.71700   0.11350   0.60780   0.01267  Uiso   1.00
H7     H     0.36520   0.47010   0.13430   0.01267  Uiso   1.00
H8     H     0.71410   0.53710   0.21590   0.01267  Uiso   1.00
H9     H     0.27140   0.45390   0.94960   0.01267  Uiso   1.00
H10    H     0.95550   0.64360   0.89090   0.01267  Uiso   1.00
H11    H     0.80270   0.30100   0.78770   0.01267  Uiso   1.00
H12    H     0.10690   0.72760   0.06090   0.01267  Uiso   1.00
H13    H     0.40450   0.77150   0.46030   0.01267  Uiso   1.00
H14    H     0.74160   0.93890   0.61550   0.01267  Uiso   1.00
H15    H     0.28300   0.88650   0.39220   0.01267  Uiso   1.00
H16    H     0.63480   0.52990   0.86570   0.01267  Uiso   1.00
H17    H     0.28590   0.46290   0.78410   0.01267  Uiso   1.00
H18    H     0.72860   0.54610   0.05040   0.01267  Uiso   1.00
C1     C     0.19150   0.50800   0.27790   0.01267  Uiso   1.00
C2     C     0.98950   0.44330   0.00700   0.01267  Uiso   1.00
C3     C     0.05380   0.43060   0.09970   0.01267  Uiso   1.00
C4     C     0.12870   0.52480   0.17530   0.01267  Uiso   1.00
C5     C     0.14640   0.63510   0.16000   0.01267  Uiso   1.00
C6     C     0.90870   0.34710   0.92940   0.01267  Uiso   1.00
C7     C     0.40930   0.27830   0.45620   0.01267  Uiso   1.00
C8     C     0.54900   0.05190   0.52110   0.01267  Uiso   1.00
C9     C     0.53300   0.15960   0.51210   0.01267  Uiso   1.00
C10    C     0.42610   0.16260   0.46290   0.01267  Uiso   1.00
C11    C     0.33040   0.05850   0.41810   0.01267  Uiso   1.00
C12    C     0.65520   0.04520   0.57550   0.01267  Uiso   1.00
C13    C     0.52510   0.49590   0.30140   0.01267  Uiso   1.00
C14    C     0.44430   0.48660   0.01300   0.01267  Uiso   1.00
C15    C     0.43800   0.48360   0.11660   0.01267  Uiso   1.00
C16    C     0.53480   0.49970   0.19150   0.01267  Uiso   1.00
C17    C     0.64670   0.52470   0.16530   0.01267  Uiso   1.00
C18    C     0.34510   0.46960   0.93360   0.01267  Uiso   1.00
C19    C     0.80850   0.49200   0.72210   0.01267  Uiso   1.00
C20    C     0.01050   0.55670   0.99300   0.01267  Uiso   1.00
C21    C     0.94620   0.56940   0.90030   0.01267  Uiso   1.00
C22    C     0.87130   0.47520   0.82470   0.01267  Uiso   1.00
C23    C     0.85360   0.36490   0.84000   0.01267  Uiso   1.00
C24    C     0.09130   0.65290   0.07060   0.01267  Uiso   1.00
C25    C     0.59070   0.72170   0.54380   0.01267  Uiso   1.00
C26    C     0.45100   0.94810   0.47890   0.01267  Uiso   1.00
C27    C     0.46700   0.84040   0.48790   0.01267  Uiso   1.00
C28    C     0.57390   0.83740   0.53710   0.01267  Uiso   1.00
C29    C     0.66960   0.94150   0.58190   0.01267  Uiso   1.00
C30    C     0.34480   0.95480   0.42450   0.01267  Uiso   1.00
C31    C     0.47490   0.50410   0.69860   0.01267  Uiso   1.00
C32    C     0.55570   0.51340   0.98700   0.01267  Uiso   1.00
C33    C     0.56200   0.51640   0.88340   0.01267  Uiso   1.00
C34    C     0.46520   0.50030   0.80850   0.01267  Uiso   1.00
C35    C     0.35330   0.47530   0.83470   0.01267  Uiso   1.00
C36    C     0.65490   0.53040   0.06640   0.01267  Uiso   1.00
O1     O     0.17170   0.40870   0.29140   0.01267  Uiso   1.00
O2     O     0.26270   0.59550   0.34130   0.01267  Uiso   1.00
O3     O     0.30840   0.27860   0.42140   0.01267  Uiso   1.00
O4     O     0.49710   0.36930   0.48910   0.01267  Uiso   1.00
O5     O     0.42320   0.46310   0.31730   0.01267  Uiso   1.00
O6     O     0.61980   0.52520   0.36860   0.01267  Uiso   1.00
O7     O     0.82830   0.59130   0.70860   0.01267  Uiso   1.00
O8     O     0.73730   0.40450   0.65870   0.01267  Uiso   1.00
O9     O     0.69160   0.72140   0.57860   0.01267  Uiso   1.00
O10    O     0.50290   0.63070   0.51090   0.01267  Uiso   1.00
O11    O     0.57680   0.53690   0.68270   0.01267  Uiso   1.00
O12    O     0.38020   0.47480   0.63140   0.01267  Uiso   1.00
