data_LUCDAO_clean
_audit_creation_date              2014-07-02
_audit_creation_method            'Materials Studio'
_symmetry_space_group_name_H-M    'P1'
_symmetry_Int_Tables_number       1
_symmetry_cell_setting            triclinic
loop_
_symmetry_equiv_pos_as_xyz
  x,y,z
_cell_length_a                    12.1170
_cell_length_b                    12.3350
_cell_length_c                    13.4120
_cell_angle_alpha                 101.5690
_cell_angle_beta                  99.0360
_cell_angle_gamma                 106.2860
loop_
_atom_site_label
_atom_site_type_symbol
_atom_site_fract_x
_atom_site_fract_y
_atom_site_fract_z
_atom_site_U_iso_or_equiv
_atom_site_adp_type
_atom_site_occupancy
Eu1    Eu    0.32640   0.48118   0.45422   0.01267  Uiso   1.00
Eu2    Eu    0.67360   0.51882   0.54578   0.01267  Uiso   1.00
H1     H     0.04330   0.35550   0.11080   0.01267  Uiso   1.00
H2     H     0.19830   0.69860   0.20760   0.01267  Uiso   1.00
H3     H     0.89770   0.27720   0.94270   0.01267  Uiso   1.00
H4     H     0.59290   0.22910   0.54300   0.01267  Uiso   1.00
H5     H     0.26050   0.05720   0.37890   0.01267  Uiso   1.00
H6     H     0.71910   0.11640   0.60260   0.01267  Uiso   1.00
H7     H     0.36370   0.46570   0.13360   0.01267  Uiso   1.00
H8     H     0.71300   0.52840   0.21170   0.01267  Uiso   1.00
H9     H     0.27200   0.45830   0.95130   0.01267  Uiso   1.00
H10    H     0.95670   0.64450   0.88920   0.01267  Uiso   1.00
H11    H     0.80170   0.30140   0.79240   0.01267  Uiso   1.00
H12    H     0.10230   0.72280   0.05730   0.01267  Uiso   1.00
H13    H     0.40710   0.77090   0.45700   0.01267  Uiso   1.00
H14    H     0.73950   0.94280   0.62110   0.01267  Uiso   1.00
H15    H     0.28090   0.88360   0.39740   0.01267  Uiso   1.00
H16    H     0.63630   0.53430   0.86640   0.01267  Uiso   1.00
H17    H     0.28700   0.47160   0.78830   0.01267  Uiso   1.00
H18    H     0.72800   0.54170   0.04870   0.01267  Uiso   1.00
C1     C     0.19080   0.50940   0.27570   0.01267  Uiso   1.00
C2     C     0.98970   0.44320   0.00660   0.01267  Uiso   1.00
C3     C     0.05360   0.43000   0.10120   0.01267  Uiso   1.00
C4     C     0.12640   0.52150   0.17430   0.01267  Uiso   1.00
C5     C     0.14570   0.63370   0.15730   0.01267  Uiso   1.00
C6     C     0.91230   0.35180   0.93260   0.01267  Uiso   1.00
C7     C     0.40850   0.27730   0.45600   0.01267  Uiso   1.00
C8     C     0.54530   0.05130   0.52180   0.01267  Uiso   1.00
C9     C     0.53090   0.15960   0.51330   0.01267  Uiso   1.00
C10    C     0.42550   0.16100   0.46120   0.01267  Uiso   1.00
C11    C     0.33160   0.05560   0.41570   0.01267  Uiso   1.00
C12    C     0.65580   0.04770   0.57470   0.01267  Uiso   1.00
C13    C     0.52510   0.49590   0.30070   0.01267  Uiso   1.00
C14    C     0.44390   0.48680   0.01250   0.01267  Uiso   1.00
C15    C     0.43660   0.48170   0.11570   0.01267  Uiso   1.00
C16    C     0.53710   0.50040   0.18960   0.01267  Uiso   1.00
C17    C     0.64600   0.52010   0.16240   0.01267  Uiso   1.00
C18    C     0.34570   0.47290   0.93490   0.01267  Uiso   1.00
C19    C     0.80920   0.49060   0.72430   0.01267  Uiso   1.00
C20    C     0.01030   0.55680   0.99340   0.01267  Uiso   1.00
C21    C     0.94640   0.57000   0.89880   0.01267  Uiso   1.00
C22    C     0.87360   0.47850   0.82570   0.01267  Uiso   1.00
C23    C     0.85430   0.36630   0.84270   0.01267  Uiso   1.00
C24    C     0.08770   0.64820   0.06740   0.01267  Uiso   1.00
C25    C     0.59150   0.72270   0.54400   0.01267  Uiso   1.00
C26    C     0.45470   0.94870   0.47820   0.01267  Uiso   1.00
C27    C     0.46910   0.84040   0.48670   0.01267  Uiso   1.00
C28    C     0.57450   0.83900   0.53880   0.01267  Uiso   1.00
C29    C     0.66840   0.94440   0.58430   0.01267  Uiso   1.00
C30    C     0.34420   0.95230   0.42530   0.01267  Uiso   1.00
C31    C     0.47490   0.50410   0.69930   0.01267  Uiso   1.00
C32    C     0.55610   0.51320   0.98750   0.01267  Uiso   1.00
C33    C     0.56340   0.51830   0.88430   0.01267  Uiso   1.00
C34    C     0.46290   0.49960   0.81040   0.01267  Uiso   1.00
C35    C     0.35400   0.47990   0.83760   0.01267  Uiso   1.00
C36    C     0.65430   0.52710   0.06510   0.01267  Uiso   1.00
O1     O     0.16930   0.40860   0.29140   0.01267  Uiso   1.00
O2     O     0.26290   0.59700   0.33880   0.01267  Uiso   1.00
O3     O     0.30520   0.27550   0.41900   0.01267  Uiso   1.00
O4     O     0.49270   0.36860   0.48720   0.01267  Uiso   1.00
O5     O     0.42360   0.46270   0.31470   0.01267  Uiso   1.00
O6     O     0.62110   0.52450   0.36680   0.01267  Uiso   1.00
O7     O     0.83070   0.59140   0.70860   0.01267  Uiso   1.00
O8     O     0.73710   0.40300   0.66120   0.01267  Uiso   1.00
O9     O     0.69480   0.72450   0.58100   0.01267  Uiso   1.00
O10    O     0.50730   0.63140   0.51280   0.01267  Uiso   1.00
O11    O     0.57640   0.53730   0.68530   0.01267  Uiso   1.00
O12    O     0.37890   0.47550   0.63320   0.01267  Uiso   1.00
