data_image0
_cell_length_a       18.459
_cell_length_b       18.459
_cell_length_c       6.7489
_cell_angle_alpha    90
_cell_angle_beta     90
_cell_angle_gamma    120

_symmetry_space_group_name_H-M    "P 1"
_symmetry_int_tables_number       1

loop_
  _symmetry_equiv_pos_as_xyz
  'x, y, z'

loop_
  _atom_site_label
  _atom_site_occupancy
  _atom_site_fract_x
  _atom_site_fract_y
  _atom_site_fract_z
  _atom_site_thermal_displace_type
  _atom_site_B_iso_or_equiv
  _atom_site_type_symbol
  O1       1.0000 0.28690  0.20290  0.27280  Biso   1.000  O
  O2       1.0000 0.48000  0.37170  0.48440  Biso   1.000  O
  O3       1.0000 0.44090  0.41140  0.75460  Biso   1.000  O
  C1       1.0000 0.37840  0.25500  0.92440  Biso   1.000  C
  C2       1.0000 0.42230  0.27640  0.74800  Biso   1.000  C
  C3       1.0000 0.44930  0.35940  0.65400  Biso   1.000  C
  C4       1.0000 0.23200  0.18580  0.43800  Biso   1.000  C
  H1       1.0000 0.36320  0.29200  0.98430  Biso   1.000  H
  H2       1.0000 0.25430  0.17220  0.55360  Biso   1.000  H
  H3       1.0000 0.17630  0.13710  0.40540  Biso   1.000  H
  O4       1.0000 0.79710  0.08400  0.27280  Biso   1.000  O
  O5       1.0000 0.62830  0.10830  0.48440  Biso   1.000  O
  O6       1.0000 0.58860  0.02950  0.75460  Biso   1.000  O
  C5       1.0000 0.74500  0.12340  0.92440  Biso   1.000  C
  C6       1.0000 0.72360  0.14590  0.74800  Biso   1.000  C
  C7       1.0000 0.64060  0.08990  0.65400  Biso   1.000  C
  C8       1.0000 0.81420  0.04620  0.43800  Biso   1.000  C
  H4       1.0000 0.70800  0.07120  0.98430  Biso   1.000  H
  H5       1.0000 0.82780  0.08210  0.55360  Biso   1.000  H
  H6       1.0000 0.86290  0.03920  0.40540  Biso   1.000  H
  O7       1.0000 0.91600  0.71310  0.27280  Biso   1.000  O
  O8       1.0000 0.89170  0.52000  0.48440  Biso   1.000  O
  O9       1.0000 0.97050  0.55910  0.75460  Biso   1.000  O
  C9       1.0000 0.87660  0.62160  0.92440  Biso   1.000  C
  C10      1.0000 0.85410  0.57770  0.74800  Biso   1.000  C
  C11      1.0000 0.91010  0.55070  0.65400  Biso   1.000  C
  C12      1.0000 0.95380  0.76800  0.43800  Biso   1.000  C
  H7       1.0000 0.92880  0.63680  0.98430  Biso   1.000  H
  H8       1.0000 0.91790  0.74570  0.55360  Biso   1.000  H
  H9       1.0000 0.96080  0.82370  0.40540  Biso   1.000  H
  O10      1.0000 0.20290  0.28690  0.72720  Biso   1.000  O
  O11      1.0000 0.37170  0.48000  0.51560  Biso   1.000  O
  O12      1.0000 0.41140  0.44090  0.24540  Biso   1.000  O
  C13      1.0000 0.25500  0.37840  0.07560  Biso   1.000  C
  C14      1.0000 0.27640  0.42230  0.25200  Biso   1.000  C
  C15      1.0000 0.35940  0.44930  0.34600  Biso   1.000  C
  C16      1.0000 0.18580  0.23200  0.56200  Biso   1.000  C
  H10      1.0000 0.29200  0.36320  0.01570  Biso   1.000  H
  H11      1.0000 0.17220  0.25430  0.44640  Biso   1.000  H
  H12      1.0000 0.13710  0.17630  0.59460  Biso   1.000  H
  O13      1.0000 0.08400  0.79710  0.72720  Biso   1.000  O
  O14      1.0000 0.10830  0.62830  0.51560  Biso   1.000  O
  O15      1.0000 0.02950  0.58860  0.24540  Biso   1.000  O
  C17      1.0000 0.12340  0.74500  0.07560  Biso   1.000  C
  C18      1.0000 0.14590  0.72360  0.25200  Biso   1.000  C
  C19      1.0000 0.08990  0.64060  0.34600  Biso   1.000  C
  C20      1.0000 0.04620  0.81420  0.56200  Biso   1.000  C
  H13      1.0000 0.07120  0.70800  0.01570  Biso   1.000  H
  H14      1.0000 0.08210  0.82780  0.44640  Biso   1.000  H
  H15      1.0000 0.03920  0.86290  0.59460  Biso   1.000  H
  O16      1.0000 0.71310  0.91600  0.72720  Biso   1.000  O
  O17      1.0000 0.52000  0.89170  0.51560  Biso   1.000  O
  O18      1.0000 0.55910  0.97050  0.24540  Biso   1.000  O
  C21      1.0000 0.62160  0.87660  0.07560  Biso   1.000  C
  C22      1.0000 0.57770  0.85410  0.25200  Biso   1.000  C
  C23      1.0000 0.55070  0.91010  0.34600  Biso   1.000  C
  C24      1.0000 0.76800  0.95380  0.56200  Biso   1.000  C
  H16      1.0000 0.63680  0.92880  0.01570  Biso   1.000  H
  H17      1.0000 0.74570  0.91790  0.44640  Biso   1.000  H
  H18      1.0000 0.82370  0.96080  0.59460  Biso   1.000  H
  O19      1.0000 0.71310  0.79710  0.72720  Biso   1.000  O
  O20      1.0000 0.52000  0.62830  0.51560  Biso   1.000  O
  O21      1.0000 0.55910  0.58860  0.24540  Biso   1.000  O
  C25      1.0000 0.62160  0.74500  0.07560  Biso   1.000  C
  C26      1.0000 0.57770  0.72360  0.25200  Biso   1.000  C
  C27      1.0000 0.55070  0.64060  0.34600  Biso   1.000  C
  C28      1.0000 0.76800  0.81420  0.56200  Biso   1.000  C
  H19      1.0000 0.63680  0.70800  0.01570  Biso   1.000  H
  H20      1.0000 0.74570  0.82780  0.44640  Biso   1.000  H
  H21      1.0000 0.82370  0.86290  0.59460  Biso   1.000  H
  O22      1.0000 0.20290  0.91600  0.72720  Biso   1.000  O
  O23      1.0000 0.37170  0.89170  0.51560  Biso   1.000  O
  O24      1.0000 0.41140  0.97050  0.24540  Biso   1.000  O
  C29      1.0000 0.25500  0.87660  0.07560  Biso   1.000  C
  C30      1.0000 0.27640  0.85410  0.25200  Biso   1.000  C
  C31      1.0000 0.35940  0.91010  0.34600  Biso   1.000  C
  C32      1.0000 0.18580  0.95380  0.56200  Biso   1.000  C
  H22      1.0000 0.29200  0.92880  0.01570  Biso   1.000  H
  H23      1.0000 0.17220  0.91790  0.44640  Biso   1.000  H
  H24      1.0000 0.13710  0.96080  0.59460  Biso   1.000  H
  O25      1.0000 0.08400  0.28690  0.72720  Biso   1.000  O
  O26      1.0000 0.10830  0.48000  0.51560  Biso   1.000  O
  O27      1.0000 0.02950  0.44090  0.24540  Biso   1.000  O
  C33      1.0000 0.12340  0.37840  0.07560  Biso   1.000  C
  C34      1.0000 0.14590  0.42230  0.25200  Biso   1.000  C
  C35      1.0000 0.08990  0.44930  0.34600  Biso   1.000  C
  C36      1.0000 0.04620  0.23200  0.56200  Biso   1.000  C
  H25      1.0000 0.07120  0.36320  0.01570  Biso   1.000  H
  H26      1.0000 0.08210  0.25430  0.44640  Biso   1.000  H
  H27      1.0000 0.03920  0.17630  0.59460  Biso   1.000  H
  O28      1.0000 0.79710  0.71310  0.27280  Biso   1.000  O
  O29      1.0000 0.62830  0.52000  0.48440  Biso   1.000  O
  O30      1.0000 0.58860  0.55910  0.75460  Biso   1.000  O
  C37      1.0000 0.74500  0.62160  0.92440  Biso   1.000  C
  C38      1.0000 0.72360  0.57770  0.74800  Biso   1.000  C
  C39      1.0000 0.64060  0.55070  0.65400  Biso   1.000  C
  C40      1.0000 0.81420  0.76800  0.43800  Biso   1.000  C
  H28      1.0000 0.70800  0.63680  0.98430  Biso   1.000  H
  H29      1.0000 0.82780  0.74570  0.55360  Biso   1.000  H
  H30      1.0000 0.86290  0.82370  0.40540  Biso   1.000  H
  O31      1.0000 0.91600  0.20290  0.27280  Biso   1.000  O
  O32      1.0000 0.89170  0.37170  0.48440  Biso   1.000  O
  O33      1.0000 0.97050  0.41140  0.75460  Biso   1.000  O
  C41      1.0000 0.87660  0.25500  0.92440  Biso   1.000  C
  C42      1.0000 0.85410  0.27640  0.74800  Biso   1.000  C
  C43      1.0000 0.91010  0.35940  0.65400  Biso   1.000  C
  C44      1.0000 0.95380  0.18580  0.43800  Biso   1.000  C
  H31      1.0000 0.92880  0.29200  0.98430  Biso   1.000  H
  H32      1.0000 0.91790  0.17220  0.55360  Biso   1.000  H
  H33      1.0000 0.96080  0.13710  0.40540  Biso   1.000  H
  O34      1.0000 0.28690  0.08400  0.27280  Biso   1.000  O
  O35      1.0000 0.48000  0.10830  0.48440  Biso   1.000  O
  O36      1.0000 0.44090  0.02950  0.75460  Biso   1.000  O
  C45      1.0000 0.37840  0.12340  0.92440  Biso   1.000  C
  C46      1.0000 0.42230  0.14590  0.74800  Biso   1.000  C
  C47      1.0000 0.44930  0.08990  0.65400  Biso   1.000  C
  C48      1.0000 0.23200  0.04620  0.43800  Biso   1.000  C
  H34      1.0000 0.36320  0.07120  0.98430  Biso   1.000  H
  H35      1.0000 0.25430  0.08210  0.55360  Biso   1.000  H
  H36      1.0000 0.17630  0.03920  0.40540  Biso   1.000  H
  Cu1      1.0000 0.52401  0.47599  0.34250  Biso   1.000  Cu
  Cu2      1.0000 0.52401  0.04802  0.34250  Biso   1.000  Cu
  Cu3      1.0000 0.95198  0.47599  0.34250  Biso   1.000  Cu
  Cu4      1.0000 0.47599  0.52401  0.65750  Biso   1.000  Cu
  Cu5      1.0000 0.04802  0.52401  0.65750  Biso   1.000  Cu
  Cu6      1.0000 0.47599  0.95198  0.65750  Biso   1.000  Cu
  C49      1.0000 0.30680  0.15340  0.20000  Biso   1.000  C
  C50      1.0000 0.35530  0.17765  0.01290  Biso   1.000  C
  C51      1.0000 0.44010  0.22005  0.65600  Biso   1.000  C
  H37      1.0000 0.46510  0.23255  0.52840  Biso   1.000  H
  C52      1.0000 0.84660  0.15340  0.20000  Biso   1.000  C
  C53      1.0000 0.82235  0.17765  0.01290  Biso   1.000  C
  C54      1.0000 0.77995  0.22005  0.65600  Biso   1.000  C
  H38      1.0000 0.76745  0.23255  0.52840  Biso   1.000  H
  C55      1.0000 0.84660  0.69320  0.20000  Biso   1.000  C
  C56      1.0000 0.82235  0.64470  0.01290  Biso   1.000  C
  C57      1.0000 0.77995  0.55990  0.65600  Biso   1.000  C
  H39      1.0000 0.76745  0.53490  0.52840  Biso   1.000  H
  C58      1.0000 0.15340  0.30680  0.80000  Biso   1.000  C
  C59      1.0000 0.17765  0.35530  0.98710  Biso   1.000  C
  C60      1.0000 0.22005  0.44010  0.34400  Biso   1.000  C
  H40      1.0000 0.23255  0.46510  0.47160  Biso   1.000  H
  C61      1.0000 0.15340  0.84660  0.80000  Biso   1.000  C
  C62      1.0000 0.17765  0.82235  0.98710  Biso   1.000  C
  C63      1.0000 0.22005  0.77995  0.34400  Biso   1.000  C
  H41      1.0000 0.23255  0.76745  0.47160  Biso   1.000  H
  C64      1.0000 0.69320  0.84660  0.80000  Biso   1.000  C
  C65      1.0000 0.64470  0.82235  0.98710  Biso   1.000  C
  C66      1.0000 0.55990  0.77995  0.34400  Biso   1.000  C
  H42      1.0000 0.53490  0.76745  0.47160  Biso   1.000  H
  H43      1.0000 0.22970  0.22970  0.50000  Biso   1.000  H
  H44      1.0000 0.77030  0.00000  0.50000  Biso   1.000  H
  H45      1.0000 0.00000  0.77030  0.50000  Biso   1.000  H
  H46      1.0000 0.77030  0.77030  0.50000  Biso   1.000  H
  H47      1.0000 0.22970  0.00000  0.50000  Biso   1.000  H
  H48      1.0000 0.00000  0.22970  0.50000  Biso   1.000  H
