data_image0
_cell_length_a       18.2591
_cell_length_b       18.2591
_cell_length_c       6.6274
_cell_angle_alpha    90
_cell_angle_beta     90
_cell_angle_gamma    120

_symmetry_space_group_name_H-M    "P 1"
_symmetry_int_tables_number       1

loop_
  _symmetry_equiv_pos_as_xyz
  'x, y, z'

loop_
  _atom_site_label
  _atom_site_occupancy
  _atom_site_fract_x
  _atom_site_fract_y
  _atom_site_fract_z
  _atom_site_thermal_displace_type
  _atom_site_B_iso_or_equiv
  _atom_site_type_symbol
  O1       1.0000 0.43840  0.41210  0.25720  Biso   1.000  O
  O2       1.0000 0.48120  0.37150  0.98900  Biso   1.000  O
  O3       1.0000 0.29500  0.08570  0.80900  Biso   1.000  O
  C1       1.0000 0.44780  0.35900  0.16200  Biso   1.000  C
  C2       1.0000 0.42200  0.27630  0.26100  Biso   1.000  C
  C3       1.0000 0.38110  0.25620  0.44600  Biso   1.000  C
  C4       1.0000 0.25190  0.05780  0.99700  Biso   1.000  C
  H1       1.0000 0.36800  0.29580  0.51120  Biso   1.000  H
  H2       1.0000 0.28120  0.09410  0.10490  Biso   1.000  H
  H3       1.0000 0.19560  0.05230  0.99060  Biso   1.000  H
  O4       1.0000 0.58790  0.02630  0.25720  Biso   1.000  O
  O5       1.0000 0.62850  0.10970  0.98900  Biso   1.000  O
  O6       1.0000 0.91430  0.20930  0.80900  Biso   1.000  O
  C5       1.0000 0.64100  0.08880  0.16200  Biso   1.000  C
  C6       1.0000 0.72370  0.14570  0.26100  Biso   1.000  C
  C7       1.0000 0.74380  0.12490  0.44600  Biso   1.000  C
  C8       1.0000 0.94220  0.19410  0.99700  Biso   1.000  C
  H4       1.0000 0.70420  0.07220  0.51120  Biso   1.000  H
  H5       1.0000 0.90590  0.18710  0.10490  Biso   1.000  H
  H6       1.0000 0.94770  0.14330  0.99060  Biso   1.000  H
  O7       1.0000 0.97370  0.56160  0.25720  Biso   1.000  O
  O8       1.0000 0.89030  0.51880  0.98900  Biso   1.000  O
  O9       1.0000 0.79070  0.70500  0.80900  Biso   1.000  O
  C9       1.0000 0.91120  0.55220  0.16200  Biso   1.000  C
  C10      1.0000 0.85430  0.57800  0.26100  Biso   1.000  C
  C11      1.0000 0.87510  0.61890  0.44600  Biso   1.000  C
  C12      1.0000 0.80590  0.74810  0.99700  Biso   1.000  C
  H7       1.0000 0.92780  0.63200  0.51120  Biso   1.000  H
  H8       1.0000 0.81290  0.71880  0.10490  Biso   1.000  H
  H9       1.0000 0.85670  0.80440  0.99060  Biso   1.000  H
  O10      1.0000 0.41210  0.43840  0.74280  Biso   1.000  O
  O11      1.0000 0.37150  0.48120  0.01100  Biso   1.000  O
  O12      1.0000 0.08570  0.29500  0.19100  Biso   1.000  O
  C13      1.0000 0.35900  0.44780  0.83800  Biso   1.000  C
  C14      1.0000 0.27630  0.42200  0.73900  Biso   1.000  C
  C15      1.0000 0.25620  0.38110  0.55400  Biso   1.000  C
  C16      1.0000 0.05780  0.25190  0.00300  Biso   1.000  C
  H10      1.0000 0.29580  0.36800  0.48880  Biso   1.000  H
  H11      1.0000 0.09410  0.28120  0.89510  Biso   1.000  H
  H12      1.0000 0.05230  0.19560  0.00940  Biso   1.000  H
  O13      1.0000 0.02630  0.58790  0.74280  Biso   1.000  O
  O14      1.0000 0.10970  0.62850  0.01100  Biso   1.000  O
  O15      1.0000 0.20930  0.91430  0.19100  Biso   1.000  O
  C17      1.0000 0.08880  0.64100  0.83800  Biso   1.000  C
  C18      1.0000 0.14570  0.72370  0.73900  Biso   1.000  C
  C19      1.0000 0.12490  0.74380  0.55400  Biso   1.000  C
  C20      1.0000 0.19410  0.94220  0.00300  Biso   1.000  C
  H13      1.0000 0.07220  0.70420  0.48880  Biso   1.000  H
  H14      1.0000 0.18710  0.90590  0.89510  Biso   1.000  H
  H15      1.0000 0.14330  0.94770  0.00940  Biso   1.000  H
  O16      1.0000 0.56160  0.97370  0.74280  Biso   1.000  O
  O17      1.0000 0.51880  0.89030  0.01100  Biso   1.000  O
  O18      1.0000 0.70500  0.79070  0.19100  Biso   1.000  O
  C21      1.0000 0.55220  0.91120  0.83800  Biso   1.000  C
  C22      1.0000 0.57800  0.85430  0.73900  Biso   1.000  C
  C23      1.0000 0.61890  0.87510  0.55400  Biso   1.000  C
  C24      1.0000 0.74810  0.80590  0.00300  Biso   1.000  C
  H16      1.0000 0.63200  0.92780  0.48880  Biso   1.000  H
  H17      1.0000 0.71880  0.81290  0.89510  Biso   1.000  H
  H18      1.0000 0.80440  0.85670  0.00940  Biso   1.000  H
  O19      1.0000 0.56160  0.58790  0.74280  Biso   1.000  O
  O20      1.0000 0.51880  0.62850  0.01100  Biso   1.000  O
  O21      1.0000 0.70500  0.91430  0.19100  Biso   1.000  O
  C25      1.0000 0.55220  0.64100  0.83800  Biso   1.000  C
  C26      1.0000 0.57800  0.72370  0.73900  Biso   1.000  C
  C27      1.0000 0.61890  0.74380  0.55400  Biso   1.000  C
  C28      1.0000 0.74810  0.94220  0.00300  Biso   1.000  C
  H19      1.0000 0.63200  0.70420  0.48880  Biso   1.000  H
  H20      1.0000 0.71880  0.90590  0.89510  Biso   1.000  H
  H21      1.0000 0.80440  0.94770  0.00940  Biso   1.000  H
  O22      1.0000 0.41210  0.97370  0.74280  Biso   1.000  O
  O23      1.0000 0.37150  0.89030  0.01100  Biso   1.000  O
  O24      1.0000 0.08570  0.79070  0.19100  Biso   1.000  O
  C29      1.0000 0.35900  0.91120  0.83800  Biso   1.000  C
  C30      1.0000 0.27630  0.85430  0.73900  Biso   1.000  C
  C31      1.0000 0.25620  0.87510  0.55400  Biso   1.000  C
  C32      1.0000 0.05780  0.80590  0.00300  Biso   1.000  C
  H22      1.0000 0.29580  0.92780  0.48880  Biso   1.000  H
  H23      1.0000 0.09410  0.81290  0.89510  Biso   1.000  H
  H24      1.0000 0.05230  0.85670  0.00940  Biso   1.000  H
  O25      1.0000 0.02630  0.43840  0.74280  Biso   1.000  O
  O26      1.0000 0.10970  0.48120  0.01100  Biso   1.000  O
  O27      1.0000 0.20930  0.29500  0.19100  Biso   1.000  O
  C33      1.0000 0.08880  0.44780  0.83800  Biso   1.000  C
  C34      1.0000 0.14570  0.42200  0.73900  Biso   1.000  C
  C35      1.0000 0.12490  0.38110  0.55400  Biso   1.000  C
  C36      1.0000 0.19410  0.25190  0.00300  Biso   1.000  C
  H25      1.0000 0.07220  0.36800  0.48880  Biso   1.000  H
  H26      1.0000 0.18710  0.28120  0.89510  Biso   1.000  H
  H27      1.0000 0.14330  0.19560  0.00940  Biso   1.000  H
  O28      1.0000 0.58790  0.56160  0.25720  Biso   1.000  O
  O29      1.0000 0.62850  0.51880  0.98900  Biso   1.000  O
  O30      1.0000 0.91430  0.70500  0.80900  Biso   1.000  O
  C37      1.0000 0.64100  0.55220  0.16200  Biso   1.000  C
  C38      1.0000 0.72370  0.57800  0.26100  Biso   1.000  C
  C39      1.0000 0.74380  0.61890  0.44600  Biso   1.000  C
  C40      1.0000 0.94220  0.74810  0.99700  Biso   1.000  C
  H28      1.0000 0.70420  0.63200  0.51120  Biso   1.000  H
  H29      1.0000 0.90590  0.71880  0.10490  Biso   1.000  H
  H30      1.0000 0.94770  0.80440  0.99060  Biso   1.000  H
  O31      1.0000 0.97370  0.41210  0.25720  Biso   1.000  O
  O32      1.0000 0.89030  0.37150  0.98900  Biso   1.000  O
  O33      1.0000 0.79070  0.08570  0.80900  Biso   1.000  O
  C41      1.0000 0.91120  0.35900  0.16200  Biso   1.000  C
  C42      1.0000 0.85430  0.27630  0.26100  Biso   1.000  C
  C43      1.0000 0.87510  0.25620  0.44600  Biso   1.000  C
  C44      1.0000 0.80590  0.05780  0.99700  Biso   1.000  C
  H31      1.0000 0.92780  0.29580  0.51120  Biso   1.000  H
  H32      1.0000 0.81290  0.09410  0.10490  Biso   1.000  H
  H33      1.0000 0.85670  0.05230  0.99060  Biso   1.000  H
  O34      1.0000 0.43840  0.02630  0.25720  Biso   1.000  O
  O35      1.0000 0.48120  0.10970  0.98900  Biso   1.000  O
  O36      1.0000 0.29500  0.20930  0.80900  Biso   1.000  O
  C45      1.0000 0.44780  0.08880  0.16200  Biso   1.000  C
  C46      1.0000 0.42200  0.14570  0.26100  Biso   1.000  C
  C47      1.0000 0.38110  0.12490  0.44600  Biso   1.000  C
  C48      1.0000 0.25190  0.19410  0.99700  Biso   1.000  C
  H34      1.0000 0.36800  0.07220  0.51120  Biso   1.000  H
  H35      1.0000 0.28120  0.18710  0.10490  Biso   1.000  H
  H36      1.0000 0.19560  0.14330  0.99060  Biso   1.000  H
  Cu1      1.0000 0.47513  0.52487  0.15650  Biso   1.000  Cu
  Cu2      1.0000 0.47513  0.95026  0.15650  Biso   1.000  Cu
  Cu3      1.0000 0.04974  0.52487  0.15650  Biso   1.000  Cu
  Cu4      1.0000 0.52487  0.47513  0.84350  Biso   1.000  Cu
  Cu5      1.0000 0.95026  0.47513  0.84350  Biso   1.000  Cu
  Cu6      1.0000 0.52487  0.04974  0.84350  Biso   1.000  Cu
  C49      1.0000 0.35840  0.17920  0.53600  Biso   1.000  C
  C50      1.0000 0.44040  0.22020  0.16900  Biso   1.000  C
  C51      1.0000 0.31480  0.15740  0.73000  Biso   1.000  C
  H37      1.0000 0.46920  0.23460  0.04470  Biso   1.000  H
  C52      1.0000 0.82080  0.17920  0.53600  Biso   1.000  C
  C53      1.0000 0.77980  0.22020  0.16900  Biso   1.000  C
  C54      1.0000 0.84260  0.15740  0.73000  Biso   1.000  C
  H38      1.0000 0.76540  0.23460  0.04470  Biso   1.000  H
  C55      1.0000 0.82080  0.64160  0.53600  Biso   1.000  C
  C56      1.0000 0.77980  0.55960  0.16900  Biso   1.000  C
  C57      1.0000 0.84260  0.68520  0.73000  Biso   1.000  C
  H39      1.0000 0.76540  0.53080  0.04470  Biso   1.000  H
  C58      1.0000 0.17920  0.35840  0.46400  Biso   1.000  C
  C59      1.0000 0.22020  0.44040  0.83100  Biso   1.000  C
  C60      1.0000 0.15740  0.31480  0.27000  Biso   1.000  C
  H40      1.0000 0.23460  0.46920  0.95530  Biso   1.000  H
  C61      1.0000 0.17920  0.82080  0.46400  Biso   1.000  C
  C62      1.0000 0.22020  0.77980  0.83100  Biso   1.000  C
  C63      1.0000 0.15740  0.84260  0.27000  Biso   1.000  C
  H41      1.0000 0.23460  0.76540  0.95530  Biso   1.000  H
  C64      1.0000 0.64160  0.82080  0.46400  Biso   1.000  C
  C65      1.0000 0.55960  0.77980  0.83100  Biso   1.000  C
  C66      1.0000 0.68520  0.84260  0.27000  Biso   1.000  C
  H42      1.0000 0.53080  0.76540  0.95530  Biso   1.000  H
  H43      1.0000 0.24080  0.00000  0.00000  Biso   1.000  H
  H44      1.0000 0.00000  0.24080  0.00000  Biso   1.000  H
  H45      1.0000 0.75920  0.75920  0.00000  Biso   1.000  H
  H46      1.0000 0.75920  0.00000  0.00000  Biso   1.000  H
  H47      1.0000 0.00000  0.75920  0.00000  Biso   1.000  H
  H48      1.0000 0.24080  0.24080  0.00000  Biso   1.000  H
