data_image0
_cell_length_a       18.542
_cell_length_b       18.542
_cell_length_c       6.8114
_cell_angle_alpha    90
_cell_angle_beta     90
_cell_angle_gamma    120

_symmetry_space_group_name_H-M    "P 1"
_symmetry_int_tables_number       1

loop_
  _symmetry_equiv_pos_as_xyz
  'x, y, z'

loop_
  _atom_site_label
  _atom_site_occupancy
  _atom_site_fract_x
  _atom_site_fract_y
  _atom_site_fract_z
  _atom_site_thermal_displace_type
  _atom_site_B_iso_or_equiv
  _atom_site_type_symbol
  O1       1.0000 0.44040  0.41040  0.24930  Biso   1.000  O
  O2       1.0000 0.48160  0.37200  0.98280  Biso   1.000  O
  O3       1.0000 0.29240  0.08600  0.77170  Biso   1.000  O
  C1       1.0000 0.45020  0.35850  0.15180  Biso   1.000  C
  C2       1.0000 0.42390  0.27610  0.24380  Biso   1.000  C
  C3       1.0000 0.38230  0.25540  0.42400  Biso   1.000  C
  C4       1.0000 0.24880  0.05630  0.95100  Biso   1.000  C
  H1       1.0000 0.37810  0.29710  0.49820  Biso   1.000  H
  H2       1.0000 0.27900  0.09180  0.06100  Biso   1.000  H
  H3       1.0000 0.19510  0.05280  0.94860  Biso   1.000  H
  O4       1.0000 0.58960  0.03000  0.24930  Biso   1.000  O
  O5       1.0000 0.62800  0.10960  0.98280  Biso   1.000  O
  O6       1.0000 0.91400  0.20640  0.77170  Biso   1.000  O
  C5       1.0000 0.64150  0.09170  0.15180  Biso   1.000  C
  C6       1.0000 0.72390  0.14780  0.24380  Biso   1.000  C
  C7       1.0000 0.74460  0.12690  0.42400  Biso   1.000  C
  C8       1.0000 0.94370  0.19250  0.95100  Biso   1.000  C
  H4       1.0000 0.70290  0.08100  0.49820  Biso   1.000  H
  H5       1.0000 0.90820  0.18720  0.06100  Biso   1.000  H
  H6       1.0000 0.94720  0.14230  0.94860  Biso   1.000  H
  O7       1.0000 0.97000  0.55960  0.24930  Biso   1.000  O
  O8       1.0000 0.89040  0.51840  0.98280  Biso   1.000  O
  O9       1.0000 0.79360  0.70760  0.77170  Biso   1.000  O
  C9       1.0000 0.90830  0.54980  0.15180  Biso   1.000  C
  C10      1.0000 0.85220  0.57610  0.24380  Biso   1.000  C
  C11      1.0000 0.87310  0.61770  0.42400  Biso   1.000  C
  C12      1.0000 0.80750  0.75120  0.95100  Biso   1.000  C
  H7       1.0000 0.91900  0.62190  0.49820  Biso   1.000  H
  H8       1.0000 0.81280  0.72100  0.06100  Biso   1.000  H
  H9       1.0000 0.85770  0.80490  0.94860  Biso   1.000  H
  O10      1.0000 0.41040  0.44040  0.75070  Biso   1.000  O
  O11      1.0000 0.37200  0.48160  0.01720  Biso   1.000  O
  O12      1.0000 0.08600  0.29240  0.22830  Biso   1.000  O
  C13      1.0000 0.35850  0.45020  0.84820  Biso   1.000  C
  C14      1.0000 0.27610  0.42390  0.75620  Biso   1.000  C
  C15      1.0000 0.25540  0.38230  0.57600  Biso   1.000  C
  C16      1.0000 0.05630  0.24880  0.04900  Biso   1.000  C
  H10      1.0000 0.29710  0.37810  0.50180  Biso   1.000  H
  H11      1.0000 0.09180  0.27900  0.93900  Biso   1.000  H
  H12      1.0000 0.05280  0.19510  0.05140  Biso   1.000  H
  O13      1.0000 0.03000  0.58960  0.75070  Biso   1.000  O
  O14      1.0000 0.10960  0.62800  0.01720  Biso   1.000  O
  O15      1.0000 0.20640  0.91400  0.22830  Biso   1.000  O
  C17      1.0000 0.09170  0.64150  0.84820  Biso   1.000  C
  C18      1.0000 0.14780  0.72390  0.75620  Biso   1.000  C
  C19      1.0000 0.12690  0.74460  0.57600  Biso   1.000  C
  C20      1.0000 0.19250  0.94370  0.04900  Biso   1.000  C
  H13      1.0000 0.08100  0.70290  0.50180  Biso   1.000  H
  H14      1.0000 0.18720  0.90820  0.93900  Biso   1.000  H
  H15      1.0000 0.14230  0.94720  0.05140  Biso   1.000  H
  O16      1.0000 0.55960  0.97000  0.75070  Biso   1.000  O
  O17      1.0000 0.51840  0.89040  0.01720  Biso   1.000  O
  O18      1.0000 0.70760  0.79360  0.22830  Biso   1.000  O
  C21      1.0000 0.54980  0.90830  0.84820  Biso   1.000  C
  C22      1.0000 0.57610  0.85220  0.75620  Biso   1.000  C
  C23      1.0000 0.61770  0.87310  0.57600  Biso   1.000  C
  C24      1.0000 0.75120  0.80750  0.04900  Biso   1.000  C
  H16      1.0000 0.62190  0.91900  0.50180  Biso   1.000  H
  H17      1.0000 0.72100  0.81280  0.93900  Biso   1.000  H
  H18      1.0000 0.80490  0.85770  0.05140  Biso   1.000  H
  O19      1.0000 0.55960  0.58960  0.75070  Biso   1.000  O
  O20      1.0000 0.51840  0.62800  0.01720  Biso   1.000  O
  O21      1.0000 0.70760  0.91400  0.22830  Biso   1.000  O
  C25      1.0000 0.54980  0.64150  0.84820  Biso   1.000  C
  C26      1.0000 0.57610  0.72390  0.75620  Biso   1.000  C
  C27      1.0000 0.61770  0.74460  0.57600  Biso   1.000  C
  C28      1.0000 0.75120  0.94370  0.04900  Biso   1.000  C
  H19      1.0000 0.62190  0.70290  0.50180  Biso   1.000  H
  H20      1.0000 0.72100  0.90820  0.93900  Biso   1.000  H
  H21      1.0000 0.80490  0.94720  0.05140  Biso   1.000  H
  O22      1.0000 0.41040  0.97000  0.75070  Biso   1.000  O
  O23      1.0000 0.37200  0.89040  0.01720  Biso   1.000  O
  O24      1.0000 0.08600  0.79360  0.22830  Biso   1.000  O
  C29      1.0000 0.35850  0.90830  0.84820  Biso   1.000  C
  C30      1.0000 0.27610  0.85220  0.75620  Biso   1.000  C
  C31      1.0000 0.25540  0.87310  0.57600  Biso   1.000  C
  C32      1.0000 0.05630  0.80750  0.04900  Biso   1.000  C
  H22      1.0000 0.29710  0.91900  0.50180  Biso   1.000  H
  H23      1.0000 0.09180  0.81280  0.93900  Biso   1.000  H
  H24      1.0000 0.05280  0.85770  0.05140  Biso   1.000  H
  O25      1.0000 0.03000  0.44040  0.75070  Biso   1.000  O
  O26      1.0000 0.10960  0.48160  0.01720  Biso   1.000  O
  O27      1.0000 0.20640  0.29240  0.22830  Biso   1.000  O
  C33      1.0000 0.09170  0.45020  0.84820  Biso   1.000  C
  C34      1.0000 0.14780  0.42390  0.75620  Biso   1.000  C
  C35      1.0000 0.12690  0.38230  0.57600  Biso   1.000  C
  C36      1.0000 0.19250  0.24880  0.04900  Biso   1.000  C
  H25      1.0000 0.08100  0.37810  0.50180  Biso   1.000  H
  H26      1.0000 0.18720  0.27900  0.93900  Biso   1.000  H
  H27      1.0000 0.14230  0.19510  0.05140  Biso   1.000  H
  O28      1.0000 0.58960  0.55960  0.24930  Biso   1.000  O
  O29      1.0000 0.62800  0.51840  0.98280  Biso   1.000  O
  O30      1.0000 0.91400  0.70760  0.77170  Biso   1.000  O
  C37      1.0000 0.64150  0.54980  0.15180  Biso   1.000  C
  C38      1.0000 0.72390  0.57610  0.24380  Biso   1.000  C
  C39      1.0000 0.74460  0.61770  0.42400  Biso   1.000  C
  C40      1.0000 0.94370  0.75120  0.95100  Biso   1.000  C
  H28      1.0000 0.70290  0.62190  0.49820  Biso   1.000  H
  H29      1.0000 0.90820  0.72100  0.06100  Biso   1.000  H
  H30      1.0000 0.94720  0.80490  0.94860  Biso   1.000  H
  O31      1.0000 0.97000  0.41040  0.24930  Biso   1.000  O
  O32      1.0000 0.89040  0.37200  0.98280  Biso   1.000  O
  O33      1.0000 0.79360  0.08600  0.77170  Biso   1.000  O
  C41      1.0000 0.90830  0.35850  0.15180  Biso   1.000  C
  C42      1.0000 0.85220  0.27610  0.24380  Biso   1.000  C
  C43      1.0000 0.87310  0.25540  0.42400  Biso   1.000  C
  C44      1.0000 0.80750  0.05630  0.95100  Biso   1.000  C
  H31      1.0000 0.91900  0.29710  0.49820  Biso   1.000  H
  H32      1.0000 0.81280  0.09180  0.06100  Biso   1.000  H
  H33      1.0000 0.85770  0.05280  0.94860  Biso   1.000  H
  O34      1.0000 0.44040  0.03000  0.24930  Biso   1.000  O
  O35      1.0000 0.48160  0.10960  0.98280  Biso   1.000  O
  O36      1.0000 0.29240  0.20640  0.77170  Biso   1.000  O
  C45      1.0000 0.45020  0.09170  0.15180  Biso   1.000  C
  C46      1.0000 0.42390  0.14780  0.24380  Biso   1.000  C
  C47      1.0000 0.38230  0.12690  0.42400  Biso   1.000  C
  C48      1.0000 0.24880  0.19250  0.95100  Biso   1.000  C
  H34      1.0000 0.37810  0.08100  0.49820  Biso   1.000  H
  H35      1.0000 0.27900  0.18720  0.06100  Biso   1.000  H
  H36      1.0000 0.19510  0.14230  0.94860  Biso   1.000  H
  Cu1      1.0000 0.47635  0.52365  0.15600  Biso   1.000  Cu
  Cu2      1.0000 0.47635  0.95270  0.15600  Biso   1.000  Cu
  Cu3      1.0000 0.04730  0.52365  0.15600  Biso   1.000  Cu
  Cu4      1.0000 0.52365  0.47635  0.84400  Biso   1.000  Cu
  Cu5      1.0000 0.95270  0.47635  0.84400  Biso   1.000  Cu
  Cu6      1.0000 0.52365  0.04730  0.84400  Biso   1.000  Cu
  C49      1.0000 0.35820  0.17910  0.51000  Biso   1.000  C
  C50      1.0000 0.44200  0.22100  0.15300  Biso   1.000  C
  C51      1.0000 0.31300  0.15650  0.69800  Biso   1.000  C
  H37      1.0000 0.46980  0.23490  0.03280  Biso   1.000  H
  C52      1.0000 0.82090  0.17910  0.51000  Biso   1.000  C
  C53      1.0000 0.77900  0.22100  0.15300  Biso   1.000  C
  C54      1.0000 0.84350  0.15650  0.69800  Biso   1.000  C
  H38      1.0000 0.76510  0.23490  0.03280  Biso   1.000  H
  C55      1.0000 0.82090  0.64180  0.51000  Biso   1.000  C
  C56      1.0000 0.77900  0.55800  0.15300  Biso   1.000  C
  C57      1.0000 0.84350  0.68700  0.69800  Biso   1.000  C
  H39      1.0000 0.76510  0.53020  0.03280  Biso   1.000  H
  C58      1.0000 0.17910  0.35820  0.49000  Biso   1.000  C
  C59      1.0000 0.22100  0.44200  0.84700  Biso   1.000  C
  C60      1.0000 0.15650  0.31300  0.30200  Biso   1.000  C
  H40      1.0000 0.23490  0.46980  0.96720  Biso   1.000  H
  C61      1.0000 0.17910  0.82090  0.49000  Biso   1.000  C
  C62      1.0000 0.22100  0.77900  0.84700  Biso   1.000  C
  C63      1.0000 0.15650  0.84350  0.30200  Biso   1.000  C
  H41      1.0000 0.23490  0.76510  0.96720  Biso   1.000  H
  C64      1.0000 0.64180  0.82090  0.49000  Biso   1.000  C
  C65      1.0000 0.55800  0.77900  0.84700  Biso   1.000  C
  C66      1.0000 0.68700  0.84350  0.30200  Biso   1.000  C
  H42      1.0000 0.53020  0.76510  0.96720  Biso   1.000  H
  H43      1.0000 0.23820  0.00000  0.00000  Biso   1.000  H
  H44      1.0000 0.00000  0.23820  0.00000  Biso   1.000  H
  H45      1.0000 0.76180  0.76180  0.00000  Biso   1.000  H
  H46      1.0000 0.76180  0.00000  0.00000  Biso   1.000  H
  H47      1.0000 0.00000  0.76180  0.00000  Biso   1.000  H
  H48      1.0000 0.23820  0.23820  0.00000  Biso   1.000  H
