data_image0
_cell_length_a       17.991
_cell_length_b       17.991
_cell_length_c       6.5371
_cell_angle_alpha    90
_cell_angle_beta     90
_cell_angle_gamma    120

_symmetry_space_group_name_H-M    "P 1"
_symmetry_int_tables_number       1

loop_
  _symmetry_equiv_pos_as_xyz
  'x, y, z'

loop_
  _atom_site_label
  _atom_site_occupancy
  _atom_site_fract_x
  _atom_site_fract_y
  _atom_site_fract_z
  _atom_site_thermal_displace_type
  _atom_site_B_iso_or_equiv
  _atom_site_type_symbol
  O1       1.0000 0.43420  0.41050  0.26200  Biso   1.000  O
  O2       1.0000 0.52070  0.63100  0.00200  Biso   1.000  O
  C1       1.0000 0.44620  0.35750  0.17200  Biso   1.000  C
  C2       1.0000 0.41980  0.27540  0.27300  Biso   1.000  C
  C3       1.0000 0.38040  0.25660  0.46600  Biso   1.000  C
  H1       1.0000 0.36990  0.29800  0.53400  Biso   1.000  H
  O3       1.0000 0.29340  0.08570  0.83800  Biso   1.000  O
  C4       1.0000 0.25180  0.05740  0.03800  Biso   1.000  C
  H2       1.0000 0.24200  0.00140  0.06540  Biso   1.000  H
  H3       1.0000 0.28790  0.09600  0.13920  Biso   1.000  H
  H4       1.0000 0.19880  0.05660  0.03430  Biso   1.000  H
  O4       1.0000 0.58950  0.02370  0.26200  Biso   1.000  O
  O5       1.0000 0.36900  0.88970  0.00200  Biso   1.000  O
  C5       1.0000 0.64250  0.08870  0.17200  Biso   1.000  C
  C6       1.0000 0.72460  0.14440  0.27300  Biso   1.000  C
  C7       1.0000 0.74340  0.12380  0.46600  Biso   1.000  C
  H5       1.0000 0.70200  0.07190  0.53400  Biso   1.000  H
  O6       1.0000 0.91430  0.20770  0.83800  Biso   1.000  O
  C8       1.0000 0.94260  0.19440  0.03800  Biso   1.000  C
  H6       1.0000 0.99860  0.24060  0.06540  Biso   1.000  H
  H7       1.0000 0.90400  0.19190  0.13920  Biso   1.000  H
  H8       1.0000 0.94340  0.14220  0.03430  Biso   1.000  H
  O7       1.0000 0.97630  0.56580  0.26200  Biso   1.000  O
  O8       1.0000 0.11030  0.47930  0.00200  Biso   1.000  O
  C9       1.0000 0.91130  0.55380  0.17200  Biso   1.000  C
  C10      1.0000 0.85560  0.58020  0.27300  Biso   1.000  C
  C11      1.0000 0.87620  0.61960  0.46600  Biso   1.000  C
  H9       1.0000 0.92810  0.63010  0.53400  Biso   1.000  H
  O9       1.0000 0.79230  0.70660  0.83800  Biso   1.000  O
  C12      1.0000 0.80560  0.74820  0.03800  Biso   1.000  C
  H10      1.0000 0.75940  0.75800  0.06540  Biso   1.000  H
  H11      1.0000 0.80810  0.71210  0.13920  Biso   1.000  H
  H12      1.0000 0.85780  0.80120  0.03430  Biso   1.000  H
  O10      1.0000 0.41050  0.43420  0.73800  Biso   1.000  O
  O11      1.0000 0.63100  0.52070  0.99800  Biso   1.000  O
  C13      1.0000 0.35750  0.44620  0.82800  Biso   1.000  C
  C14      1.0000 0.27540  0.41980  0.72700  Biso   1.000  C
  C15      1.0000 0.25660  0.38040  0.53400  Biso   1.000  C
  H13      1.0000 0.29800  0.36990  0.46600  Biso   1.000  H
  O12      1.0000 0.08570  0.29340  0.16200  Biso   1.000  O
  C16      1.0000 0.05740  0.25180  0.96200  Biso   1.000  C
  H14      1.0000 0.00140  0.24200  0.93460  Biso   1.000  H
  H15      1.0000 0.09600  0.28790  0.86080  Biso   1.000  H
  H16      1.0000 0.05660  0.19880  0.96570  Biso   1.000  H
  O13      1.0000 0.02370  0.58950  0.73800  Biso   1.000  O
  O14      1.0000 0.88970  0.36900  0.99800  Biso   1.000  O
  C17      1.0000 0.08870  0.64250  0.82800  Biso   1.000  C
  C18      1.0000 0.14440  0.72460  0.72700  Biso   1.000  C
  C19      1.0000 0.12380  0.74340  0.53400  Biso   1.000  C
  H17      1.0000 0.07190  0.70200  0.46600  Biso   1.000  H
  O15      1.0000 0.20770  0.91430  0.16200  Biso   1.000  O
  C20      1.0000 0.19440  0.94260  0.96200  Biso   1.000  C
  H18      1.0000 0.24060  0.99860  0.93460  Biso   1.000  H
  H19      1.0000 0.19190  0.90400  0.86080  Biso   1.000  H
  H20      1.0000 0.14220  0.94340  0.96570  Biso   1.000  H
  O16      1.0000 0.56580  0.97630  0.73800  Biso   1.000  O
  O17      1.0000 0.47930  0.11030  0.99800  Biso   1.000  O
  C21      1.0000 0.55380  0.91130  0.82800  Biso   1.000  C
  C22      1.0000 0.58020  0.85560  0.72700  Biso   1.000  C
  C23      1.0000 0.61960  0.87620  0.53400  Biso   1.000  C
  H21      1.0000 0.63010  0.92810  0.46600  Biso   1.000  H
  O18      1.0000 0.70660  0.79230  0.16200  Biso   1.000  O
  C24      1.0000 0.74820  0.80560  0.96200  Biso   1.000  C
  H22      1.0000 0.75800  0.75940  0.93460  Biso   1.000  H
  H23      1.0000 0.71210  0.80810  0.86080  Biso   1.000  H
  H24      1.0000 0.80120  0.85780  0.96570  Biso   1.000  H
  O19      1.0000 0.56580  0.58950  0.73800  Biso   1.000  O
  O20      1.0000 0.47930  0.36900  0.99800  Biso   1.000  O
  C25      1.0000 0.55380  0.64250  0.82800  Biso   1.000  C
  C26      1.0000 0.58020  0.72460  0.72700  Biso   1.000  C
  C27      1.0000 0.61960  0.74340  0.53400  Biso   1.000  C
  H25      1.0000 0.63010  0.70200  0.46600  Biso   1.000  H
  O21      1.0000 0.70660  0.91430  0.16200  Biso   1.000  O
  C28      1.0000 0.74820  0.94260  0.96200  Biso   1.000  C
  H26      1.0000 0.75800  0.99860  0.93460  Biso   1.000  H
  H27      1.0000 0.71210  0.90400  0.86080  Biso   1.000  H
  H28      1.0000 0.80120  0.94340  0.96570  Biso   1.000  H
  O22      1.0000 0.41050  0.97630  0.73800  Biso   1.000  O
  O23      1.0000 0.63100  0.11030  0.99800  Biso   1.000  O
  C29      1.0000 0.35750  0.91130  0.82800  Biso   1.000  C
  C30      1.0000 0.27540  0.85560  0.72700  Biso   1.000  C
  C31      1.0000 0.25660  0.87620  0.53400  Biso   1.000  C
  H29      1.0000 0.29800  0.92810  0.46600  Biso   1.000  H
  O24      1.0000 0.08570  0.79230  0.16200  Biso   1.000  O
  C32      1.0000 0.05740  0.80560  0.96200  Biso   1.000  C
  H30      1.0000 0.00140  0.75940  0.93460  Biso   1.000  H
  H31      1.0000 0.09600  0.80810  0.86080  Biso   1.000  H
  H32      1.0000 0.05660  0.85780  0.96570  Biso   1.000  H
  O25      1.0000 0.02370  0.43420  0.73800  Biso   1.000  O
  O26      1.0000 0.88970  0.52070  0.99800  Biso   1.000  O
  C33      1.0000 0.08870  0.44620  0.82800  Biso   1.000  C
  C34      1.0000 0.14440  0.41980  0.72700  Biso   1.000  C
  C35      1.0000 0.12380  0.38040  0.53400  Biso   1.000  C
  H33      1.0000 0.07190  0.36990  0.46600  Biso   1.000  H
  O27      1.0000 0.20770  0.29340  0.16200  Biso   1.000  O
  C36      1.0000 0.19440  0.25180  0.96200  Biso   1.000  C
  H34      1.0000 0.24060  0.24200  0.93460  Biso   1.000  H
  H35      1.0000 0.19190  0.28790  0.86080  Biso   1.000  H
  H36      1.0000 0.14220  0.19880  0.96570  Biso   1.000  H
  O28      1.0000 0.58950  0.56580  0.26200  Biso   1.000  O
  O29      1.0000 0.36900  0.47930  0.00200  Biso   1.000  O
  C37      1.0000 0.64250  0.55380  0.17200  Biso   1.000  C
  C38      1.0000 0.72460  0.58020  0.27300  Biso   1.000  C
  C39      1.0000 0.74340  0.61960  0.46600  Biso   1.000  C
  H37      1.0000 0.70200  0.63010  0.53400  Biso   1.000  H
  O30      1.0000 0.91430  0.70660  0.83800  Biso   1.000  O
  C40      1.0000 0.94260  0.74820  0.03800  Biso   1.000  C
  H38      1.0000 0.99860  0.75800  0.06540  Biso   1.000  H
  H39      1.0000 0.90400  0.71210  0.13920  Biso   1.000  H
  H40      1.0000 0.94340  0.80120  0.03430  Biso   1.000  H
  O31      1.0000 0.97630  0.41050  0.26200  Biso   1.000  O
  O32      1.0000 0.11030  0.63100  0.00200  Biso   1.000  O
  C41      1.0000 0.91130  0.35750  0.17200  Biso   1.000  C
  C42      1.0000 0.85560  0.27540  0.27300  Biso   1.000  C
  C43      1.0000 0.87620  0.25660  0.46600  Biso   1.000  C
  H41      1.0000 0.92810  0.29800  0.53400  Biso   1.000  H
  O33      1.0000 0.79230  0.08570  0.83800  Biso   1.000  O
  C44      1.0000 0.80560  0.05740  0.03800  Biso   1.000  C
  H42      1.0000 0.75940  0.00140  0.06540  Biso   1.000  H
  H43      1.0000 0.80810  0.09600  0.13920  Biso   1.000  H
  H44      1.0000 0.85780  0.05660  0.03430  Biso   1.000  H
  O34      1.0000 0.43420  0.02370  0.26200  Biso   1.000  O
  O35      1.0000 0.52070  0.88970  0.00200  Biso   1.000  O
  C45      1.0000 0.44620  0.08870  0.17200  Biso   1.000  C
  C46      1.0000 0.41980  0.14440  0.27300  Biso   1.000  C
  C47      1.0000 0.38040  0.12380  0.46600  Biso   1.000  C
  H45      1.0000 0.36990  0.07190  0.53400  Biso   1.000  H
  O36      1.0000 0.29340  0.20770  0.83800  Biso   1.000  O
  C48      1.0000 0.25180  0.19440  0.03800  Biso   1.000  C
  H46      1.0000 0.24200  0.24060  0.06540  Biso   1.000  H
  H47      1.0000 0.28790  0.19190  0.13920  Biso   1.000  H
  H48      1.0000 0.19880  0.14220  0.03430  Biso   1.000  H
  Cu1      1.0000 0.47388  0.52612  0.15520  Biso   1.000  Cu
  Cu2      1.0000 0.47388  0.94776  0.15520  Biso   1.000  Cu
  Cu3      1.0000 0.05224  0.52612  0.15520  Biso   1.000  Cu
  Cu4      1.0000 0.52612  0.47388  0.84480  Biso   1.000  Cu
  Cu5      1.0000 0.94776  0.47388  0.84480  Biso   1.000  Cu
  Cu6      1.0000 0.52612  0.05224  0.84480  Biso   1.000  Cu
  C49      1.0000 0.43410  0.21705  0.18000  Biso   1.000  C
  C50      1.0000 0.35660  0.17830  0.55600  Biso   1.000  C
  H49      1.0000 0.45610  0.22805  0.04440  Biso   1.000  H
  C51      1.0000 0.31410  0.15705  0.76200  Biso   1.000  C
  C52      1.0000 0.78295  0.21705  0.18000  Biso   1.000  C
  C53      1.0000 0.82170  0.17830  0.55600  Biso   1.000  C
  H50      1.0000 0.77195  0.22805  0.04440  Biso   1.000  H
  C54      1.0000 0.84295  0.15705  0.76200  Biso   1.000  C
  C55      1.0000 0.78295  0.56590  0.18000  Biso   1.000  C
  C56      1.0000 0.82170  0.64340  0.55600  Biso   1.000  C
  H51      1.0000 0.77195  0.54390  0.04440  Biso   1.000  H
  C57      1.0000 0.84295  0.68590  0.76200  Biso   1.000  C
  C58      1.0000 0.21705  0.43410  0.82000  Biso   1.000  C
  C59      1.0000 0.17830  0.35660  0.44400  Biso   1.000  C
  H52      1.0000 0.22805  0.45610  0.95560  Biso   1.000  H
  C60      1.0000 0.15705  0.31410  0.23800  Biso   1.000  C
  C61      1.0000 0.21705  0.78295  0.82000  Biso   1.000  C
  C62      1.0000 0.17830  0.82170  0.44400  Biso   1.000  C
  H53      1.0000 0.22805  0.77195  0.95560  Biso   1.000  H
  C63      1.0000 0.15705  0.84295  0.23800  Biso   1.000  C
  C64      1.0000 0.56590  0.78295  0.82000  Biso   1.000  C
  C65      1.0000 0.64340  0.82170  0.44400  Biso   1.000  C
  H54      1.0000 0.54390  0.77195  0.95560  Biso   1.000  H
  C66      1.0000 0.68590  0.84295  0.23800  Biso   1.000  C
