data_image0
_cell_length_a       13.063
_cell_length_b       9.9017
_cell_length_c       17.472
_cell_angle_alpha    90
_cell_angle_beta     90
_cell_angle_gamma    90

_symmetry_space_group_name_H-M    "P 1"
_symmetry_int_tables_number       1

loop_
  _symmetry_equiv_pos_as_xyz
  'x, y, z'

loop_
  _atom_site_label
  _atom_site_occupancy
  _atom_site_fract_x
  _atom_site_fract_y
  _atom_site_fract_z
  _atom_site_thermal_displace_type
  _atom_site_B_iso_or_equiv
  _atom_site_type_symbol
  O1       1.0000 0.15010  0.05240  0.91770  Biso   1.000  O
  O2       1.0000 0.22620  0.24040  0.88150  Biso   1.000  O
  N1       1.0000 0.86190  0.50450  0.26060  Biso   1.000  N
  N2       1.0000 0.01270  0.54900  0.20700  Biso   1.000  N
  N3       1.0000 0.96370  0.45130  0.16720  Biso   1.000  N
  C1       1.0000 0.94840  0.57730  0.26340  Biso   1.000  C
  H1       1.0000 0.96190  0.64120  0.30110  Biso   1.000  H
  C2       1.0000 0.87470  0.42860  0.19910  Biso   1.000  C
  H2       1.0000 0.82680  0.36710  0.18090  Biso   1.000  H
  C3       1.0000 0.01180  0.38510  0.10430  Biso   1.000  C
  C4       1.0000 0.09510  0.44240  0.06990  Biso   1.000  C
  H3       1.0000 0.12020  0.52510  0.08680  Biso   1.000  H
  C5       1.0000 0.97570  0.26370  0.08060  Biso   1.000  C
  H4       1.0000 0.91820  0.22610  0.10360  Biso   1.000  H
  C6       1.0000 0.14120  0.37570  0.00980  Biso   1.000  C
  H5       1.0000 0.19570  0.41680  0.98470  Biso   1.000  H
  C7       1.0000 0.02530  0.19550  0.02120  Biso   1.000  C
  H6       1.0000 0.00140  0.11160  0.00530  Biso   1.000  H
  C8       1.0000 0.10950  0.25200  0.98630  Biso   1.000  C
  C9       1.0000 0.16560  0.17830  0.92540  Biso   1.000  C
  O3       1.0000 0.34990  0.94760  0.91770  Biso   1.000  O
  O4       1.0000 0.27380  0.75960  0.88150  Biso   1.000  O
  N4       1.0000 0.63810  0.49550  0.26060  Biso   1.000  N
  N5       1.0000 0.48730  0.45100  0.20700  Biso   1.000  N
  N6       1.0000 0.53630  0.54870  0.16720  Biso   1.000  N
  C10      1.0000 0.55160  0.42270  0.26340  Biso   1.000  C
  H7       1.0000 0.53810  0.35880  0.30110  Biso   1.000  H
  C11      1.0000 0.62530  0.57140  0.19910  Biso   1.000  C
  H8       1.0000 0.67320  0.63290  0.18090  Biso   1.000  H
  C12      1.0000 0.48820  0.61490  0.10430  Biso   1.000  C
  C13      1.0000 0.40490  0.55760  0.06990  Biso   1.000  C
  H9       1.0000 0.37980  0.47490  0.08680  Biso   1.000  H
  C14      1.0000 0.52430  0.73630  0.08060  Biso   1.000  C
  H10      1.0000 0.58180  0.77390  0.10360  Biso   1.000  H
  C15      1.0000 0.35880  0.62430  0.00980  Biso   1.000  C
  H11      1.0000 0.30430  0.58320  0.98470  Biso   1.000  H
  C16      1.0000 0.47470  0.80450  0.02120  Biso   1.000  C
  H12      1.0000 0.49860  0.88840  0.00530  Biso   1.000  H
  C17      1.0000 0.39050  0.74800  0.98630  Biso   1.000  C
  C18      1.0000 0.33440  0.82170  0.92540  Biso   1.000  C
  O5       1.0000 0.65010  0.44760  0.41770  Biso   1.000  O
  O6       1.0000 0.72620  0.25960  0.38150  Biso   1.000  O
  N7       1.0000 0.36190  0.99550  0.76060  Biso   1.000  N
  N8       1.0000 0.51270  0.95100  0.70700  Biso   1.000  N
  N9       1.0000 0.46370  0.04870  0.66720  Biso   1.000  N
  C19      1.0000 0.44840  0.92270  0.76340  Biso   1.000  C
  H13      1.0000 0.46190  0.85880  0.80110  Biso   1.000  H
  C20      1.0000 0.37470  0.07140  0.69910  Biso   1.000  C
  H14      1.0000 0.32680  0.13290  0.68090  Biso   1.000  H
  C21      1.0000 0.51180  0.11490  0.60430  Biso   1.000  C
  C22      1.0000 0.59510  0.05760  0.56990  Biso   1.000  C
  H15      1.0000 0.62020  0.97490  0.58680  Biso   1.000  H
  C23      1.0000 0.47570  0.23630  0.58060  Biso   1.000  C
  H16      1.0000 0.41820  0.27390  0.60360  Biso   1.000  H
  C24      1.0000 0.64120  0.12430  0.50980  Biso   1.000  C
  H17      1.0000 0.69570  0.08320  0.48470  Biso   1.000  H
  C25      1.0000 0.52530  0.30450  0.52120  Biso   1.000  C
  H18      1.0000 0.50140  0.38840  0.50530  Biso   1.000  H
  C26      1.0000 0.60950  0.24800  0.48630  Biso   1.000  C
  C27      1.0000 0.66560  0.32170  0.42540  Biso   1.000  C
  O7       1.0000 0.84990  0.55240  0.41770  Biso   1.000  O
  O8       1.0000 0.77380  0.74040  0.38150  Biso   1.000  O
  N10      1.0000 0.13810  0.00450  0.76060  Biso   1.000  N
  N11      1.0000 0.98730  0.04900  0.70700  Biso   1.000  N
  N12      1.0000 0.03630  0.95130  0.66720  Biso   1.000  N
  C28      1.0000 0.05160  0.07730  0.76340  Biso   1.000  C
  H19      1.0000 0.03810  0.14120  0.80110  Biso   1.000  H
  C29      1.0000 0.12530  0.92860  0.69910  Biso   1.000  C
  H20      1.0000 0.17320  0.86710  0.68090  Biso   1.000  H
  C30      1.0000 0.98820  0.88510  0.60430  Biso   1.000  C
  C31      1.0000 0.90490  0.94240  0.56990  Biso   1.000  C
  H21      1.0000 0.87980  0.02510  0.58680  Biso   1.000  H
  C32      1.0000 0.02430  0.76370  0.58060  Biso   1.000  C
  H22      1.0000 0.08180  0.72610  0.60360  Biso   1.000  H
  C33      1.0000 0.85880  0.87570  0.50980  Biso   1.000  C
  H23      1.0000 0.80430  0.91680  0.48470  Biso   1.000  H
  C34      1.0000 0.97470  0.69550  0.52120  Biso   1.000  C
  H24      1.0000 0.99860  0.61160  0.50530  Biso   1.000  H
  C35      1.0000 0.89050  0.75200  0.48630  Biso   1.000  C
  C36      1.0000 0.83440  0.67830  0.42540  Biso   1.000  C
  Cu1      1.0000 0.75000  0.50000  0.33823  Biso   1.000  Cu
  Cu2      1.0000 0.25000  0.00000  0.83823  Biso   1.000  Cu
  O9       1.0000 0.34990  0.55240  0.58230  Biso   1.000  O
  O10      1.0000 0.27380  0.74040  0.61850  Biso   1.000  O
  N13      1.0000 0.63810  0.00450  0.23940  Biso   1.000  N
  N14      1.0000 0.48730  0.04900  0.29300  Biso   1.000  N
  N15      1.0000 0.53630  0.95130  0.33280  Biso   1.000  N
  C37      1.0000 0.55160  0.07730  0.23660  Biso   1.000  C
  H25      1.0000 0.53810  0.14120  0.19890  Biso   1.000  H
  C38      1.0000 0.62530  0.92860  0.30090  Biso   1.000  C
  H26      1.0000 0.67320  0.86710  0.31910  Biso   1.000  H
  C39      1.0000 0.48820  0.88510  0.39570  Biso   1.000  C
  C40      1.0000 0.40490  0.94240  0.43010  Biso   1.000  C
  H27      1.0000 0.37980  0.02510  0.41320  Biso   1.000  H
  C41      1.0000 0.52430  0.76370  0.41940  Biso   1.000  C
  H28      1.0000 0.58180  0.72610  0.39640  Biso   1.000  H
  C42      1.0000 0.35880  0.87570  0.49020  Biso   1.000  C
  H29      1.0000 0.30430  0.91680  0.51530  Biso   1.000  H
  C43      1.0000 0.47470  0.69550  0.47880  Biso   1.000  C
  H30      1.0000 0.49860  0.61160  0.49470  Biso   1.000  H
  C44      1.0000 0.39050  0.75200  0.51370  Biso   1.000  C
  C45      1.0000 0.33440  0.67830  0.57460  Biso   1.000  C
  O11      1.0000 0.15010  0.44760  0.58230  Biso   1.000  O
  O12      1.0000 0.22620  0.25960  0.61850  Biso   1.000  O
  N16      1.0000 0.86190  0.99550  0.23940  Biso   1.000  N
  N17      1.0000 0.01270  0.95100  0.29300  Biso   1.000  N
  N18      1.0000 0.96370  0.04870  0.33280  Biso   1.000  N
  C46      1.0000 0.94840  0.92270  0.23660  Biso   1.000  C
  H31      1.0000 0.96190  0.85880  0.19890  Biso   1.000  H
  C47      1.0000 0.87470  0.07140  0.30090  Biso   1.000  C
  H32      1.0000 0.82680  0.13290  0.31910  Biso   1.000  H
  C48      1.0000 0.01180  0.11490  0.39570  Biso   1.000  C
  C49      1.0000 0.09510  0.05760  0.43010  Biso   1.000  C
  H33      1.0000 0.12020  0.97490  0.41320  Biso   1.000  H
  C50      1.0000 0.97570  0.23630  0.41940  Biso   1.000  C
  H34      1.0000 0.91820  0.27390  0.39640  Biso   1.000  H
  C51      1.0000 0.14120  0.12430  0.49020  Biso   1.000  C
  H35      1.0000 0.19570  0.08320  0.51530  Biso   1.000  H
  C52      1.0000 0.02530  0.30450  0.47880  Biso   1.000  C
  H36      1.0000 0.00140  0.38840  0.49470  Biso   1.000  H
  C53      1.0000 0.10950  0.24800  0.51370  Biso   1.000  C
  C54      1.0000 0.16560  0.32170  0.57460  Biso   1.000  C
  O13      1.0000 0.84990  0.94760  0.08230  Biso   1.000  O
  O14      1.0000 0.77380  0.75960  0.11850  Biso   1.000  O
  N19      1.0000 0.13810  0.49550  0.73940  Biso   1.000  N
  N20      1.0000 0.98730  0.45100  0.79300  Biso   1.000  N
  N21      1.0000 0.03630  0.54870  0.83280  Biso   1.000  N
  C55      1.0000 0.05160  0.42270  0.73660  Biso   1.000  C
  H37      1.0000 0.03810  0.35880  0.69890  Biso   1.000  H
  C56      1.0000 0.12530  0.57140  0.80090  Biso   1.000  C
  H38      1.0000 0.17320  0.63290  0.81910  Biso   1.000  H
  C57      1.0000 0.98820  0.61490  0.89570  Biso   1.000  C
  C58      1.0000 0.90490  0.55760  0.93010  Biso   1.000  C
  H39      1.0000 0.87980  0.47490  0.91320  Biso   1.000  H
  C59      1.0000 0.02430  0.73630  0.91940  Biso   1.000  C
  H40      1.0000 0.08180  0.77390  0.89640  Biso   1.000  H
  C60      1.0000 0.85880  0.62430  0.99020  Biso   1.000  C
  H41      1.0000 0.80430  0.58320  0.01530  Biso   1.000  H
  C61      1.0000 0.97470  0.80450  0.97880  Biso   1.000  C
  H42      1.0000 0.99860  0.88840  0.99470  Biso   1.000  H
  C62      1.0000 0.89050  0.74800  0.01370  Biso   1.000  C
  C63      1.0000 0.83440  0.82170  0.07460  Biso   1.000  C
  O15      1.0000 0.65010  0.05240  0.08230  Biso   1.000  O
  O16      1.0000 0.72620  0.24040  0.11850  Biso   1.000  O
  N22      1.0000 0.36190  0.50450  0.73940  Biso   1.000  N
  N23      1.0000 0.51270  0.54900  0.79300  Biso   1.000  N
  N24      1.0000 0.46370  0.45130  0.83280  Biso   1.000  N
  C64      1.0000 0.44840  0.57730  0.73660  Biso   1.000  C
  H43      1.0000 0.46190  0.64120  0.69890  Biso   1.000  H
  C65      1.0000 0.37470  0.42860  0.80090  Biso   1.000  C
  H44      1.0000 0.32680  0.36710  0.81910  Biso   1.000  H
  C66      1.0000 0.51180  0.38510  0.89570  Biso   1.000  C
  C67      1.0000 0.59510  0.44240  0.93010  Biso   1.000  C
  H45      1.0000 0.62020  0.52510  0.91320  Biso   1.000  H
  C68      1.0000 0.47570  0.26370  0.91940  Biso   1.000  C
  H46      1.0000 0.41820  0.22610  0.89640  Biso   1.000  H
  C69      1.0000 0.64120  0.37570  0.99020  Biso   1.000  C
  H47      1.0000 0.69570  0.41680  0.01530  Biso   1.000  H
  C70      1.0000 0.52530  0.19550  0.97880  Biso   1.000  C
  H48      1.0000 0.50140  0.11160  0.99470  Biso   1.000  H
  C71      1.0000 0.60950  0.25200  0.01370  Biso   1.000  C
  C72      1.0000 0.66560  0.17830  0.07460  Biso   1.000  C
  Cu3      1.0000 0.75000  0.00000  0.16177  Biso   1.000  Cu
  Cu4      1.0000 0.25000  0.50000  0.66177  Biso   1.000  Cu
