data_image0
_cell_length_a       15.629
_cell_length_b       15.991
_cell_length_c       9.2343
_cell_angle_alpha    90
_cell_angle_beta     102.774
_cell_angle_gamma    90

_symmetry_space_group_name_H-M    "P 1"
_symmetry_int_tables_number       1

loop_
  _symmetry_equiv_pos_as_xyz
  'x, y, z'

loop_
  _atom_site_label
  _atom_site_occupancy
  _atom_site_fract_x
  _atom_site_fract_y
  _atom_site_fract_z
  _atom_site_thermal_displace_type
  _atom_site_B_iso_or_equiv
  _atom_site_type_symbol
  O1       1.0000 0.88982  0.57855  0.57200  Biso   1.000  O
  O2       1.0000 0.90120  0.50132  0.77430  Biso   1.000  O
  N1       1.0000 0.54096  0.86386  0.95050  Biso   1.000  N
  N2       1.0000 0.55930  0.72467  0.97390  Biso   1.000  N
  N3       1.0000 0.61111  0.75756  0.88670  Biso   1.000  N
  C1       1.0000 0.51870  0.79120  0.00750  Biso   1.000  C
  H1       1.0000 0.47750  0.78860  0.06620  Biso   1.000  H
  C2       1.0000 0.59950  0.83960  0.87530  Biso   1.000  C
  H2       1.0000 0.62840  0.87500  0.82210  Biso   1.000  H
  C3       1.0000 0.67240  0.70670  0.83170  Biso   1.000  C
  C4       1.0000 0.69420  0.62890  0.89210  Biso   1.000  C
  H3       1.0000 0.66740  0.60840  0.96530  Biso   1.000  H
  C5       1.0000 0.71280  0.73750  0.72510  Biso   1.000  C
  H4       1.0000 0.69890  0.79070  0.68610  Biso   1.000  H
  C6       1.0000 0.75570  0.58180  0.84360  Biso   1.000  C
  H5       1.0000 0.76960  0.52880  0.88360  Biso   1.000  H
  C7       1.0000 0.77440  0.68900  0.67570  Biso   1.000  C
  H6       1.0000 0.80030  0.70910  0.60110  Biso   1.000  H
  C8       1.0000 0.79740  0.61136  0.73670  Biso   1.000  C
  C9       1.0000 0.86810  0.56050  0.69020  Biso   1.000  C
  O3       1.0000 0.38982  0.07855  0.57200  Biso   1.000  O
  O4       1.0000 0.40120  0.00132  0.77430  Biso   1.000  O
  N4       1.0000 0.04096  0.36386  0.95050  Biso   1.000  N
  N5       1.0000 0.05930  0.22467  0.97390  Biso   1.000  N
  N6       1.0000 0.11111  0.25756  0.88670  Biso   1.000  N
  C10      1.0000 0.01870  0.29120  0.00750  Biso   1.000  C
  H7       1.0000 0.97750  0.28860  0.06620  Biso   1.000  H
  C11      1.0000 0.09950  0.33960  0.87530  Biso   1.000  C
  H8       1.0000 0.12840  0.37500  0.82210  Biso   1.000  H
  C12      1.0000 0.17240  0.20670  0.83170  Biso   1.000  C
  C13      1.0000 0.19420  0.12890  0.89210  Biso   1.000  C
  H9       1.0000 0.16740  0.10840  0.96530  Biso   1.000  H
  C14      1.0000 0.21280  0.23750  0.72510  Biso   1.000  C
  H10      1.0000 0.19890  0.29070  0.68610  Biso   1.000  H
  C15      1.0000 0.25570  0.08180  0.84360  Biso   1.000  C
  H11      1.0000 0.26960  0.02880  0.88360  Biso   1.000  H
  C16      1.0000 0.27440  0.18900  0.67570  Biso   1.000  C
  H12      1.0000 0.30030  0.20910  0.60110  Biso   1.000  H
  C17      1.0000 0.29740  0.11136  0.73670  Biso   1.000  C
  C18      1.0000 0.36810  0.06050  0.69020  Biso   1.000  C
  O5       1.0000 0.11018  0.57855  0.92800  Biso   1.000  O
  O6       1.0000 0.09880  0.50132  0.72570  Biso   1.000  O
  N7       1.0000 0.45904  0.86386  0.54950  Biso   1.000  N
  N8       1.0000 0.44070  0.72467  0.52610  Biso   1.000  N
  N9       1.0000 0.38889  0.75756  0.61330  Biso   1.000  N
  C19      1.0000 0.48130  0.79120  0.49250  Biso   1.000  C
  H13      1.0000 0.52250  0.78860  0.43380  Biso   1.000  H
  C20      1.0000 0.40050  0.83960  0.62470  Biso   1.000  C
  H14      1.0000 0.37160  0.87500  0.67790  Biso   1.000  H
  C21      1.0000 0.32760  0.70670  0.66830  Biso   1.000  C
  C22      1.0000 0.30580  0.62890  0.60790  Biso   1.000  C
  H15      1.0000 0.33260  0.60840  0.53470  Biso   1.000  H
  C23      1.0000 0.28720  0.73750  0.77490  Biso   1.000  C
  H16      1.0000 0.30110  0.79070  0.81390  Biso   1.000  H
  C24      1.0000 0.24430  0.58180  0.65640  Biso   1.000  C
  H17      1.0000 0.23040  0.52880  0.61640  Biso   1.000  H
  C25      1.0000 0.22560  0.68900  0.82430  Biso   1.000  C
  H18      1.0000 0.19970  0.70910  0.89890  Biso   1.000  H
  C26      1.0000 0.20260  0.61136  0.76330  Biso   1.000  C
  C27      1.0000 0.13190  0.56050  0.80980  Biso   1.000  C
  O7       1.0000 0.61018  0.07855  0.92800  Biso   1.000  O
  O8       1.0000 0.59880  0.00132  0.72570  Biso   1.000  O
  N10      1.0000 0.95904  0.36386  0.54950  Biso   1.000  N
  N11      1.0000 0.94070  0.22467  0.52610  Biso   1.000  N
  N12      1.0000 0.88889  0.25756  0.61330  Biso   1.000  N
  C28      1.0000 0.98130  0.29120  0.49250  Biso   1.000  C
  H19      1.0000 0.02250  0.28860  0.43380  Biso   1.000  H
  C29      1.0000 0.90050  0.33960  0.62470  Biso   1.000  C
  H20      1.0000 0.87160  0.37500  0.67790  Biso   1.000  H
  C30      1.0000 0.82760  0.20670  0.66830  Biso   1.000  C
  C31      1.0000 0.80580  0.12890  0.60790  Biso   1.000  C
  H21      1.0000 0.83260  0.10840  0.53470  Biso   1.000  H
  C32      1.0000 0.78720  0.23750  0.77490  Biso   1.000  C
  H22      1.0000 0.80110  0.29070  0.81390  Biso   1.000  H
  C33      1.0000 0.74430  0.08180  0.65640  Biso   1.000  C
  H23      1.0000 0.73040  0.02880  0.61640  Biso   1.000  H
  C34      1.0000 0.72560  0.18900  0.82430  Biso   1.000  C
  H24      1.0000 0.69970  0.20910  0.89890  Biso   1.000  H
  C35      1.0000 0.70260  0.11136  0.76330  Biso   1.000  C
  C36      1.0000 0.63190  0.06050  0.80980  Biso   1.000  C
  O9       1.0000 0.11018  0.42145  0.42800  Biso   1.000  O
  O10      1.0000 0.09880  0.49868  0.22570  Biso   1.000  O
  N13      1.0000 0.45904  0.13614  0.04950  Biso   1.000  N
  N14      1.0000 0.44070  0.27533  0.02610  Biso   1.000  N
  N15      1.0000 0.38889  0.24244  0.11330  Biso   1.000  N
  C37      1.0000 0.48130  0.20880  0.99250  Biso   1.000  C
  H25      1.0000 0.52250  0.21140  0.93380  Biso   1.000  H
  C38      1.0000 0.40050  0.16040  0.12470  Biso   1.000  C
  H26      1.0000 0.37160  0.12500  0.17790  Biso   1.000  H
  C39      1.0000 0.32760  0.29330  0.16830  Biso   1.000  C
  C40      1.0000 0.30580  0.37110  0.10790  Biso   1.000  C
  H27      1.0000 0.33260  0.39160  0.03470  Biso   1.000  H
  C41      1.0000 0.28720  0.26250  0.27490  Biso   1.000  C
  H28      1.0000 0.30110  0.20930  0.31390  Biso   1.000  H
  C42      1.0000 0.24430  0.41820  0.15640  Biso   1.000  C
  H29      1.0000 0.23040  0.47120  0.11640  Biso   1.000  H
  C43      1.0000 0.22560  0.31100  0.32430  Biso   1.000  C
  H30      1.0000 0.19970  0.29090  0.39890  Biso   1.000  H
  C44      1.0000 0.20260  0.38864  0.26330  Biso   1.000  C
  C45      1.0000 0.13190  0.43950  0.30980  Biso   1.000  C
  O11      1.0000 0.61018  0.92145  0.42800  Biso   1.000  O
  O12      1.0000 0.59880  0.99868  0.22570  Biso   1.000  O
  N16      1.0000 0.95904  0.63614  0.04950  Biso   1.000  N
  N17      1.0000 0.94070  0.77533  0.02610  Biso   1.000  N
  N18      1.0000 0.88889  0.74244  0.11330  Biso   1.000  N
  C46      1.0000 0.98130  0.70880  0.99250  Biso   1.000  C
  H31      1.0000 0.02250  0.71140  0.93380  Biso   1.000  H
  C47      1.0000 0.90050  0.66040  0.12470  Biso   1.000  C
  H32      1.0000 0.87160  0.62500  0.17790  Biso   1.000  H
  C48      1.0000 0.82760  0.79330  0.16830  Biso   1.000  C
  C49      1.0000 0.80580  0.87110  0.10790  Biso   1.000  C
  H33      1.0000 0.83260  0.89160  0.03470  Biso   1.000  H
  C50      1.0000 0.78720  0.76250  0.27490  Biso   1.000  C
  H34      1.0000 0.80110  0.70930  0.31390  Biso   1.000  H
  C51      1.0000 0.74430  0.91820  0.15640  Biso   1.000  C
  H35      1.0000 0.73040  0.97120  0.11640  Biso   1.000  H
  C52      1.0000 0.72560  0.81100  0.32430  Biso   1.000  C
  H36      1.0000 0.69970  0.79090  0.39890  Biso   1.000  H
  C53      1.0000 0.70260  0.88864  0.26330  Biso   1.000  C
  C54      1.0000 0.63190  0.93950  0.30980  Biso   1.000  C
  O13      1.0000 0.88982  0.42145  0.07200  Biso   1.000  O
  O14      1.0000 0.90120  0.49868  0.27430  Biso   1.000  O
  N19      1.0000 0.54096  0.13614  0.45050  Biso   1.000  N
  N20      1.0000 0.55930  0.27533  0.47390  Biso   1.000  N
  N21      1.0000 0.61111  0.24244  0.38670  Biso   1.000  N
  C55      1.0000 0.51870  0.20880  0.50750  Biso   1.000  C
  H37      1.0000 0.47750  0.21140  0.56620  Biso   1.000  H
  C56      1.0000 0.59950  0.16040  0.37530  Biso   1.000  C
  H38      1.0000 0.62840  0.12500  0.32210  Biso   1.000  H
  C57      1.0000 0.67240  0.29330  0.33170  Biso   1.000  C
  C58      1.0000 0.69420  0.37110  0.39210  Biso   1.000  C
  H39      1.0000 0.66740  0.39160  0.46530  Biso   1.000  H
  C59      1.0000 0.71280  0.26250  0.22510  Biso   1.000  C
  H40      1.0000 0.69890  0.20930  0.18610  Biso   1.000  H
  C60      1.0000 0.75570  0.41820  0.34360  Biso   1.000  C
  H41      1.0000 0.76960  0.47120  0.38360  Biso   1.000  H
  C61      1.0000 0.77440  0.31100  0.17570  Biso   1.000  C
  H42      1.0000 0.80030  0.29090  0.10110  Biso   1.000  H
  C62      1.0000 0.79740  0.38864  0.23670  Biso   1.000  C
  C63      1.0000 0.86810  0.43950  0.19020  Biso   1.000  C
  O15      1.0000 0.38982  0.92145  0.07200  Biso   1.000  O
  O16      1.0000 0.40120  0.99868  0.27430  Biso   1.000  O
  N22      1.0000 0.04096  0.63614  0.45050  Biso   1.000  N
  N23      1.0000 0.05930  0.77533  0.47390  Biso   1.000  N
  N24      1.0000 0.11111  0.74244  0.38670  Biso   1.000  N
  C64      1.0000 0.01870  0.70880  0.50750  Biso   1.000  C
  H43      1.0000 0.97750  0.71140  0.56620  Biso   1.000  H
  C65      1.0000 0.09950  0.66040  0.37530  Biso   1.000  C
  H44      1.0000 0.12840  0.62500  0.32210  Biso   1.000  H
  C66      1.0000 0.17240  0.79330  0.33170  Biso   1.000  C
  C67      1.0000 0.19420  0.87110  0.39210  Biso   1.000  C
  H45      1.0000 0.16740  0.89160  0.46530  Biso   1.000  H
  C68      1.0000 0.21280  0.76250  0.22510  Biso   1.000  C
  H46      1.0000 0.19890  0.70930  0.18610  Biso   1.000  H
  C69      1.0000 0.25570  0.91820  0.34360  Biso   1.000  C
  H47      1.0000 0.26960  0.97120  0.38360  Biso   1.000  H
  C70      1.0000 0.27440  0.81100  0.17570  Biso   1.000  C
  H48      1.0000 0.30030  0.79090  0.10110  Biso   1.000  H
  C71      1.0000 0.29740  0.88864  0.23670  Biso   1.000  C
  C72      1.0000 0.36810  0.93950  0.19020  Biso   1.000  C
  Cd1      1.0000 0.50000  0.00000  0.00000  Biso   1.000  Cd
  Cd2      1.0000 0.00000  0.50000  0.00000  Biso   1.000  Cd
  Cd3      1.0000 0.50000  0.00000  0.50000  Biso   1.000  Cd
  Cd4      1.0000 0.00000  0.50000  0.50000  Biso   1.000  Cd
