data_LUFNAC_clean
_audit_creation_date              2014-07-02
_audit_creation_method            'Materials Studio'
_symmetry_space_group_name_H-M    'P1'
_symmetry_Int_Tables_number       1
_symmetry_cell_setting            triclinic
loop_
_symmetry_equiv_pos_as_xyz
  x,y,z
_cell_length_a                    11.8326
_cell_length_b                    11.8326
_cell_length_c                    16.4440
_cell_angle_alpha                 73.1583
_cell_angle_beta                  73.1583
_cell_angle_gamma                 78.8684
loop_
_atom_site_label
_atom_site_type_symbol
_atom_site_fract_x
_atom_site_fract_y
_atom_site_fract_z
_atom_site_U_iso_or_equiv
_atom_site_adp_type
_atom_site_occupancy
Mn1    Mn    0.83611   0.61985   0.04414   0.01267  Uiso   1.00
Mn2    Mn    0.38015   0.16389   0.45586   0.01267  Uiso   1.00
Mn3    Mn    0.16389   0.38015   0.95586   0.01267  Uiso   1.00
Mn4    Mn    0.61985   0.83611   0.54414   0.01267  Uiso   1.00
H1     H     0.66450   0.81350   0.27310   0.01267  Uiso   1.00
H2     H     0.45190   0.16650   0.03820   0.01267  Uiso   1.00
H3     H     0.57230   0.98130   0.04780   0.01267  Uiso   1.00
H4     H     0.37420   0.26780   0.17250   0.01267  Uiso   1.00
H5     H     0.36170   0.32990   0.07700   0.01267  Uiso   1.00
H6     H     0.48460   0.14000   0.24720   0.01267  Uiso   1.00
H7     H     0.63900   0.28860   0.00980   0.01267  Uiso   1.00
H8     H     0.42180   0.46320   0.17730   0.01267  Uiso   1.00
H9     H     0.77460   0.41600   0.98420   0.01267  Uiso   1.00
H10    H     0.56490   0.58330   0.14920   0.01267  Uiso   1.00
H11    H     0.18650   0.33550   0.22690   0.01267  Uiso   1.00
H12    H     0.83350   0.54810   0.46180   0.01267  Uiso   1.00
H13    H     0.01870   0.42770   0.45220   0.01267  Uiso   1.00
H14    H     0.73220   0.62580   0.32750   0.01267  Uiso   1.00
H15    H     0.67010   0.63830   0.42300   0.01267  Uiso   1.00
H16    H     0.86000   0.51540   0.25280   0.01267  Uiso   1.00
H17    H     0.71140   0.36100   0.49020   0.01267  Uiso   1.00
H18    H     0.53680   0.57820   0.32270   0.01267  Uiso   1.00
H19    H     0.58400   0.22540   0.51580   0.01267  Uiso   1.00
H20    H     0.41670   0.43510   0.35080   0.01267  Uiso   1.00
H21    H     0.33550   0.18650   0.72690   0.01267  Uiso   1.00
H22    H     0.54810   0.83350   0.96180   0.01267  Uiso   1.00
H23    H     0.42770   0.01870   0.95220   0.01267  Uiso   1.00
H24    H     0.62580   0.73220   0.82750   0.01267  Uiso   1.00
H25    H     0.63830   0.67010   0.92300   0.01267  Uiso   1.00
H26    H     0.51540   0.86000   0.75280   0.01267  Uiso   1.00
H27    H     0.36100   0.71140   0.99020   0.01267  Uiso   1.00
H28    H     0.57820   0.53680   0.82270   0.01267  Uiso   1.00
H29    H     0.22540   0.58400   0.01580   0.01267  Uiso   1.00
H30    H     0.43510   0.41670   0.85080   0.01267  Uiso   1.00
H31    H     0.81350   0.66450   0.77310   0.01267  Uiso   1.00
H32    H     0.16650   0.45190   0.53820   0.01267  Uiso   1.00
H33    H     0.98130   0.57230   0.54780   0.01267  Uiso   1.00
H34    H     0.26780   0.37420   0.67250   0.01267  Uiso   1.00
H35    H     0.32990   0.36170   0.57700   0.01267  Uiso   1.00
H36    H     0.14000   0.48460   0.74720   0.01267  Uiso   1.00
H37    H     0.28860   0.63900   0.50980   0.01267  Uiso   1.00
H38    H     0.46320   0.42180   0.67730   0.01267  Uiso   1.00
H39    H     0.41600   0.77460   0.48420   0.01267  Uiso   1.00
H40    H     0.58330   0.56490   0.64920   0.01267  Uiso   1.00
C1     C     0.57070   0.97370   0.27460   0.01267  Uiso   1.00
C2     C     0.51570   0.07770   0.13820   0.01267  Uiso   1.00
C3     C     0.62880   0.88260   0.15340   0.01267  Uiso   1.00
C4     C     0.62720   0.87940   0.23960   0.01267  Uiso   1.00
C5     C     0.56970   0.97270   0.36670   0.01267  Uiso   1.00
C6     C     0.69350   0.78270   0.11460   0.01267  Uiso   1.00
C7     C     0.51300   0.35980   0.09830   0.01267  Uiso   1.00
C8     C     0.57240   0.98040   0.10450   0.01267  Uiso   1.00
C9     C     0.41740   0.28460   0.11120   0.01267  Uiso   1.00
C10    C     0.51820   0.07460   0.22420   0.01267  Uiso   1.00
C11    C     0.62120   0.34760   0.04010   0.01267  Uiso   1.00
C12    C     0.49450   0.44950   0.13830   0.01267  Uiso   1.00
C13    C     0.70380   0.42340   0.02660   0.01267  Uiso   1.00
C14    C     0.58260   0.52120   0.12190   0.01267  Uiso   1.00
C15    C     0.02630   0.42930   0.22540   0.01267  Uiso   1.00
C16    C     0.92230   0.48430   0.36180   0.01267  Uiso   1.00
C17    C     0.11740   0.37120   0.34660   0.01267  Uiso   1.00
C18    C     0.12060   0.37280   0.26040   0.01267  Uiso   1.00
C19    C     0.02730   0.43030   0.13330   0.01267  Uiso   1.00
C20    C     0.21730   0.30650   0.38540   0.01267  Uiso   1.00
C21    C     0.64020   0.48700   0.40170   0.01267  Uiso   1.00
C22    C     0.01960   0.42760   0.39550   0.01267  Uiso   1.00
C23    C     0.71540   0.58260   0.38880   0.01267  Uiso   1.00
C24    C     0.92540   0.48180   0.27580   0.01267  Uiso   1.00
C25    C     0.65240   0.37880   0.45990   0.01267  Uiso   1.00
C26    C     0.55050   0.50550   0.36170   0.01267  Uiso   1.00
C27    C     0.57660   0.29620   0.47340   0.01267  Uiso   1.00
C28    C     0.47880   0.41740   0.37810   0.01267  Uiso   1.00
C29    C     0.42930   0.02630   0.72540   0.01267  Uiso   1.00
C30    C     0.48430   0.92230   0.86180   0.01267  Uiso   1.00
C31    C     0.37120   0.11740   0.84660   0.01267  Uiso   1.00
C32    C     0.37280   0.12060   0.76040   0.01267  Uiso   1.00
C33    C     0.43030   0.02730   0.63330   0.01267  Uiso   1.00
C34    C     0.30650   0.21730   0.88540   0.01267  Uiso   1.00
C35    C     0.48700   0.64020   0.90170   0.01267  Uiso   1.00
C36    C     0.42760   0.01960   0.89550   0.01267  Uiso   1.00
C37    C     0.58260   0.71540   0.88880   0.01267  Uiso   1.00
C38    C     0.48180   0.92540   0.77580   0.01267  Uiso   1.00
C39    C     0.37880   0.65240   0.95990   0.01267  Uiso   1.00
C40    C     0.50550   0.55050   0.86170   0.01267  Uiso   1.00
C41    C     0.29620   0.57660   0.97340   0.01267  Uiso   1.00
C42    C     0.41740   0.47880   0.87810   0.01267  Uiso   1.00
C43    C     0.97370   0.57070   0.77460   0.01267  Uiso   1.00
C44    C     0.07770   0.51570   0.63820   0.01267  Uiso   1.00
C45    C     0.88260   0.62880   0.65340   0.01267  Uiso   1.00
C46    C     0.87940   0.62720   0.73960   0.01267  Uiso   1.00
C47    C     0.97270   0.56970   0.86670   0.01267  Uiso   1.00
C48    C     0.78270   0.69350   0.61460   0.01267  Uiso   1.00
C49    C     0.35980   0.51300   0.59830   0.01267  Uiso   1.00
C50    C     0.98040   0.57240   0.60450   0.01267  Uiso   1.00
C51    C     0.28460   0.41740   0.61120   0.01267  Uiso   1.00
C52    C     0.07460   0.51820   0.72420   0.01267  Uiso   1.00
C53    C     0.34760   0.62120   0.54010   0.01267  Uiso   1.00
C54    C     0.44950   0.49450   0.63830   0.01267  Uiso   1.00
C55    C     0.42340   0.70380   0.52660   0.01267  Uiso   1.00
C56    C     0.52120   0.58260   0.62190   0.01267  Uiso   1.00
N1     N     0.68870   0.50690   0.07050   0.01267  Uiso   1.00
N2     N     0.46070   0.17330   0.08660   0.01267  Uiso   1.00
N3     N     0.49310   0.31130   0.42950   0.01267  Uiso   1.00
N4     N     0.82670   0.53930   0.41340   0.01267  Uiso   1.00
N5     N     0.31130   0.49310   0.92950   0.01267  Uiso   1.00
N6     N     0.53930   0.82670   0.91340   0.01267  Uiso   1.00
N7     N     0.50690   0.68870   0.57050   0.01267  Uiso   1.00
N8     N     0.17330   0.46070   0.58660   0.01267  Uiso   1.00
O1     O     0.74430   0.69290   0.16070   0.01267  Uiso   1.00
O2     O     0.69950   0.78810   0.03510   0.01267  Uiso   1.00
O3     O     0.61570   0.87770   0.41090   0.01267  Uiso   1.00
O4     O     0.52910   0.06470   0.39290   0.01267  Uiso   1.00
O5     O     0.30710   0.25570   0.33930   0.01267  Uiso   1.00
O6     O     0.21190   0.30050   0.46490   0.01267  Uiso   1.00
O7     O     0.12230   0.38430   0.08910   0.01267  Uiso   1.00
O8     O     0.93530   0.47090   0.10710   0.01267  Uiso   1.00
O9     O     0.25570   0.30710   0.83930   0.01267  Uiso   1.00
O10    O     0.30050   0.21190   0.96490   0.01267  Uiso   1.00
O11    O     0.38430   0.12230   0.58910   0.01267  Uiso   1.00
O12    O     0.47090   0.93530   0.60710   0.01267  Uiso   1.00
O13    O     0.69290   0.74430   0.66070   0.01267  Uiso   1.00
O14    O     0.78810   0.69950   0.53510   0.01267  Uiso   1.00
O15    O     0.87770   0.61570   0.91090   0.01267  Uiso   1.00
O16    O     0.06470   0.52910   0.89290   0.01267  Uiso   1.00
