data_image0
_cell_length_a       7.1139
_cell_length_b       6.9109
_cell_length_c       6.7799
_cell_angle_alpha    90
_cell_angle_beta     90
_cell_angle_gamma    90

_symmetry_space_group_name_H-M    "P 1"
_symmetry_int_tables_number       1

loop_
  _symmetry_equiv_pos_as_xyz
  'x, y, z'

loop_
  _atom_site_label
  _atom_site_occupancy
  _atom_site_fract_x
  _atom_site_fract_y
  _atom_site_fract_z
  _atom_site_thermal_displace_type
  _atom_site_B_iso_or_equiv
  _atom_site_type_symbol
  Ni1      1.0000 0.50000  0.50000  0.00000  Biso   1.000  Ni
  Fe1      1.0000 0.00000  0.00000  0.00000  Biso   1.000  Fe
  N1       1.0000 0.19480  0.19730  0.00000  Biso   1.000  N
  C1       1.0000 0.31250  0.31110  0.00000  Biso   1.000  C
  N2       1.0000 0.80520  0.80270  0.00000  Biso   1.000  N
  C2       1.0000 0.68750  0.68890  0.00000  Biso   1.000  C
  N3       1.0000 0.80520  0.19730  0.00000  Biso   1.000  N
  C3       1.0000 0.68750  0.31110  0.00000  Biso   1.000  C
  N4       1.0000 0.19480  0.80270  0.00000  Biso   1.000  N
  C4       1.0000 0.31250  0.68890  0.00000  Biso   1.000  C
  N5       1.0000 0.00000  0.00000  0.29290  Biso   1.000  N
  N6       1.0000 0.00000  0.00000  0.70710  Biso   1.000  N
  C5       1.0000 0.00000  0.16410  0.39720  Biso   1.000  C
  H1       1.0000 0.00000  0.28430  0.32920  Biso   1.000  H
  C6       1.0000 0.00000  0.83590  0.39720  Biso   1.000  C
  H2       1.0000 0.00000  0.71570  0.32920  Biso   1.000  H
  C7       1.0000 0.00000  0.16410  0.60280  Biso   1.000  C
  H3       1.0000 0.00000  0.28430  0.67080  Biso   1.000  H
  C8       1.0000 0.00000  0.83590  0.60280  Biso   1.000  C
  H4       1.0000 0.00000  0.71570  0.67080  Biso   1.000  H
