data_LUFQUZ02_clean
_audit_creation_date              2014-07-02
_audit_creation_method            'Materials Studio'
_symmetry_space_group_name_H-M    'P1'
_symmetry_Int_Tables_number       1
_symmetry_cell_setting            triclinic
loop_
_symmetry_equiv_pos_as_xyz
  x,y,z
_cell_length_a                    7.2421
_cell_length_b                    7.2666
_cell_length_c                    7.2696
_cell_angle_alpha                 90.0000
_cell_angle_beta                  90.0000
_cell_angle_gamma                 90.0000
loop_
_atom_site_label
_atom_site_type_symbol
_atom_site_fract_x
_atom_site_fract_y
_atom_site_fract_z
_atom_site_U_iso_or_equiv
_atom_site_adp_type
_atom_site_occupancy
Fe1    Fe    0.00000   0.00000   0.00000   0.01267  Uiso   1.00
Ni1    Ni    0.00000   0.50000   0.50000   0.01267  Uiso   1.00
H1     H     0.65940   0.00000   0.73390   0.01267  Uiso   1.00
H2     H     0.65940   0.00000   0.26610   0.01267  Uiso   1.00
H3     H     0.34060   0.00000   0.73390   0.01267  Uiso   1.00
H4     H     0.34060   0.00000   0.26610   0.01267  Uiso   1.00
C1     C     0.00000   0.67570   0.68800   0.01267  Uiso   1.00
C2     C     0.00000   0.32430   0.31200   0.01267  Uiso   1.00
C3     C     0.00000   0.32430   0.68800   0.01267  Uiso   1.00
C4     C     0.00000   0.67570   0.31200   0.01267  Uiso   1.00
C5     C     0.59690   0.00000   0.84560   0.01267  Uiso   1.00
C6     C     0.59690   0.00000   0.15440   0.01267  Uiso   1.00
C7     C     0.40310   0.00000   0.84560   0.01267  Uiso   1.00
C8     C     0.40310   0.00000   0.15440   0.01267  Uiso   1.00
N1     N     0.00000   0.79490   0.79120   0.01267  Uiso   1.00
N2     N     0.00000   0.20510   0.20880   0.01267  Uiso   1.00
N3     N     0.00000   0.20510   0.79120   0.01267  Uiso   1.00
N4     N     0.00000   0.79490   0.20880   0.01267  Uiso   1.00
N5     N     0.69270   0.00000   0.00000   0.01267  Uiso   1.00
N6     N     0.30730   0.00000   0.00000   0.01267  Uiso   1.00
