data_image0
_cell_length_a       10.9329
_cell_length_b       28.934
_cell_length_c       15.0328
_cell_angle_alpha    90
_cell_angle_beta     90.37
_cell_angle_gamma    90

_symmetry_space_group_name_H-M    "P 1"
_symmetry_int_tables_number       1

loop_
  _symmetry_equiv_pos_as_xyz
  'x, y, z'

loop_
  _atom_site_label
  _atom_site_occupancy
  _atom_site_fract_x
  _atom_site_fract_y
  _atom_site_fract_z
  _atom_site_thermal_displace_type
  _atom_site_B_iso_or_equiv
  _atom_site_type_symbol
  Co1      1.0000 0.66199  0.00926  0.87251  Biso   1.000  Co
  Co2      1.0000 0.99731  0.89611  0.96828  Biso   1.000  Co
  Co3      1.0000 0.91908  0.02074  0.73177  Biso   1.000  Co
  N1       1.0000 0.99320  0.83814  0.05723  Biso   1.000  N
  N2       1.0000 0.00420  0.65169  0.36093  Biso   1.000  N
  O1       1.0000 0.64570  0.95994  0.77074  Biso   1.000  O
  O2       1.0000 0.79720  0.97581  0.67873  Biso   1.000  O
  O3       1.0000 0.55561  0.87076  0.76173  Biso   1.000  O
  O4       1.0000 0.04600  0.96765  0.73922  Biso   1.000  O
  O5       1.0000 0.03612  0.95007  0.88164  Biso   1.000  O
  O6       1.0000 0.17813  0.90317  0.00563  Biso   1.000  O
  O7       1.0000 0.33454  0.95233  0.00522  Biso   1.000  O
  O8       1.0000 0.65931  0.95366  0.96327  Biso   1.000  O
  O9       1.0000 0.81777  0.90810  0.93439  Biso   1.000  O
  O10      1.0000 0.95925  0.93839  0.07718  Biso   1.000  O
  O11      1.0000 0.94170  0.93886  0.22271  Biso   1.000  O
  O12      1.0000 0.44546  0.83992  0.16123  Biso   1.000  O
  O13      1.0000 0.35910  0.92967  0.19970  Biso   1.000  O
  O14      1.0000 0.19020  0.92361  0.28067  Biso   1.000  O
  O15      1.0000 0.85360  0.00926  0.86772  Biso   1.000  O
  H1       1.0000 0.88240  0.98100  0.87050  Biso   1.000  H
  H2       1.0000 0.88820  0.03020  0.88810  Biso   1.000  H
  C1       1.0000 0.71430  0.95058  0.70810  Biso   1.000  C
  C2       1.0000 0.69580  0.90578  0.65620  Biso   1.000  C
  C3       1.0000 0.76750  0.89864  0.58310  Biso   1.000  C
  H3       1.0000 0.82480  0.92110  0.56820  Biso   1.000  H
  C4       1.0000 0.06180  0.83824  0.13020  Biso   1.000  C
  H4       1.0000 0.11050  0.86400  0.14120  Biso   1.000  H
  C5       1.0000 0.83650  0.85066  0.45610  Biso   1.000  C
  H5       1.0000 0.89720  0.87190  0.44200  Biso   1.000  H
  C6       1.0000 0.75830  0.85865  0.52940  Biso   1.000  C
  C7       1.0000 0.73140  0.77950  0.42520  Biso   1.000  C
  H6       1.0000 0.72170  0.75360  0.38910  Biso   1.000  H
  C8       1.0000 0.65660  0.78577  0.49630  Biso   1.000  C
  H7       1.0000 0.59680  0.76390  0.50910  Biso   1.000  H
  C9       1.0000 0.66940  0.82541  0.55080  Biso   1.000  C
  C10      1.0000 0.59960  0.83180  0.62780  Biso   1.000  C
  H8       1.0000 0.54250  0.80950  0.64360  Biso   1.000  H
  C11      1.0000 0.61380  0.86988  0.67990  Biso   1.000  C
  C12      1.0000 0.44000  0.88903  0.76820  Biso   1.000  C
  C13      1.0000 0.40350  0.89855  0.85350  Biso   1.000  C
  H9       1.0000 0.45720  0.89340  0.90070  Biso   1.000  H
  C14      1.0000 0.28730  0.91584  0.87010  Biso   1.000  C
  C15      1.0000 0.20890  0.92528  0.79850  Biso   1.000  C
  C16      1.0000 0.24940  0.91542  0.71300  Biso   1.000  C
  H10      1.0000 0.19770  0.92150  0.66500  Biso   1.000  H
  C17      1.0000 0.36380  0.89694  0.69680  Biso   1.000  C
  H11      1.0000 0.38850  0.89010  0.63920  Biso   1.000  H
  C18      1.0000 0.26190  0.92517  0.96740  Biso   1.000  C
  C19      1.0000 0.08950  0.94901  0.80770  Biso   1.000  C
  C20      1.0000 0.73250  0.92223  0.98290  Biso   1.000  C
  C21      1.0000 0.70870  0.89926  0.07160  Biso   1.000  C
  C22      1.0000 0.59530  0.87838  0.08010  Biso   1.000  C
  H12      1.0000 0.54220  0.87730  0.03160  Biso   1.000  H
  C23      1.0000 0.56070  0.85924  0.15960  Biso   1.000  C
  C24      1.0000 0.63840  0.85962  0.23190  Biso   1.000  C
  H13      1.0000 0.61630  0.84540  0.28490  Biso   1.000  H
  C25      1.0000 0.74940  0.88144  0.22390  Biso   1.000  C
  H14      1.0000 0.80130  0.88260  0.27310  Biso   1.000  H
  C26      1.0000 0.78680  0.90181  0.14480  Biso   1.000  C
  C27      1.0000 0.90440  0.92845  0.14740  Biso   1.000  C
  C28      1.0000 0.39840  0.82951  0.24400  Biso   1.000  C
  C29      1.0000 0.32670  0.86267  0.28900  Biso   1.000  C
  C30      1.0000 0.28350  0.85014  0.37080  Biso   1.000  C
  H15      1.0000 0.23540  0.87120  0.40170  Biso   1.000  H
  C31      1.0000 0.30830  0.80675  0.41090  Biso   1.000  C
  C32      1.0000 0.26510  0.79495  0.49670  Biso   1.000  C
  H16      1.0000 0.22080  0.81630  0.52960  Biso   1.000  H
  C33      1.0000 0.28880  0.75218  0.53080  Biso   1.000  C
  H17      1.0000 0.26020  0.74450  0.58700  Biso   1.000  H
  C34      1.0000 0.35510  0.71994  0.48260  Biso   1.000  C
  H18      1.0000 0.37040  0.69100  0.50720  Biso   1.000  H
  C35      1.0000 0.39800  0.72982  0.40020  Biso   1.000  C
  H19      1.0000 0.44170  0.70770  0.36850  Biso   1.000  H
  C36      1.0000 0.37570  0.77422  0.36250  Biso   1.000  C
  C37      1.0000 0.41990  0.78704  0.27780  Biso   1.000  C
  H20      1.0000 0.46460  0.76580  0.24480  Biso   1.000  H
  C38      1.0000 0.92530  0.80077  0.04410  Biso   1.000  C
  H21      1.0000 0.87470  0.80000  0.99420  Biso   1.000  H
  C39      1.0000 0.92510  0.76350  0.09920  Biso   1.000  C
  H22      1.0000 0.87760  0.73780  0.08520  Biso   1.000  H
  C40      1.0000 0.99600  0.76378  0.17630  Biso   1.000  C
  C41      1.0000 0.06560  0.80270  0.19080  Biso   1.000  C
  H23      1.0000 0.11480  0.80490  0.24130  Biso   1.000  H
  C42      1.0000 0.29140  0.90953  0.25220  Biso   1.000  C
  C43      1.0000 0.99970  0.72372  0.23800  Biso   1.000  C
  C44      1.0000 0.90520  0.69228  0.24270  Biso   1.000  C
  H24      1.0000 0.83780  0.69500  0.20500  Biso   1.000  H
  C45      1.0000 0.91120  0.65721  0.30280  Biso   1.000  C
  H25      1.0000 0.84760  0.63590  0.30380  Biso   1.000  H
  C46      1.0000 0.09500  0.68120  0.35490  Biso   1.000  C
  H26      1.0000 0.16170  0.67760  0.39290  Biso   1.000  H
  C47      1.0000 0.09620  0.71717  0.29500  Biso   1.000  C
  H27      1.0000 0.16280  0.73710  0.29330  Biso   1.000  H
  C48      1.0000 0.82190  0.81157  0.40640  Biso   1.000  C
  H28      1.0000 0.87390  0.80630  0.35870  Biso   1.000  H
  Co4      1.0000 0.33801  0.50926  0.62749  Biso   1.000  Co
  Co5      1.0000 0.00269  0.39611  0.53172  Biso   1.000  Co
  Co6      1.0000 0.08092  0.52074  0.76823  Biso   1.000  Co
  N3       1.0000 0.00680  0.33814  0.44277  Biso   1.000  N
  N4       1.0000 0.99580  0.15169  0.13907  Biso   1.000  N
  O16      1.0000 0.35430  0.45994  0.72926  Biso   1.000  O
  O17      1.0000 0.20280  0.47581  0.82127  Biso   1.000  O
  O18      1.0000 0.44439  0.37076  0.73827  Biso   1.000  O
  O19      1.0000 0.95400  0.46765  0.76078  Biso   1.000  O
  O20      1.0000 0.96388  0.45007  0.61836  Biso   1.000  O
  O21      1.0000 0.82187  0.40317  0.49437  Biso   1.000  O
  O22      1.0000 0.66546  0.45233  0.49478  Biso   1.000  O
  O23      1.0000 0.34069  0.45366  0.53673  Biso   1.000  O
  O24      1.0000 0.18223  0.40810  0.56561  Biso   1.000  O
  O25      1.0000 0.04075  0.43839  0.42282  Biso   1.000  O
  O26      1.0000 0.05830  0.43886  0.27729  Biso   1.000  O
  O27      1.0000 0.55454  0.33992  0.33877  Biso   1.000  O
  O28      1.0000 0.64090  0.42967  0.30030  Biso   1.000  O
  O29      1.0000 0.80980  0.42361  0.21933  Biso   1.000  O
  O30      1.0000 0.14640  0.50926  0.63228  Biso   1.000  O
  H29      1.0000 0.11760  0.48100  0.62950  Biso   1.000  H
  H30      1.0000 0.11180  0.53020  0.61190  Biso   1.000  H
  C49      1.0000 0.28570  0.45058  0.79190  Biso   1.000  C
  C50      1.0000 0.30420  0.40578  0.84380  Biso   1.000  C
  C51      1.0000 0.23250  0.39864  0.91690  Biso   1.000  C
  H31      1.0000 0.17520  0.42110  0.93180  Biso   1.000  H
  C52      1.0000 0.93820  0.33824  0.36980  Biso   1.000  C
  H32      1.0000 0.88950  0.36400  0.35880  Biso   1.000  H
  C53      1.0000 0.16350  0.35066  0.04390  Biso   1.000  C
  H33      1.0000 0.10280  0.37190  0.05800  Biso   1.000  H
  C54      1.0000 0.24170  0.35865  0.97060  Biso   1.000  C
  C55      1.0000 0.26860  0.27950  0.07480  Biso   1.000  C
  H34      1.0000 0.27830  0.25360  0.11090  Biso   1.000  H
  C56      1.0000 0.34340  0.28577  0.00370  Biso   1.000  C
  H35      1.0000 0.40320  0.26390  0.99090  Biso   1.000  H
  C57      1.0000 0.33060  0.32541  0.94920  Biso   1.000  C
  C58      1.0000 0.40040  0.33180  0.87220  Biso   1.000  C
  H36      1.0000 0.45750  0.30950  0.85640  Biso   1.000  H
  C59      1.0000 0.38620  0.36988  0.82010  Biso   1.000  C
  C60      1.0000 0.56000  0.38903  0.73180  Biso   1.000  C
  C61      1.0000 0.59650  0.39855  0.64650  Biso   1.000  C
  H37      1.0000 0.54280  0.39340  0.59930  Biso   1.000  H
  C62      1.0000 0.71270  0.41584  0.62990  Biso   1.000  C
  C63      1.0000 0.79110  0.42528  0.70150  Biso   1.000  C
  C64      1.0000 0.75060  0.41542  0.78700  Biso   1.000  C
  H38      1.0000 0.80230  0.42150  0.83500  Biso   1.000  H
  C65      1.0000 0.63620  0.39694  0.80320  Biso   1.000  C
  H39      1.0000 0.61150  0.39010  0.86080  Biso   1.000  H
  C66      1.0000 0.73810  0.42517  0.53260  Biso   1.000  C
  C67      1.0000 0.91050  0.44901  0.69230  Biso   1.000  C
  C68      1.0000 0.26750  0.42223  0.51710  Biso   1.000  C
  C69      1.0000 0.29130  0.39926  0.42840  Biso   1.000  C
  C70      1.0000 0.40470  0.37838  0.41990  Biso   1.000  C
  H40      1.0000 0.45780  0.37730  0.46840  Biso   1.000  H
  C71      1.0000 0.43930  0.35924  0.34040  Biso   1.000  C
  C72      1.0000 0.36160  0.35962  0.26810  Biso   1.000  C
  H41      1.0000 0.38370  0.34540  0.21510  Biso   1.000  H
  C73      1.0000 0.25060  0.38144  0.27610  Biso   1.000  C
  H42      1.0000 0.19870  0.38260  0.22690  Biso   1.000  H
  C74      1.0000 0.21320  0.40181  0.35520  Biso   1.000  C
  C75      1.0000 0.09560  0.42845  0.35260  Biso   1.000  C
  C76      1.0000 0.60160  0.32951  0.25600  Biso   1.000  C
  C77      1.0000 0.67330  0.36267  0.21100  Biso   1.000  C
  C78      1.0000 0.71650  0.35014  0.12920  Biso   1.000  C
  H43      1.0000 0.76460  0.37120  0.09830  Biso   1.000  H
  C79      1.0000 0.69170  0.30675  0.08910  Biso   1.000  C
  C80      1.0000 0.73490  0.29495  0.00330  Biso   1.000  C
  H44      1.0000 0.77920  0.31630  0.97040  Biso   1.000  H
  C81      1.0000 0.71120  0.25218  0.96920  Biso   1.000  C
  H45      1.0000 0.73980  0.24450  0.91300  Biso   1.000  H
  C82      1.0000 0.64490  0.21994  0.01740  Biso   1.000  C
  H46      1.0000 0.62960  0.19100  0.99280  Biso   1.000  H
  C83      1.0000 0.60200  0.22982  0.09980  Biso   1.000  C
  H47      1.0000 0.55830  0.20770  0.13150  Biso   1.000  H
  C84      1.0000 0.62430  0.27422  0.13750  Biso   1.000  C
  C85      1.0000 0.58010  0.28704  0.22220  Biso   1.000  C
  H48      1.0000 0.53540  0.26580  0.25520  Biso   1.000  H
  C86      1.0000 0.07470  0.30077  0.45590  Biso   1.000  C
  H49      1.0000 0.12530  0.30000  0.50580  Biso   1.000  H
  C87      1.0000 0.07490  0.26350  0.40080  Biso   1.000  C
  H50      1.0000 0.12240  0.23780  0.41480  Biso   1.000  H
  C88      1.0000 0.00400  0.26378  0.32370  Biso   1.000  C
  C89      1.0000 0.93440  0.30270  0.30920  Biso   1.000  C
  H51      1.0000 0.88520  0.30490  0.25870  Biso   1.000  H
  C90      1.0000 0.70860  0.40953  0.24780  Biso   1.000  C
  C91      1.0000 0.00030  0.22372  0.26200  Biso   1.000  C
  C92      1.0000 0.09480  0.19228  0.25730  Biso   1.000  C
  H52      1.0000 0.16220  0.19500  0.29500  Biso   1.000  H
  C93      1.0000 0.08880  0.15721  0.19720  Biso   1.000  C
  H53      1.0000 0.15240  0.13590  0.19620  Biso   1.000  H
  C94      1.0000 0.90500  0.18120  0.14510  Biso   1.000  C
  H54      1.0000 0.83830  0.17760  0.10710  Biso   1.000  H
  C95      1.0000 0.90380  0.21717  0.20500  Biso   1.000  C
  H55      1.0000 0.83720  0.23710  0.20670  Biso   1.000  H
  C96      1.0000 0.17810  0.31157  0.09360  Biso   1.000  C
  H56      1.0000 0.12610  0.30630  0.14130  Biso   1.000  H
  Co7      1.0000 0.33801  0.99074  0.12749  Biso   1.000  Co
  Co8      1.0000 0.00269  0.10389  0.03172  Biso   1.000  Co
  Co9      1.0000 0.08092  0.97926  0.26823  Biso   1.000  Co
  N5       1.0000 0.00680  0.16186  0.94277  Biso   1.000  N
  N6       1.0000 0.99580  0.34831  0.63907  Biso   1.000  N
  O31      1.0000 0.35430  0.04006  0.22926  Biso   1.000  O
  O32      1.0000 0.20280  0.02419  0.32127  Biso   1.000  O
  O33      1.0000 0.44439  0.12924  0.23827  Biso   1.000  O
  O34      1.0000 0.95400  0.03235  0.26078  Biso   1.000  O
  O35      1.0000 0.96388  0.04993  0.11836  Biso   1.000  O
  O36      1.0000 0.82187  0.09683  0.99437  Biso   1.000  O
  O37      1.0000 0.66546  0.04767  0.99478  Biso   1.000  O
  O38      1.0000 0.34069  0.04634  0.03673  Biso   1.000  O
  O39      1.0000 0.18223  0.09190  0.06561  Biso   1.000  O
  O40      1.0000 0.04075  0.06161  0.92282  Biso   1.000  O
  O41      1.0000 0.05830  0.06114  0.77729  Biso   1.000  O
  O42      1.0000 0.55454  0.16008  0.83877  Biso   1.000  O
  O43      1.0000 0.64090  0.07033  0.80030  Biso   1.000  O
  O44      1.0000 0.80980  0.07639  0.71933  Biso   1.000  O
  O45      1.0000 0.14640  0.99074  0.13228  Biso   1.000  O
  H57      1.0000 0.11760  0.01900  0.12950  Biso   1.000  H
  H58      1.0000 0.11180  0.96980  0.11190  Biso   1.000  H
  C97      1.0000 0.28570  0.04942  0.29190  Biso   1.000  C
  C98      1.0000 0.30420  0.09422  0.34380  Biso   1.000  C
  C99      1.0000 0.23250  0.10136  0.41690  Biso   1.000  C
  H59      1.0000 0.17520  0.07890  0.43180  Biso   1.000  H
  C100     1.0000 0.93820  0.16176  0.86980  Biso   1.000  C
  H60      1.0000 0.88950  0.13600  0.85880  Biso   1.000  H
  C101     1.0000 0.16350  0.14934  0.54390  Biso   1.000  C
  H61      1.0000 0.10280  0.12810  0.55800  Biso   1.000  H
  C102     1.0000 0.24170  0.14135  0.47060  Biso   1.000  C
  C103     1.0000 0.26860  0.22050  0.57480  Biso   1.000  C
  H62      1.0000 0.27830  0.24640  0.61090  Biso   1.000  H
  C104     1.0000 0.34340  0.21423  0.50370  Biso   1.000  C
  H63      1.0000 0.40320  0.23610  0.49090  Biso   1.000  H
  C105     1.0000 0.33060  0.17459  0.44920  Biso   1.000  C
  C106     1.0000 0.40040  0.16820  0.37220  Biso   1.000  C
  H64      1.0000 0.45750  0.19050  0.35640  Biso   1.000  H
  C107     1.0000 0.38620  0.13012  0.32010  Biso   1.000  C
  C108     1.0000 0.56000  0.11097  0.23180  Biso   1.000  C
  C109     1.0000 0.59650  0.10145  0.14650  Biso   1.000  C
  H65      1.0000 0.54280  0.10660  0.09930  Biso   1.000  H
  C110     1.0000 0.71270  0.08416  0.12990  Biso   1.000  C
  C111     1.0000 0.79110  0.07472  0.20150  Biso   1.000  C
  C112     1.0000 0.75060  0.08458  0.28700  Biso   1.000  C
  H66      1.0000 0.80230  0.07850  0.33500  Biso   1.000  H
  C113     1.0000 0.63620  0.10306  0.30320  Biso   1.000  C
  H67      1.0000 0.61150  0.10990  0.36080  Biso   1.000  H
  C114     1.0000 0.73810  0.07483  0.03260  Biso   1.000  C
  C115     1.0000 0.91050  0.05099  0.19230  Biso   1.000  C
  C116     1.0000 0.26750  0.07777  0.01710  Biso   1.000  C
  C117     1.0000 0.29130  0.10074  0.92840  Biso   1.000  C
  C118     1.0000 0.40470  0.12162  0.91990  Biso   1.000  C
  H68      1.0000 0.45780  0.12270  0.96840  Biso   1.000  H
  C119     1.0000 0.43930  0.14076  0.84040  Biso   1.000  C
  C120     1.0000 0.36160  0.14038  0.76810  Biso   1.000  C
  H69      1.0000 0.38370  0.15460  0.71510  Biso   1.000  H
  C121     1.0000 0.25060  0.11856  0.77610  Biso   1.000  C
  H70      1.0000 0.19870  0.11740  0.72690  Biso   1.000  H
  C122     1.0000 0.21320  0.09819  0.85520  Biso   1.000  C
  C123     1.0000 0.09560  0.07155  0.85260  Biso   1.000  C
  C124     1.0000 0.60160  0.17049  0.75600  Biso   1.000  C
  C125     1.0000 0.67330  0.13733  0.71100  Biso   1.000  C
  C126     1.0000 0.71650  0.14986  0.62920  Biso   1.000  C
  H71      1.0000 0.76460  0.12880  0.59830  Biso   1.000  H
  C127     1.0000 0.69170  0.19325  0.58910  Biso   1.000  C
  C128     1.0000 0.73490  0.20505  0.50330  Biso   1.000  C
  H72      1.0000 0.77920  0.18370  0.47040  Biso   1.000  H
  C129     1.0000 0.71120  0.24782  0.46920  Biso   1.000  C
  H73      1.0000 0.73980  0.25550  0.41300  Biso   1.000  H
  C130     1.0000 0.64490  0.28006  0.51740  Biso   1.000  C
  H74      1.0000 0.62960  0.30900  0.49280  Biso   1.000  H
  C131     1.0000 0.60200  0.27018  0.59980  Biso   1.000  C
  H75      1.0000 0.55830  0.29230  0.63150  Biso   1.000  H
  C132     1.0000 0.62430  0.22578  0.63750  Biso   1.000  C
  C133     1.0000 0.58010  0.21296  0.72220  Biso   1.000  C
  H76      1.0000 0.53540  0.23420  0.75520  Biso   1.000  H
  C134     1.0000 0.07470  0.19923  0.95590  Biso   1.000  C
  H77      1.0000 0.12530  0.20000  0.00580  Biso   1.000  H
  C135     1.0000 0.07490  0.23650  0.90080  Biso   1.000  C
  H78      1.0000 0.12240  0.26220  0.91480  Biso   1.000  H
  C136     1.0000 0.00400  0.23622  0.82370  Biso   1.000  C
  C137     1.0000 0.93440  0.19730  0.80920  Biso   1.000  C
  H79      1.0000 0.88520  0.19510  0.75870  Biso   1.000  H
  C138     1.0000 0.70860  0.09047  0.74780  Biso   1.000  C
  C139     1.0000 0.00030  0.27628  0.76200  Biso   1.000  C
  C140     1.0000 0.09480  0.30772  0.75730  Biso   1.000  C
  H80      1.0000 0.16220  0.30500  0.79500  Biso   1.000  H
  C141     1.0000 0.08880  0.34279  0.69720  Biso   1.000  C
  H81      1.0000 0.15240  0.36410  0.69620  Biso   1.000  H
  C142     1.0000 0.90500  0.31880  0.64510  Biso   1.000  C
  H82      1.0000 0.83830  0.32240  0.60710  Biso   1.000  H
  C143     1.0000 0.90380  0.28283  0.70500  Biso   1.000  C
  H83      1.0000 0.83720  0.26290  0.70670  Biso   1.000  H
  C144     1.0000 0.17810  0.18843  0.59360  Biso   1.000  C
  H84      1.0000 0.12610  0.19370  0.64130  Biso   1.000  H
  Co10     1.0000 0.66199  0.49074  0.37251  Biso   1.000  Co
  Co11     1.0000 0.99731  0.60389  0.46828  Biso   1.000  Co
  Co12     1.0000 0.91908  0.47926  0.23177  Biso   1.000  Co
  N7       1.0000 0.99320  0.66186  0.55723  Biso   1.000  N
  N8       1.0000 0.00420  0.84831  0.86093  Biso   1.000  N
  O46      1.0000 0.64570  0.54006  0.27074  Biso   1.000  O
  O47      1.0000 0.79720  0.52419  0.17873  Biso   1.000  O
  O48      1.0000 0.55561  0.62924  0.26173  Biso   1.000  O
  O49      1.0000 0.04600  0.53235  0.23922  Biso   1.000  O
  O50      1.0000 0.03612  0.54993  0.38164  Biso   1.000  O
  O51      1.0000 0.17813  0.59683  0.50563  Biso   1.000  O
  O52      1.0000 0.33454  0.54767  0.50522  Biso   1.000  O
  O53      1.0000 0.65931  0.54634  0.46327  Biso   1.000  O
  O54      1.0000 0.81777  0.59190  0.43439  Biso   1.000  O
  O55      1.0000 0.95925  0.56161  0.57718  Biso   1.000  O
  O56      1.0000 0.94170  0.56114  0.72271  Biso   1.000  O
  O57      1.0000 0.44546  0.66008  0.66123  Biso   1.000  O
  O58      1.0000 0.35910  0.57033  0.69970  Biso   1.000  O
  O59      1.0000 0.19020  0.57639  0.78067  Biso   1.000  O
  O60      1.0000 0.85360  0.49074  0.36772  Biso   1.000  O
  H85      1.0000 0.88240  0.51900  0.37050  Biso   1.000  H
  H86      1.0000 0.88820  0.46980  0.38810  Biso   1.000  H
  C145     1.0000 0.71430  0.54942  0.20810  Biso   1.000  C
  C146     1.0000 0.69580  0.59422  0.15620  Biso   1.000  C
  C147     1.0000 0.76750  0.60136  0.08310  Biso   1.000  C
  H87      1.0000 0.82480  0.57890  0.06820  Biso   1.000  H
  C148     1.0000 0.06180  0.66176  0.63020  Biso   1.000  C
  H88      1.0000 0.11050  0.63600  0.64120  Biso   1.000  H
  C149     1.0000 0.83650  0.64934  0.95610  Biso   1.000  C
  H89      1.0000 0.89720  0.62810  0.94200  Biso   1.000  H
  C150     1.0000 0.75830  0.64135  0.02940  Biso   1.000  C
  C151     1.0000 0.73140  0.72050  0.92520  Biso   1.000  C
  H90      1.0000 0.72170  0.74640  0.88910  Biso   1.000  H
  C152     1.0000 0.65660  0.71423  0.99630  Biso   1.000  C
  H91      1.0000 0.59680  0.73610  0.00910  Biso   1.000  H
  C153     1.0000 0.66940  0.67459  0.05080  Biso   1.000  C
  C154     1.0000 0.59960  0.66820  0.12780  Biso   1.000  C
  H92      1.0000 0.54250  0.69050  0.14360  Biso   1.000  H
  C155     1.0000 0.61380  0.63012  0.17990  Biso   1.000  C
  C156     1.0000 0.44000  0.61097  0.26820  Biso   1.000  C
  C157     1.0000 0.40350  0.60145  0.35350  Biso   1.000  C
  H93      1.0000 0.45720  0.60660  0.40070  Biso   1.000  H
  C158     1.0000 0.28730  0.58416  0.37010  Biso   1.000  C
  C159     1.0000 0.20890  0.57472  0.29850  Biso   1.000  C
  C160     1.0000 0.24940  0.58458  0.21300  Biso   1.000  C
  H94      1.0000 0.19770  0.57850  0.16500  Biso   1.000  H
  C161     1.0000 0.36380  0.60306  0.19680  Biso   1.000  C
  H95      1.0000 0.38850  0.60990  0.13920  Biso   1.000  H
  C162     1.0000 0.26190  0.57483  0.46740  Biso   1.000  C
  C163     1.0000 0.08950  0.55099  0.30770  Biso   1.000  C
  C164     1.0000 0.73250  0.57777  0.48290  Biso   1.000  C
  C165     1.0000 0.70870  0.60074  0.57160  Biso   1.000  C
  C166     1.0000 0.59530  0.62162  0.58010  Biso   1.000  C
  H96      1.0000 0.54220  0.62270  0.53160  Biso   1.000  H
  C167     1.0000 0.56070  0.64076  0.65960  Biso   1.000  C
  C168     1.0000 0.63840  0.64038  0.73190  Biso   1.000  C
  H97      1.0000 0.61630  0.65460  0.78490  Biso   1.000  H
  C169     1.0000 0.74940  0.61856  0.72390  Biso   1.000  C
  H98      1.0000 0.80130  0.61740  0.77310  Biso   1.000  H
  C170     1.0000 0.78680  0.59819  0.64480  Biso   1.000  C
  C171     1.0000 0.90440  0.57155  0.64740  Biso   1.000  C
  C172     1.0000 0.39840  0.67049  0.74400  Biso   1.000  C
  C173     1.0000 0.32670  0.63733  0.78900  Biso   1.000  C
  C174     1.0000 0.28350  0.64986  0.87080  Biso   1.000  C
  H99      1.0000 0.23540  0.62880  0.90170  Biso   1.000  H
  C175     1.0000 0.30830  0.69325  0.91090  Biso   1.000  C
  C176     1.0000 0.26510  0.70505  0.99670  Biso   1.000  C
  H100     1.0000 0.22080  0.68370  0.02960  Biso   1.000  H
  C177     1.0000 0.28880  0.74782  0.03080  Biso   1.000  C
  H101     1.0000 0.26020  0.75550  0.08700  Biso   1.000  H
  C178     1.0000 0.35510  0.78006  0.98260  Biso   1.000  C
  H102     1.0000 0.37040  0.80900  0.00720  Biso   1.000  H
  C179     1.0000 0.39800  0.77018  0.90020  Biso   1.000  C
  H103     1.0000 0.44170  0.79230  0.86850  Biso   1.000  H
  C180     1.0000 0.37570  0.72578  0.86250  Biso   1.000  C
  C181     1.0000 0.41990  0.71296  0.77780  Biso   1.000  C
  H104     1.0000 0.46460  0.73420  0.74480  Biso   1.000  H
  C182     1.0000 0.92530  0.69923  0.54410  Biso   1.000  C
  H105     1.0000 0.87470  0.70000  0.49420  Biso   1.000  H
  C183     1.0000 0.92510  0.73650  0.59920  Biso   1.000  C
  H106     1.0000 0.87760  0.76220  0.58520  Biso   1.000  H
  C184     1.0000 0.99600  0.73622  0.67630  Biso   1.000  C
  C185     1.0000 0.06560  0.69730  0.69080  Biso   1.000  C
  H107     1.0000 0.11480  0.69510  0.74130  Biso   1.000  H
  C186     1.0000 0.29140  0.59047  0.75220  Biso   1.000  C
  C187     1.0000 0.99970  0.77628  0.73800  Biso   1.000  C
  C188     1.0000 0.90520  0.80772  0.74270  Biso   1.000  C
  H108     1.0000 0.83780  0.80500  0.70500  Biso   1.000  H
  C189     1.0000 0.91120  0.84279  0.80280  Biso   1.000  C
  H109     1.0000 0.84760  0.86410  0.80380  Biso   1.000  H
  C190     1.0000 0.09500  0.81880  0.85490  Biso   1.000  C
  H110     1.0000 0.16170  0.82240  0.89290  Biso   1.000  H
  C191     1.0000 0.09620  0.78283  0.79500  Biso   1.000  C
  H111     1.0000 0.16280  0.76290  0.79330  Biso   1.000  H
  C192     1.0000 0.82190  0.68843  0.90640  Biso   1.000  C
  H112     1.0000 0.87390  0.69370  0.85870  Biso   1.000  H
