data_image0
_cell_length_a       23.5933
_cell_length_b       13.8459
_cell_length_c       6.801
_cell_angle_alpha    90
_cell_angle_beta     95.1952
_cell_angle_gamma    90

_symmetry_space_group_name_H-M    "P 1"
_symmetry_int_tables_number       1

loop_
  _symmetry_equiv_pos_as_xyz
  'x, y, z'

loop_
  _atom_site_label
  _atom_site_occupancy
  _atom_site_fract_x
  _atom_site_fract_y
  _atom_site_fract_z
  _atom_site_thermal_displace_type
  _atom_site_B_iso_or_equiv
  _atom_site_type_symbol
  C1       1.0000 0.57597  0.05452  0.76673  Biso   1.000  C
  C2       1.0000 0.63100  0.10987  0.78488  Biso   1.000  C
  O1       1.0000 0.55263  0.03358  0.60114  Biso   1.000  O
  O2       1.0000 0.55054  0.03799  0.91542  Biso   1.000  O
  Ca1      1.0000 0.54179  0.02235  0.26328  Biso   1.000  Ca
  N1       1.0000 0.66269  0.09037  0.29520  Biso   1.000  N
  O3       1.0000 0.64842  0.99971  0.28990  Biso   1.000  O
  O4       1.0000 0.71603  0.11492  0.30350  Biso   1.000  O
  O5       1.0000 0.62338  0.15631  0.27640  Biso   1.000  O
  Ca2      1.0000 0.75113  0.94045  0.29943  Biso   1.000  Ca
  N2       1.0000 0.68139  0.71182  0.22939  Biso   1.000  N
  O6       1.0000 0.63360  0.66829  0.17742  Biso   1.000  O
  O7       1.0000 0.68169  0.80403  0.26240  Biso   1.000  O
  O8       1.0000 0.72929  0.66603  0.22510  Biso   1.000  O
  C3       1.0000 0.86296  0.04126  0.33426  Biso   1.000  C
  C4       1.0000 0.91245  0.10926  0.36326  Biso   1.000  C
  O9       1.0000 0.83618  0.01835  0.47745  Biso   1.000  O
  O10      1.0000 0.84179  0.02322  0.16392  Biso   1.000  O
  C5       1.0000 0.71868  0.90335  0.78169  Biso   1.000  C
  C6       1.0000 0.66707  0.83941  0.76162  Biso   1.000  C
  O11      1.0000 0.74011  0.93162  0.63153  Biso   1.000  O
  O12      1.0000 0.73803  0.93285  0.94719  Biso   1.000  O
  Ca3      1.0000 0.67259  0.50442  0.17883  Biso   1.000  Ca
  C7       1.0000 0.92403  0.55452  0.23327  Biso   1.000  C
  C8       1.0000 0.86900  0.60987  0.21512  Biso   1.000  C
  O13      1.0000 0.94737  0.53358  0.39886  Biso   1.000  O
  O14      1.0000 0.94946  0.53799  0.08458  Biso   1.000  O
  Ca4      1.0000 0.95821  0.52235  0.73672  Biso   1.000  Ca
  N3       1.0000 0.83731  0.59037  0.70480  Biso   1.000  N
  O15      1.0000 0.85158  0.49971  0.71010  Biso   1.000  O
  O16      1.0000 0.78397  0.61492  0.69650  Biso   1.000  O
  O17      1.0000 0.87662  0.65631  0.72360  Biso   1.000  O
  Ca5      1.0000 0.74887  0.44045  0.70057  Biso   1.000  Ca
  N4       1.0000 0.81861  0.21182  0.77061  Biso   1.000  N
  O18      1.0000 0.86640  0.16829  0.82258  Biso   1.000  O
  O19      1.0000 0.81831  0.30403  0.73760  Biso   1.000  O
  O20      1.0000 0.77071  0.16603  0.77490  Biso   1.000  O
  C9       1.0000 0.63704  0.54126  0.66574  Biso   1.000  C
  C10      1.0000 0.58755  0.60926  0.63674  Biso   1.000  C
  O21      1.0000 0.66382  0.51835  0.52255  Biso   1.000  O
  O22      1.0000 0.65821  0.52322  0.83608  Biso   1.000  O
  C11      1.0000 0.78132  0.40335  0.21831  Biso   1.000  C
  C12      1.0000 0.83293  0.33941  0.23838  Biso   1.000  C
  O23      1.0000 0.75989  0.43162  0.36847  Biso   1.000  O
  O24      1.0000 0.76197  0.43285  0.05281  Biso   1.000  O
  Ca6      1.0000 0.82741  0.00442  0.82117  Biso   1.000  Ca
  C13      1.0000 0.42403  0.94548  0.23327  Biso   1.000  C
  C14      1.0000 0.36900  0.89013  0.21512  Biso   1.000  C
  O25      1.0000 0.44737  0.96642  0.39886  Biso   1.000  O
  O26      1.0000 0.44946  0.96201  0.08458  Biso   1.000  O
  Ca7      1.0000 0.45821  0.97765  0.73672  Biso   1.000  Ca
  N5       1.0000 0.33731  0.90963  0.70480  Biso   1.000  N
  O27      1.0000 0.35158  0.00029  0.71010  Biso   1.000  O
  O28      1.0000 0.28397  0.88508  0.69650  Biso   1.000  O
  O29      1.0000 0.37662  0.84369  0.72360  Biso   1.000  O
  Ca8      1.0000 0.24887  0.05955  0.70057  Biso   1.000  Ca
  N6       1.0000 0.31861  0.28818  0.77061  Biso   1.000  N
  O30      1.0000 0.36640  0.33171  0.82258  Biso   1.000  O
  O31      1.0000 0.31831  0.19597  0.73760  Biso   1.000  O
  O32      1.0000 0.27071  0.33397  0.77490  Biso   1.000  O
  C15      1.0000 0.13704  0.95874  0.66574  Biso   1.000  C
  C16      1.0000 0.08755  0.89074  0.63674  Biso   1.000  C
  O33      1.0000 0.16382  0.98165  0.52255  Biso   1.000  O
  O34      1.0000 0.15821  0.97678  0.83608  Biso   1.000  O
  C17      1.0000 0.28132  0.09665  0.21831  Biso   1.000  C
  C18      1.0000 0.33293  0.16059  0.23838  Biso   1.000  C
  O35      1.0000 0.25989  0.06838  0.36847  Biso   1.000  O
  O36      1.0000 0.26197  0.06715  0.05281  Biso   1.000  O
  Ca9      1.0000 0.32741  0.49558  0.82117  Biso   1.000  Ca
  C19      1.0000 0.07597  0.44548  0.76673  Biso   1.000  C
  C20      1.0000 0.13100  0.39013  0.78488  Biso   1.000  C
  O37      1.0000 0.05263  0.46642  0.60114  Biso   1.000  O
  O38      1.0000 0.05054  0.46201  0.91542  Biso   1.000  O
  Ca10     1.0000 0.04179  0.47765  0.26328  Biso   1.000  Ca
  N7       1.0000 0.16269  0.40963  0.29520  Biso   1.000  N
  O39      1.0000 0.14842  0.50029  0.28990  Biso   1.000  O
  O40      1.0000 0.21603  0.38508  0.30350  Biso   1.000  O
  O41      1.0000 0.12338  0.34369  0.27640  Biso   1.000  O
  Ca11     1.0000 0.25113  0.55955  0.29943  Biso   1.000  Ca
  N8       1.0000 0.18139  0.78818  0.22939  Biso   1.000  N
  O42      1.0000 0.13360  0.83171  0.17742  Biso   1.000  O
  O43      1.0000 0.18169  0.69597  0.26240  Biso   1.000  O
  O44      1.0000 0.22929  0.83397  0.22510  Biso   1.000  O
  C21      1.0000 0.36296  0.45874  0.33426  Biso   1.000  C
  C22      1.0000 0.41245  0.39074  0.36326  Biso   1.000  C
  O45      1.0000 0.33618  0.48165  0.47745  Biso   1.000  O
  O46      1.0000 0.34179  0.47678  0.16392  Biso   1.000  O
  C23      1.0000 0.21868  0.59665  0.78169  Biso   1.000  C
  C24      1.0000 0.16707  0.66059  0.76162  Biso   1.000  C
  O47      1.0000 0.24011  0.56838  0.63153  Biso   1.000  O
  O48      1.0000 0.23803  0.56715  0.94719  Biso   1.000  O
  Ca12     1.0000 0.17259  0.99558  0.17883  Biso   1.000  Ca
