data_LUKRUE_clean_h
_audit_creation_date              2014-07-02
_audit_creation_method            'Materials Studio'
_symmetry_space_group_name_H-M    'P1'
_symmetry_Int_Tables_number       1
_symmetry_cell_setting            triclinic
loop_
_symmetry_equiv_pos_as_xyz
  x,y,z
_cell_length_a                    8.2110
_cell_length_b                    13.4308
_cell_length_c                    25.6640
_cell_angle_alpha                 90.0000
_cell_angle_beta                  90.0000
_cell_angle_gamma                 90.0000
loop_
_atom_site_label
_atom_site_type_symbol
_atom_site_fract_x
_atom_site_fract_y
_atom_site_fract_z
_atom_site_U_iso_or_equiv
_atom_site_adp_type
_atom_site_occupancy
Cu1    Cu    0.15638   0.69020   0.99707   0.01267  Uiso   1.00
Cu2    Cu    0.34362   0.30980   0.49707   0.01267  Uiso   1.00
Cu3    Cu    0.84362   0.19020   0.50293   0.01267  Uiso   1.00
Cu4    Cu    0.65638   0.80980   0.00293   0.01267  Uiso   1.00
P1     P     0.86500   0.68809   0.92571   0.01267  Uiso   1.00
P2     P     0.61450   0.33246   0.58099   0.01267  Uiso   1.00
P3     P     0.63500   0.31191   0.42571   0.01267  Uiso   1.00
P4     P     0.88550   0.66754   0.08099   0.01267  Uiso   1.00
P5     P     0.13500   0.18809   0.57429   0.01267  Uiso   1.00
P6     P     0.38550   0.83246   0.91901   0.01267  Uiso   1.00
P7     P     0.36500   0.81191   0.07429   0.01267  Uiso   1.00
P8     P     0.11450   0.16754   0.41901   0.01267  Uiso   1.00
C1     C     0.84330   0.82070   0.78390   0.01267  Uiso   1.00
C2     C     0.88070   0.71180   0.85680   0.01267  Uiso   1.00
C3     C     0.83300   0.80110   0.83820   0.01267  Uiso   1.00
C4     C     0.98150   0.69240   0.65950   0.01267  Uiso   1.00
C5     C     0.90510   0.76560   0.69480   0.01267  Uiso   1.00
C6     C     0.90150   0.74470   0.74940   0.01267  Uiso   1.00
C7     C     0.94010   0.63660   0.82400   0.01267  Uiso   1.00
C8     C     0.89410   0.60470   0.64260   0.01267  Uiso   1.00
C9     C     0.79030   0.91280   0.76260   0.01267  Uiso   1.00
C10    C     0.78950   0.93280   0.70840   0.01267  Uiso   1.00
C11    C     0.95200   0.65740   0.76990   0.01267  Uiso   1.00
C12    C     0.13720   0.70650   0.64280   0.01267  Uiso   1.00
C13    C     0.84230   0.85700   0.67550   0.01267  Uiso   1.00
C14    C     0.74240   0.94930   0.60280   0.01267  Uiso   1.00
C15    C     0.72820   0.58800   0.65580   0.01267  Uiso   1.00
C16    C     0.32300   0.79550   0.68670   0.01267  Uiso   1.00
C17    C     0.97420   0.53360   0.60990   0.01267  Uiso   1.00
C18    C     0.13770   0.54800   0.59610   0.01267  Uiso   1.00
C19    C     0.88770   0.45000   0.59220   0.01267  Uiso   1.00
C20    C     0.64600   0.50700   0.63770   0.01267  Uiso   1.00
C21    C     0.72900   0.43480   0.60530   0.01267  Uiso   1.00
C22    C     0.21900   0.63750   0.61100   0.01267  Uiso   1.00
C23    C     0.64720   0.22610   0.66460   0.01267  Uiso   1.00
C24    C     0.53130   0.17230   0.70390   0.01267  Uiso   1.00
C25    C     0.74000   0.42660   0.93800   0.01267  Uiso   1.00
C26    C     0.72700   0.52230   0.94820   0.01267  Uiso   1.00
C27    C     0.65670   0.17930   0.28390   0.01267  Uiso   1.00
C28    C     0.61930   0.28820   0.35680   0.01267  Uiso   1.00
C29    C     0.66700   0.19890   0.33820   0.01267  Uiso   1.00
C30    C     0.51850   0.30760   0.15950   0.01267  Uiso   1.00
C31    C     0.59490   0.23440   0.19480   0.01267  Uiso   1.00
C32    C     0.59850   0.25530   0.24940   0.01267  Uiso   1.00
C33    C     0.55990   0.36340   0.32400   0.01267  Uiso   1.00
C34    C     0.60590   0.39530   0.14260   0.01267  Uiso   1.00
C35    C     0.70970   0.08720   0.26260   0.01267  Uiso   1.00
C36    C     0.71050   0.06720   0.20840   0.01267  Uiso   1.00
C37    C     0.54800   0.34260   0.26990   0.01267  Uiso   1.00
C38    C     0.36280   0.29350   0.14280   0.01267  Uiso   1.00
C39    C     0.65770   0.14300   0.17550   0.01267  Uiso   1.00
C40    C     0.75760   0.05070   0.10280   0.01267  Uiso   1.00
C41    C     0.77180   0.41200   0.15580   0.01267  Uiso   1.00
C42    C     0.17700   0.20450   0.18670   0.01267  Uiso   1.00
C43    C     0.52580   0.46640   0.10990   0.01267  Uiso   1.00
C44    C     0.36230   0.45200   0.09610   0.01267  Uiso   1.00
C45    C     0.61230   0.55000   0.09220   0.01267  Uiso   1.00
C46    C     0.85400   0.49300   0.13770   0.01267  Uiso   1.00
C47    C     0.77100   0.56520   0.10530   0.01267  Uiso   1.00
C48    C     0.28100   0.36250   0.11100   0.01267  Uiso   1.00
C49    C     0.85280   0.77390   0.16460   0.01267  Uiso   1.00
C50    C     0.96870   0.82770   0.20390   0.01267  Uiso   1.00
C51    C     0.76000   0.57340   0.43800   0.01267  Uiso   1.00
C52    C     0.77300   0.47770   0.44820   0.01267  Uiso   1.00
C53    C     0.15670   0.32070   0.71610   0.01267  Uiso   1.00
C54    C     0.11930   0.21180   0.64320   0.01267  Uiso   1.00
C55    C     0.16700   0.30110   0.66180   0.01267  Uiso   1.00
C56    C     0.01850   0.19240   0.84050   0.01267  Uiso   1.00
C57    C     0.09490   0.26560   0.80520   0.01267  Uiso   1.00
C58    C     0.09850   0.24470   0.75060   0.01267  Uiso   1.00
C59    C     0.05990   0.13660   0.67600   0.01267  Uiso   1.00
C60    C     0.10590   0.10470   0.85740   0.01267  Uiso   1.00
C61    C     0.20970   0.41280   0.73740   0.01267  Uiso   1.00
C62    C     0.21050   0.43280   0.79160   0.01267  Uiso   1.00
C63    C     0.04800   0.15740   0.73010   0.01267  Uiso   1.00
C64    C     0.86280   0.20650   0.85720   0.01267  Uiso   1.00
C65    C     0.15770   0.35700   0.82450   0.01267  Uiso   1.00
C66    C     0.25760   0.44930   0.89720   0.01267  Uiso   1.00
C67    C     0.27180   0.08800   0.84420   0.01267  Uiso   1.00
C68    C     0.67700   0.29550   0.81330   0.01267  Uiso   1.00
C69    C     0.02580   0.03360   0.89010   0.01267  Uiso   1.00
C70    C     0.86230   0.04800   0.90390   0.01267  Uiso   1.00
C71    C     0.11230   0.95000   0.90780   0.01267  Uiso   1.00
C72    C     0.35400   0.00700   0.86230   0.01267  Uiso   1.00
C73    C     0.27100   0.93480   0.89470   0.01267  Uiso   1.00
C74    C     0.78100   0.13750   0.88900   0.01267  Uiso   1.00
C75    C     0.35280   0.72610   0.83540   0.01267  Uiso   1.00
C76    C     0.46870   0.67230   0.79610   0.01267  Uiso   1.00
C77    C     0.26000   0.92660   0.56200   0.01267  Uiso   1.00
C78    C     0.27300   0.02230   0.55180   0.01267  Uiso   1.00
C79    C     0.34330   0.67930   0.21610   0.01267  Uiso   1.00
C80    C     0.38070   0.78820   0.14320   0.01267  Uiso   1.00
C81    C     0.33300   0.69890   0.16180   0.01267  Uiso   1.00
C82    C     0.48150   0.80760   0.34050   0.01267  Uiso   1.00
C83    C     0.40510   0.73440   0.30520   0.01267  Uiso   1.00
C84    C     0.40150   0.75530   0.25060   0.01267  Uiso   1.00
C85    C     0.44010   0.86340   0.17600   0.01267  Uiso   1.00
C86    C     0.39410   0.89530   0.35740   0.01267  Uiso   1.00
C87    C     0.29030   0.58720   0.23740   0.01267  Uiso   1.00
C88    C     0.28950   0.56720   0.29160   0.01267  Uiso   1.00
C89    C     0.45200   0.84260   0.23010   0.01267  Uiso   1.00
C90    C     0.63720   0.79350   0.35720   0.01267  Uiso   1.00
C91    C     0.34230   0.64300   0.32450   0.01267  Uiso   1.00
C92    C     0.24240   0.55070   0.39720   0.01267  Uiso   1.00
C93    C     0.22820   0.91200   0.34420   0.01267  Uiso   1.00
C94    C     0.82300   0.70450   0.31330   0.01267  Uiso   1.00
C95    C     0.47420   0.96640   0.39010   0.01267  Uiso   1.00
C96    C     0.63770   0.95200   0.40390   0.01267  Uiso   1.00
C97    C     0.38770   0.05000   0.40780   0.01267  Uiso   1.00
C98    C     0.14600   0.99300   0.36230   0.01267  Uiso   1.00
C99    C     0.22900   0.06520   0.39470   0.01267  Uiso   1.00
C100   C     0.71900   0.86250   0.38900   0.01267  Uiso   1.00
C101   C     0.14720   0.27390   0.33540   0.01267  Uiso   1.00
C102   C     0.03130   0.32770   0.29610   0.01267  Uiso   1.00
C103   C     0.24000   0.07340   0.06200   0.01267  Uiso   1.00
C104   C     0.22700   0.97770   0.05180   0.01267  Uiso   1.00
O1     O     0.01880   0.63690   0.94340   0.01267  Uiso   1.00
O2     O     0.20640   0.79750   0.65270   0.01267  Uiso   1.00
O3     O     0.84800   0.86910   0.62270   0.01267  Uiso   1.00
O4     O     0.71400   0.61690   0.93190   0.01267  Uiso   1.00
O5     O     0.73080   0.26500   0.55540   0.01267  Uiso   1.00
O6     O     0.53970   0.27950   0.63063   0.01267  Uiso   1.00
O7     O     0.47310   0.37120   0.54990   0.01267  Uiso   1.00
O8     O     0.82340   0.78510   0.95287   0.01267  Uiso   1.00
O9     O     0.48120   0.36310   0.44340   0.01267  Uiso   1.00
O10    O     0.29360   0.20250   0.15270   0.01267  Uiso   1.00
O11    O     0.65200   0.13090   0.12270   0.01267  Uiso   1.00
O12    O     0.78600   0.38310   0.43190   0.01267  Uiso   1.00
O13    O     0.76920   0.73500   0.05540   0.01267  Uiso   1.00
O14    O     0.96030   0.72050   0.13063   0.01267  Uiso   1.00
O15    O     0.02690   0.62880   0.04990   0.01267  Uiso   1.00
O16    O     0.67660   0.21490   0.45287   0.01267  Uiso   1.00
O17    O     0.98120   0.13690   0.55660   0.01267  Uiso   1.00
O18    O     0.79360   0.29750   0.84730   0.01267  Uiso   1.00
O19    O     0.15200   0.36910   0.87730   0.01267  Uiso   1.00
O20    O     0.28600   0.11690   0.56810   0.01267  Uiso   1.00
O21    O     0.26920   0.76500   0.94460   0.01267  Uiso   1.00
O22    O     0.46030   0.77950   0.86937   0.01267  Uiso   1.00
O23    O     0.52690   0.87120   0.95010   0.01267  Uiso   1.00
O24    O     0.17660   0.28510   0.54713   0.01267  Uiso   1.00
O25    O     0.51880   0.86310   0.05660   0.01267  Uiso   1.00
O26    O     0.70640   0.70250   0.34730   0.01267  Uiso   1.00
O27    O     0.34800   0.63090   0.37730   0.01267  Uiso   1.00
O28    O     0.21400   0.88310   0.06810   0.01267  Uiso   1.00
O29    O     0.23080   0.23500   0.44460   0.01267  Uiso   1.00
O30    O     0.03970   0.22050   0.36937   0.01267  Uiso   1.00
O31    O     0.97310   0.12880   0.45010   0.01267  Uiso   1.00
O32    O     0.32340   0.71490   0.04713   0.01267  Uiso   1.00
H1     H     0.78463   0.86068   0.86579   0.01267  Uiso   1.00
H2     H     0.97710   0.56152   0.84100   0.01267  Uiso   1.00
H3     H     0.74580   0.97467   0.78947   0.01267  Uiso   1.00
H4     H     0.74682   0.00837   0.69348   0.01267  Uiso   1.00
H5     H     0.00552   0.59950   0.74230   0.01267  Uiso   1.00
H6     H     0.60934   0.92819   0.60904   0.01267  Uiso   1.00
H7     H     0.76612   0.96039   0.55942   0.01267  Uiso   1.00
H8     H     0.77007   0.02135   0.62455   0.01267  Uiso   1.00
H9     H     0.66134   0.64297   0.68203   0.01267  Uiso   1.00
H10    H     0.43907   0.82636   0.66844   0.01267  Uiso   1.00
H11    H     0.34467   0.71548   0.69979   0.01267  Uiso   1.00
H12    H     0.28785   0.84291   0.72179   0.01267  Uiso   1.00
H13    H     0.95031   0.39282   0.56619   0.01267  Uiso   1.00
H14    H     0.51216   0.49617   0.64807   0.01267  Uiso   1.00
H15    H     0.44680   0.13308   0.73255   0.01267  Uiso   1.00
H16    H     0.75126   0.34370   0.92916   0.01267  Uiso   1.00
H17    H     0.71525   0.13965   0.36601   0.01267  Uiso   1.00
H18    H     0.52290   0.43848   0.34100   0.01267  Uiso   1.00
H19    H     0.75420   0.02533   0.28947   0.01267  Uiso   1.00
H20    H     0.75318   0.99163   0.19348   0.01267  Uiso   1.00
H21    H     0.49380   0.40235   0.24355   0.01267  Uiso   1.00
H22    H     0.75185   0.04935   0.05842   0.01267  Uiso   1.00
H23    H     0.71420   0.97611   0.11882   0.01267  Uiso   1.00
H24    H     0.88842   0.06461   0.11577   0.01267  Uiso   1.00
H25    H     0.83866   0.35703   0.18203   0.01267  Uiso   1.00
H26    H     0.15017   0.12553   0.20054   0.01267  Uiso   1.00
H27    H     0.06301   0.23751   0.16814   0.01267  Uiso   1.00
H28    H     0.21523   0.25222   0.22134   0.01267  Uiso   1.00
H29    H     0.29475   0.51167   0.07306   0.01267  Uiso   1.00
H30    H     0.98784   0.50383   0.14807   0.01267  Uiso   1.00
H31    H     0.15136   0.34662   0.09744   0.01267  Uiso   1.00
H32    H     0.05320   0.86692   0.23255   0.01267  Uiso   1.00
H33    H     0.74874   0.65630   0.42916   0.01267  Uiso   1.00
H34    H     0.21537   0.36068   0.63421   0.01267  Uiso   1.00
H35    H     0.02290   0.06152   0.65900   0.01267  Uiso   1.00
H36    H     0.25420   0.47467   0.71053   0.01267  Uiso   1.00
H37    H     0.25318   0.50837   0.80652   0.01267  Uiso   1.00
H38    H     0.99448   0.09950   0.75770   0.01267  Uiso   1.00
H39    H     0.31780   0.48930   0.86308   0.01267  Uiso   1.00
H40    H     0.35545   0.41606   0.92348   0.01267  Uiso   1.00
H41    H     0.18122   0.50456   0.92043   0.01267  Uiso   1.00
H42    H     0.33866   0.14297   0.81797   0.01267  Uiso   1.00
H43    H     0.63544   0.21536   0.80720   0.01267  Uiso   1.00
H44    H     0.72260   0.32734   0.77479   0.01267  Uiso   1.00
H45    H     0.57037   0.34205   0.82800   0.01267  Uiso   1.00
H46    H     0.48784   0.99617   0.85193   0.01267  Uiso   1.00
H47    H     0.55320   0.63308   0.76745   0.01267  Uiso   1.00
H48    H     0.24874   0.84370   0.57084   0.01267  Uiso   1.00
H49    H     0.28463   0.63932   0.13421   0.01267  Uiso   1.00
H50    H     0.47710   0.93848   0.15900   0.01267  Uiso   1.00
H51    H     0.24580   0.52533   0.21053   0.01267  Uiso   1.00
H52    H     0.24682   0.49163   0.30652   0.01267  Uiso   1.00
H53    H     0.50620   0.90235   0.25645   0.01267  Uiso   1.00
H54    H     0.32101   0.48824   0.41370   0.01267  Uiso   1.00
H55    H     0.16424   0.52044   0.36408   0.01267  Uiso   1.00
H56    H     0.16029   0.58140   0.42921   0.01267  Uiso   1.00
H57    H     0.16134   0.85703   0.31797   0.01267  Uiso   1.00
H58    H     0.77533   0.73653   0.27510   0.01267  Uiso   1.00
H59    H     0.86972   0.62565   0.30644   0.01267  Uiso   1.00
H60    H     0.92654   0.75308   0.32844   0.01267  Uiso   1.00
H61    H     0.70525   0.01167   0.42694   0.01267  Uiso   1.00
H62    H     0.01216   0.00383   0.35193   0.01267  Uiso   1.00
H63    H     0.84865   0.84770   0.40287   0.01267  Uiso   1.00
H64    H     0.94680   0.36692   0.26745   0.01267  Uiso   1.00
H65    H     0.25126   0.15630   0.07084   0.01267  Uiso   1.00
