data_LULHUW_clean
_audit_creation_date              2014-07-02
_audit_creation_method            'Materials Studio'
_symmetry_space_group_name_H-M    'P1'
_symmetry_Int_Tables_number       1
_symmetry_cell_setting            triclinic
loop_
_symmetry_equiv_pos_as_xyz
  x,y,z
_cell_length_a                    6.9290
_cell_length_b                    8.1850
_cell_length_c                    10.4415
_cell_angle_alpha                 108.7510
_cell_angle_beta                  109.3780
_cell_angle_gamma                 90.0000
loop_
_atom_site_label
_atom_site_type_symbol
_atom_site_fract_x
_atom_site_fract_y
_atom_site_fract_z
_atom_site_U_iso_or_equiv
_atom_site_adp_type
_atom_site_occupancy
Ni1    Ni    0.00000   0.00000   0.50000   0.01267  Uiso   1.00
Ni2    Ni    0.50000   0.50000   0.50000   0.01267  Uiso   1.00
H1     H     0.06330   0.01180   0.80480   0.01267  Uiso   1.00
H2     H     0.82060   0.85170   0.92620   0.01267  Uiso   1.00
H3     H     0.25850   0.48820   0.19520   0.01267  Uiso   1.00
H4     H     0.89440   0.64830   0.07380   0.01267  Uiso   1.00
H5     H     0.93670   0.98820   0.19520   0.01267  Uiso   1.00
H6     H     0.17940   0.14830   0.07380   0.01267  Uiso   1.00
H7     H     0.74150   0.51180   0.80480   0.01267  Uiso   1.00
H8     H     0.10560   0.35170   0.92620   0.01267  Uiso   1.00
C1     C     0.81630   0.81970   0.66360   0.01267  Uiso   1.00
C2     C     0.95420   0.94000   0.80660   0.01267  Uiso   1.00
C3     C     0.93290   0.94170   0.92920   0.01267  Uiso   1.00
C4     C     0.15270   0.68030   0.33640   0.01267  Uiso   1.00
C5     C     0.14760   0.56000   0.19340   0.01267  Uiso   1.00
C6     C     0.00370   0.55830   0.07080   0.01267  Uiso   1.00
C7     C     0.18370   0.18030   0.33640   0.01267  Uiso   1.00
C8     C     0.04580   0.06000   0.19340   0.01267  Uiso   1.00
C9     C     0.06710   0.05830   0.07080   0.01267  Uiso   1.00
C10    C     0.84730   0.31970   0.66360   0.01267  Uiso   1.00
C11    C     0.85240   0.44000   0.80660   0.01267  Uiso   1.00
C12    C     0.99630   0.44170   0.92920   0.01267  Uiso   1.00
O1     O     0.83887   0.82870   0.55034   0.01267  Uiso   1.00
O2     O     0.68250   0.71310   0.66060   0.01267  Uiso   1.00
O3     O     0.28853   0.67130   0.44966   0.01267  Uiso   1.00
O4     O     0.02190   0.78690   0.33940   0.01267  Uiso   1.00
O5     O     0.16113   0.17130   0.44966   0.01267  Uiso   1.00
O6     O     0.31750   0.28690   0.33940   0.01267  Uiso   1.00
O7     O     0.71147   0.32870   0.55034   0.01267  Uiso   1.00
O8     O     0.97810   0.21310   0.66060   0.01267  Uiso   1.00
