data_image0
_cell_length_a       25.938
_cell_length_b       18.158
_cell_length_c       16.7929
_cell_angle_alpha    90
_cell_angle_beta     116.945
_cell_angle_gamma    90

_symmetry_space_group_name_H-M    "P 1"
_symmetry_int_tables_number       1

loop_
  _symmetry_equiv_pos_as_xyz
  'x, y, z'

loop_
  _atom_site_label
  _atom_site_occupancy
  _atom_site_fract_x
  _atom_site_fract_y
  _atom_site_fract_z
  _atom_site_thermal_displace_type
  _atom_site_B_iso_or_equiv
  _atom_site_type_symbol
  Co1      1.0000 0.37050  0.72123  0.51337  Biso   1.000  Co
  Co2      1.0000 0.29643  0.76828  0.29557  Biso   1.000  Co
  Co3      1.0000 0.21186  0.81194  0.06896  Biso   1.000  Co
  O1       1.0000 0.37450  0.62200  0.46050  Biso   1.000  O
  O2       1.0000 0.31430  0.65470  0.31860  Biso   1.000  O
  O3       1.0000 0.28280  0.88130  0.27730  Biso   1.000  O
  O4       1.0000 0.21580  0.90630  0.13600  Biso   1.000  O
  O5       1.0000 0.45630  0.75130  0.52260  Biso   1.000  O
  O6       1.0000 0.37380  0.79040  0.41430  Biso   1.000  O
  O7       1.0000 0.72150  0.24080  0.17640  Biso   1.000  O
  O8       1.0000 0.63390  0.27630  0.08270  Biso   1.000  O
  O9       1.0000 0.34710  0.76700  0.22820  Biso   1.000  O
  O10      1.0000 0.29550  0.81480  0.09100  Biso   1.000  O
  O11      1.0000 0.78630  0.80420  0.97620  Biso   1.000  O
  O12      1.0000 0.74370  0.72270  0.86470  Biso   1.000  O
  N1       1.0000 0.19890  0.72360  0.97850  Biso   1.000  N
  N2       1.0000 0.17940  0.86520  0.94310  Biso   1.000  N
  N3       1.0000 0.35990  0.82390  0.56910  Biso   1.000  N
  N4       1.0000 0.40440  0.69790  0.64940  Biso   1.000  N
  C1       1.0000 0.33970  0.60880  0.38080  Biso   1.000  C
  C2       1.0000 0.32720  0.52750  0.35780  Biso   1.000  C
  C3       1.0000 0.34460  0.47570  0.42410  Biso   1.000  C
  H1       1.0000 0.36450  0.49140  0.48460  Biso   1.000  H
  C4       1.0000 0.33420  0.40120  0.40600  Biso   1.000  C
  H2       1.0000 0.34710  0.36640  0.45340  Biso   1.000  H
  C5       1.0000 0.30450  0.37780  0.31740  Biso   1.000  C
  C6       1.0000 0.28670  0.42950  0.24820  Biso   1.000  C
  H3       1.0000 0.26740  0.41360  0.18780  Biso   1.000  H
  C7       1.0000 0.29710  0.50420  0.26760  Biso   1.000  C
  H4       1.0000 0.28420  0.53930  0.22060  Biso   1.000  H
  C8       1.0000 0.29340  0.30010  0.29710  Biso   1.000  C
  C9       1.0000 0.28530  0.23560  0.28320  Biso   1.000  C
  C10      1.0000 0.27520  0.15810  0.26750  Biso   1.000  C
  C11      1.0000 0.30480  0.10760  0.33670  Biso   1.000  C
  H5       1.0000 0.33040  0.12470  0.39480  Biso   1.000  H
  C12      1.0000 0.29620  0.03110  0.31950  Biso   1.000  C
  H6       1.0000 0.31640  0.99680  0.36600  Biso   1.000  H
  C13      1.0000 0.25800  0.00590  0.23380  Biso   1.000  C
  C14      1.0000 0.22730  0.05670  0.16700  Biso   1.000  C
  H7       1.0000 0.20000  0.03970  0.10980  Biso   1.000  H
  C15      1.0000 0.23590  0.13180  0.18270  Biso   1.000  C
  H8       1.0000 0.21520  0.16570  0.13600  Biso   1.000  H
  C16      1.0000 0.25140  0.92440  0.21430  Biso   1.000  C
  C17      1.0000 0.43000  0.79010  0.45300  Biso   1.000  C
  C18      1.0000 0.46150  0.83950  0.42000  Biso   1.000  C
  C19      1.0000 0.52100  0.83080  0.44960  Biso   1.000  C
  H9       1.0000 0.54060  0.79080  0.48790  Biso   1.000  H
  C20      1.0000 0.55130  0.87920  0.42410  Biso   1.000  C
  H10      1.0000 0.59150  0.87220  0.44380  Biso   1.000  H
  C21      1.0000 0.52280  0.93940  0.36850  Biso   1.000  C
  C22      1.0000 0.46330  0.94810  0.33970  Biso   1.000  C
  H11      1.0000 0.44380  0.98860  0.30230  Biso   1.000  H
  C23      1.0000 0.43210  0.89860  0.36460  Biso   1.000  C
  H12      1.0000 0.39170  0.90500  0.34430  Biso   1.000  H
  C24      1.0000 0.55320  0.99370  0.34390  Biso   1.000  C
  C25      1.0000 0.57380  0.04260  0.31980  Biso   1.000  C
  C26      1.0000 0.59870  0.09570  0.28300  Biso   1.000  C
  C27      1.0000 0.65660  0.09120  0.30050  Biso   1.000  C
  H13      1.0000 0.68140  0.05630  0.34260  Biso   1.000  H
  C28      1.0000 0.67820  0.13740  0.25690  Biso   1.000  C
  H14      1.0000 0.71710  0.13240  0.26680  Biso   1.000  H
  C29      1.0000 0.64230  0.19150  0.19810  Biso   1.000  C
  C30      1.0000 0.58600  0.19830  0.18340  Biso   1.000  C
  H15      1.0000 0.56230  0.23550  0.14410  Biso   1.000  H
  C31      1.0000 0.56250  0.15140  0.22540  Biso   1.000  C
  H16      1.0000 0.52360  0.15680  0.21560  Biso   1.000  H
  C32      1.0000 0.66660  0.24030  0.15080  Biso   1.000  C
  C33      1.0000 0.34100  0.78860  0.15370  Biso   1.000  C
  C34      1.0000 0.39160  0.77890  0.13320  Biso   1.000  C
  C35      1.0000 0.38080  0.76820  0.04510  Biso   1.000  C
  H17      1.0000 0.34200  0.76820  0.99930  Biso   1.000  H
  C36      1.0000 0.42580  0.75770  0.02280  Biso   1.000  C
  H18      1.0000 0.41780  0.75040  0.96230  Biso   1.000  H
  C37      1.0000 0.48400  0.75780  0.09160  Biso   1.000  C
  C38      1.0000 0.49430  0.77060  0.18030  Biso   1.000  C
  H19      1.0000 0.53290  0.77220  0.22670  Biso   1.000  H
  C39      1.0000 0.44880  0.78070  0.20030  Biso   1.000  C
  H20      1.0000 0.45630  0.78900  0.26050  Biso   1.000  H
  C40      1.0000 0.53020  0.74890  0.06740  Biso   1.000  C
  C41      1.0000 0.56630  0.74440  0.04060  Biso   1.000  C
  C42      1.0000 0.61030  0.74620  0.01030  Biso   1.000  C
  C43      1.0000 0.61070  0.69810  0.94580  Biso   1.000  C
  H21      1.0000 0.58180  0.66110  0.92160  Biso   1.000  H
  C44      1.0000 0.65310  0.70370  0.91600  Biso   1.000  C
  H22      1.0000 0.65210  0.67180  0.87040  Biso   1.000  H
  C45      1.0000 0.69710  0.75670  0.95410  Biso   1.000  C
  C46      1.0000 0.69740  0.80300  0.01920  Biso   1.000  C
  H23      1.0000 0.72720  0.83870  0.04490  Biso   1.000  H
  C47      1.0000 0.65460  0.79860  0.04880  Biso   1.000  C
  H24      1.0000 0.65570  0.83070  0.09420  Biso   1.000  H
  C48      1.0000 0.74550  0.76140  0.92760  Biso   1.000  C
  C49      1.0000 0.21320  0.65390  0.00360  Biso   1.000  C
  H25      1.0000 0.22880  0.64210  0.06530  Biso   1.000  H
  C50      1.0000 0.20620  0.59740  0.94280  Biso   1.000  C
  H26      1.0000 0.21710  0.54810  0.96230  Biso   1.000  H
  C51      1.0000 0.18230  0.61600  0.85240  Biso   1.000  C
  H27      1.0000 0.17650  0.57900  0.80910  Biso   1.000  H
  C52      1.0000 0.16730  0.68840  0.82570  Biso   1.000  C
  H28      1.0000 0.15130  0.70190  0.76450  Biso   1.000  H
  C53      1.0000 0.17650  0.74090  0.89210  Biso   1.000  C
  C54      1.0000 0.16580  0.82130  0.87100  Biso   1.000  C
  C55      1.0000 0.14570  0.85020  0.78540  Biso   1.000  C
  H29      1.0000 0.13540  0.81830  0.73570  Biso   1.000  H
  C56      1.0000 0.14070  0.92590  0.77320  Biso   1.000  C
  H30      1.0000 0.12740  0.94660  0.71520  Biso   1.000  H
  C57      1.0000 0.15560  0.97070  0.84720  Biso   1.000  C
  H31      1.0000 0.15280  0.02280  0.84070  Biso   1.000  H
  C58      1.0000 0.17480  0.93850  0.93190  Biso   1.000  C
  H32      1.0000 0.18470  0.96930  0.98250  Biso   1.000  H
  C59      1.0000 0.33490  0.88450  0.52220  Biso   1.000  C
  H33      1.0000 0.31920  0.88300  0.45900  Biso   1.000  H
  C60      1.0000 0.33110  0.94980  0.56290  Biso   1.000  C
  H34      1.0000 0.31250  0.99200  0.52830  Biso   1.000  H
  C61      1.0000 0.35470  0.95140  0.65400  Biso   1.000  C
  H35      1.0000 0.35300  0.99540  0.68340  Biso   1.000  H
  C62      1.0000 0.38110  0.88930  0.70380  Biso   1.000  C
  H36      1.0000 0.39740  0.88950  0.76710  Biso   1.000  H
  C63      1.0000 0.38280  0.82580  0.65670  Biso   1.000  C
  C64      1.0000 0.40820  0.75460  0.70280  Biso   1.000  C
  C65      1.0000 0.43140  0.74520  0.79610  Biso   1.000  C
  H37      1.0000 0.43310  0.78550  0.83320  Biso   1.000  H
  C66      1.0000 0.45170  0.67600  0.83320  Biso   1.000  C
  H38      1.0000 0.46890  0.66890  0.89600  Biso   1.000  H
  C67      1.0000 0.44610  0.61680  0.77570  Biso   1.000  C
  H39      1.0000 0.45820  0.56870  0.79860  Biso   1.000  H
  C68      1.0000 0.42240  0.63050  0.68470  Biso   1.000  C
  H40      1.0000 0.41880  0.59080  0.64560  Biso   1.000  H
  Co4      1.0000 0.87050  0.22123  0.51337  Biso   1.000  Co
  Co5      1.0000 0.79643  0.26828  0.29557  Biso   1.000  Co
  Co6      1.0000 0.71186  0.31194  0.06896  Biso   1.000  Co
  O13      1.0000 0.87450  0.12200  0.46050  Biso   1.000  O
  O14      1.0000 0.81430  0.15470  0.31860  Biso   1.000  O
  O15      1.0000 0.78280  0.38130  0.27730  Biso   1.000  O
  O16      1.0000 0.71580  0.40630  0.13600  Biso   1.000  O
  O17      1.0000 0.95630  0.25130  0.52260  Biso   1.000  O
  O18      1.0000 0.87380  0.29040  0.41430  Biso   1.000  O
  O19      1.0000 0.22150  0.74080  0.17640  Biso   1.000  O
  O20      1.0000 0.13390  0.77630  0.08270  Biso   1.000  O
  O21      1.0000 0.84710  0.26700  0.22820  Biso   1.000  O
  O22      1.0000 0.79550  0.31480  0.09100  Biso   1.000  O
  O23      1.0000 0.28630  0.30420  0.97620  Biso   1.000  O
  O24      1.0000 0.24370  0.22270  0.86470  Biso   1.000  O
  N5       1.0000 0.69890  0.22360  0.97850  Biso   1.000  N
  N6       1.0000 0.67940  0.36520  0.94310  Biso   1.000  N
  N7       1.0000 0.85990  0.32390  0.56910  Biso   1.000  N
  N8       1.0000 0.90440  0.19790  0.64940  Biso   1.000  N
  C69      1.0000 0.83970  0.10880  0.38080  Biso   1.000  C
  C70      1.0000 0.82720  0.02750  0.35780  Biso   1.000  C
  C71      1.0000 0.84460  0.97570  0.42410  Biso   1.000  C
  H41      1.0000 0.86450  0.99140  0.48460  Biso   1.000  H
  C72      1.0000 0.83420  0.90120  0.40600  Biso   1.000  C
  H42      1.0000 0.84710  0.86640  0.45340  Biso   1.000  H
  C73      1.0000 0.80450  0.87780  0.31740  Biso   1.000  C
  C74      1.0000 0.78670  0.92950  0.24820  Biso   1.000  C
  H43      1.0000 0.76740  0.91360  0.18780  Biso   1.000  H
  C75      1.0000 0.79710  0.00420  0.26760  Biso   1.000  C
  H44      1.0000 0.78420  0.03930  0.22060  Biso   1.000  H
  C76      1.0000 0.79340  0.80010  0.29710  Biso   1.000  C
  C77      1.0000 0.78530  0.73560  0.28320  Biso   1.000  C
  C78      1.0000 0.77520  0.65810  0.26750  Biso   1.000  C
  C79      1.0000 0.80480  0.60760  0.33670  Biso   1.000  C
  H45      1.0000 0.83040  0.62470  0.39480  Biso   1.000  H
  C80      1.0000 0.79620  0.53110  0.31950  Biso   1.000  C
  H46      1.0000 0.81640  0.49680  0.36600  Biso   1.000  H
  C81      1.0000 0.75800  0.50590  0.23380  Biso   1.000  C
  C82      1.0000 0.72730  0.55670  0.16700  Biso   1.000  C
  H47      1.0000 0.70000  0.53970  0.10980  Biso   1.000  H
  C83      1.0000 0.73590  0.63180  0.18270  Biso   1.000  C
  H48      1.0000 0.71520  0.66570  0.13600  Biso   1.000  H
  C84      1.0000 0.75140  0.42440  0.21430  Biso   1.000  C
  C85      1.0000 0.93000  0.29010  0.45300  Biso   1.000  C
  C86      1.0000 0.96150  0.33950  0.42000  Biso   1.000  C
  C87      1.0000 0.02100  0.33080  0.44960  Biso   1.000  C
  H49      1.0000 0.04060  0.29080  0.48790  Biso   1.000  H
  C88      1.0000 0.05130  0.37920  0.42410  Biso   1.000  C
  H50      1.0000 0.09150  0.37220  0.44380  Biso   1.000  H
  C89      1.0000 0.02280  0.43940  0.36850  Biso   1.000  C
  C90      1.0000 0.96330  0.44810  0.33970  Biso   1.000  C
  H51      1.0000 0.94380  0.48860  0.30230  Biso   1.000  H
  C91      1.0000 0.93210  0.39860  0.36460  Biso   1.000  C
  H52      1.0000 0.89170  0.40500  0.34430  Biso   1.000  H
  C92      1.0000 0.05320  0.49370  0.34390  Biso   1.000  C
  C93      1.0000 0.07380  0.54260  0.31980  Biso   1.000  C
  C94      1.0000 0.09870  0.59570  0.28300  Biso   1.000  C
  C95      1.0000 0.15660  0.59120  0.30050  Biso   1.000  C
  H53      1.0000 0.18140  0.55630  0.34260  Biso   1.000  H
  C96      1.0000 0.17820  0.63740  0.25690  Biso   1.000  C
  H54      1.0000 0.21710  0.63240  0.26680  Biso   1.000  H
  C97      1.0000 0.14230  0.69150  0.19810  Biso   1.000  C
  C98      1.0000 0.08600  0.69830  0.18340  Biso   1.000  C
  H55      1.0000 0.06230  0.73550  0.14410  Biso   1.000  H
  C99      1.0000 0.06250  0.65140  0.22540  Biso   1.000  C
  H56      1.0000 0.02360  0.65680  0.21560  Biso   1.000  H
  C100     1.0000 0.16660  0.74030  0.15080  Biso   1.000  C
  C101     1.0000 0.84100  0.28860  0.15370  Biso   1.000  C
  C102     1.0000 0.89160  0.27890  0.13320  Biso   1.000  C
  C103     1.0000 0.88080  0.26820  0.04510  Biso   1.000  C
  H57      1.0000 0.84200  0.26820  0.99930  Biso   1.000  H
  C104     1.0000 0.92580  0.25770  0.02280  Biso   1.000  C
  H58      1.0000 0.91780  0.25040  0.96230  Biso   1.000  H
  C105     1.0000 0.98400  0.25780  0.09160  Biso   1.000  C
  C106     1.0000 0.99430  0.27060  0.18030  Biso   1.000  C
  H59      1.0000 0.03290  0.27220  0.22670  Biso   1.000  H
  C107     1.0000 0.94880  0.28070  0.20030  Biso   1.000  C
  H60      1.0000 0.95630  0.28900  0.26050  Biso   1.000  H
  C108     1.0000 0.03020  0.24890  0.06740  Biso   1.000  C
  C109     1.0000 0.06630  0.24440  0.04060  Biso   1.000  C
  C110     1.0000 0.11030  0.24620  0.01030  Biso   1.000  C
  C111     1.0000 0.11070  0.19810  0.94580  Biso   1.000  C
  H61      1.0000 0.08180  0.16110  0.92160  Biso   1.000  H
  C112     1.0000 0.15310  0.20370  0.91600  Biso   1.000  C
  H62      1.0000 0.15210  0.17180  0.87040  Biso   1.000  H
  C113     1.0000 0.19710  0.25670  0.95410  Biso   1.000  C
  C114     1.0000 0.19740  0.30300  0.01920  Biso   1.000  C
  H63      1.0000 0.22720  0.33870  0.04490  Biso   1.000  H
  C115     1.0000 0.15460  0.29860  0.04880  Biso   1.000  C
  H64      1.0000 0.15570  0.33070  0.09420  Biso   1.000  H
  C116     1.0000 0.24550  0.26140  0.92760  Biso   1.000  C
  C117     1.0000 0.71320  0.15390  0.00360  Biso   1.000  C
  H65      1.0000 0.72880  0.14210  0.06530  Biso   1.000  H
  C118     1.0000 0.70620  0.09740  0.94280  Biso   1.000  C
  H66      1.0000 0.71710  0.04810  0.96230  Biso   1.000  H
  C119     1.0000 0.68230  0.11600  0.85240  Biso   1.000  C
  H67      1.0000 0.67650  0.07900  0.80910  Biso   1.000  H
  C120     1.0000 0.66730  0.18840  0.82570  Biso   1.000  C
  H68      1.0000 0.65130  0.20190  0.76450  Biso   1.000  H
  C121     1.0000 0.67650  0.24090  0.89210  Biso   1.000  C
  C122     1.0000 0.66580  0.32130  0.87100  Biso   1.000  C
  C123     1.0000 0.64570  0.35020  0.78540  Biso   1.000  C
  H69      1.0000 0.63540  0.31830  0.73570  Biso   1.000  H
  C124     1.0000 0.64070  0.42590  0.77320  Biso   1.000  C
  H70      1.0000 0.62740  0.44660  0.71520  Biso   1.000  H
  C125     1.0000 0.65560  0.47070  0.84720  Biso   1.000  C
  H71      1.0000 0.65280  0.52280  0.84070  Biso   1.000  H
  C126     1.0000 0.67480  0.43850  0.93190  Biso   1.000  C
  H72      1.0000 0.68470  0.46930  0.98250  Biso   1.000  H
  C127     1.0000 0.83490  0.38450  0.52220  Biso   1.000  C
  H73      1.0000 0.81920  0.38300  0.45900  Biso   1.000  H
  C128     1.0000 0.83110  0.44980  0.56290  Biso   1.000  C
  H74      1.0000 0.81250  0.49200  0.52830  Biso   1.000  H
  C129     1.0000 0.85470  0.45140  0.65400  Biso   1.000  C
  H75      1.0000 0.85300  0.49540  0.68340  Biso   1.000  H
  C130     1.0000 0.88110  0.38930  0.70380  Biso   1.000  C
  H76      1.0000 0.89740  0.38950  0.76710  Biso   1.000  H
  C131     1.0000 0.88280  0.32580  0.65670  Biso   1.000  C
  C132     1.0000 0.90820  0.25460  0.70280  Biso   1.000  C
  C133     1.0000 0.93140  0.24520  0.79610  Biso   1.000  C
  H77      1.0000 0.93310  0.28550  0.83320  Biso   1.000  H
  C134     1.0000 0.95170  0.17600  0.83320  Biso   1.000  C
  H78      1.0000 0.96890  0.16890  0.89600  Biso   1.000  H
  C135     1.0000 0.94610  0.11680  0.77570  Biso   1.000  C
  H79      1.0000 0.95820  0.06870  0.79860  Biso   1.000  H
  C136     1.0000 0.92240  0.13050  0.68470  Biso   1.000  C
  H80      1.0000 0.91880  0.09080  0.64560  Biso   1.000  H
  Co7      1.0000 0.37050  0.27877  0.01337  Biso   1.000  Co
  Co8      1.0000 0.29643  0.23172  0.79557  Biso   1.000  Co
  Co9      1.0000 0.21186  0.18806  0.56896  Biso   1.000  Co
  O25      1.0000 0.37450  0.37800  0.96050  Biso   1.000  O
  O26      1.0000 0.31430  0.34530  0.81860  Biso   1.000  O
  O27      1.0000 0.28280  0.11870  0.77730  Biso   1.000  O
  O28      1.0000 0.21580  0.09370  0.63600  Biso   1.000  O
  O29      1.0000 0.45630  0.24870  0.02260  Biso   1.000  O
  O30      1.0000 0.37380  0.20960  0.91430  Biso   1.000  O
  O31      1.0000 0.72150  0.75920  0.67640  Biso   1.000  O
  O32      1.0000 0.63390  0.72370  0.58270  Biso   1.000  O
  O33      1.0000 0.34710  0.23300  0.72820  Biso   1.000  O
  O34      1.0000 0.29550  0.18520  0.59100  Biso   1.000  O
  O35      1.0000 0.78630  0.19580  0.47620  Biso   1.000  O
  O36      1.0000 0.74370  0.27730  0.36470  Biso   1.000  O
  N9       1.0000 0.19890  0.27640  0.47850  Biso   1.000  N
  N10      1.0000 0.17940  0.13480  0.44310  Biso   1.000  N
  N11      1.0000 0.35990  0.17610  0.06910  Biso   1.000  N
  N12      1.0000 0.40440  0.30210  0.14940  Biso   1.000  N
  C137     1.0000 0.33970  0.39120  0.88080  Biso   1.000  C
  C138     1.0000 0.32720  0.47250  0.85780  Biso   1.000  C
  C139     1.0000 0.34460  0.52430  0.92410  Biso   1.000  C
  H81      1.0000 0.36450  0.50860  0.98460  Biso   1.000  H
  C140     1.0000 0.33420  0.59880  0.90600  Biso   1.000  C
  H82      1.0000 0.34710  0.63360  0.95340  Biso   1.000  H
  C141     1.0000 0.30450  0.62220  0.81740  Biso   1.000  C
  C142     1.0000 0.28670  0.57050  0.74820  Biso   1.000  C
  H83      1.0000 0.26740  0.58640  0.68780  Biso   1.000  H
  C143     1.0000 0.29710  0.49580  0.76760  Biso   1.000  C
  H84      1.0000 0.28420  0.46070  0.72060  Biso   1.000  H
  C144     1.0000 0.29340  0.69990  0.79710  Biso   1.000  C
  C145     1.0000 0.28530  0.76440  0.78320  Biso   1.000  C
  C146     1.0000 0.27520  0.84190  0.76750  Biso   1.000  C
  C147     1.0000 0.30480  0.89240  0.83670  Biso   1.000  C
  H85      1.0000 0.33040  0.87530  0.89480  Biso   1.000  H
  C148     1.0000 0.29620  0.96890  0.81950  Biso   1.000  C
  H86      1.0000 0.31640  0.00320  0.86600  Biso   1.000  H
  C149     1.0000 0.25800  0.99410  0.73380  Biso   1.000  C
  C150     1.0000 0.22730  0.94330  0.66700  Biso   1.000  C
  H87      1.0000 0.20000  0.96030  0.60980  Biso   1.000  H
  C151     1.0000 0.23590  0.86820  0.68270  Biso   1.000  C
  H88      1.0000 0.21520  0.83430  0.63600  Biso   1.000  H
  C152     1.0000 0.25140  0.07560  0.71430  Biso   1.000  C
  C153     1.0000 0.43000  0.20990  0.95300  Biso   1.000  C
  C154     1.0000 0.46150  0.16050  0.92000  Biso   1.000  C
  C155     1.0000 0.52100  0.16920  0.94960  Biso   1.000  C
  H89      1.0000 0.54060  0.20920  0.98790  Biso   1.000  H
  C156     1.0000 0.55130  0.12080  0.92410  Biso   1.000  C
  H90      1.0000 0.59150  0.12780  0.94380  Biso   1.000  H
  C157     1.0000 0.52280  0.06060  0.86850  Biso   1.000  C
  C158     1.0000 0.46330  0.05190  0.83970  Biso   1.000  C
  H91      1.0000 0.44380  0.01140  0.80230  Biso   1.000  H
  C159     1.0000 0.43210  0.10140  0.86460  Biso   1.000  C
  H92      1.0000 0.39170  0.09500  0.84430  Biso   1.000  H
  C160     1.0000 0.55320  0.00630  0.84390  Biso   1.000  C
  C161     1.0000 0.57380  0.95740  0.81980  Biso   1.000  C
  C162     1.0000 0.59870  0.90430  0.78300  Biso   1.000  C
  C163     1.0000 0.65660  0.90880  0.80050  Biso   1.000  C
  H93      1.0000 0.68140  0.94370  0.84260  Biso   1.000  H
  C164     1.0000 0.67820  0.86260  0.75690  Biso   1.000  C
  H94      1.0000 0.71710  0.86760  0.76680  Biso   1.000  H
  C165     1.0000 0.64230  0.80850  0.69810  Biso   1.000  C
  C166     1.0000 0.58600  0.80170  0.68340  Biso   1.000  C
  H95      1.0000 0.56230  0.76450  0.64410  Biso   1.000  H
  C167     1.0000 0.56250  0.84860  0.72540  Biso   1.000  C
  H96      1.0000 0.52360  0.84320  0.71560  Biso   1.000  H
  C168     1.0000 0.66660  0.75970  0.65080  Biso   1.000  C
  C169     1.0000 0.34100  0.21140  0.65370  Biso   1.000  C
  C170     1.0000 0.39160  0.22110  0.63320  Biso   1.000  C
  C171     1.0000 0.38080  0.23180  0.54510  Biso   1.000  C
  H97      1.0000 0.34200  0.23180  0.49930  Biso   1.000  H
  C172     1.0000 0.42580  0.24230  0.52280  Biso   1.000  C
  H98      1.0000 0.41780  0.24960  0.46230  Biso   1.000  H
  C173     1.0000 0.48400  0.24220  0.59160  Biso   1.000  C
  C174     1.0000 0.49430  0.22940  0.68030  Biso   1.000  C
  H99      1.0000 0.53290  0.22780  0.72670  Biso   1.000  H
  C175     1.0000 0.44880  0.21930  0.70030  Biso   1.000  C
  H100     1.0000 0.45630  0.21100  0.76050  Biso   1.000  H
  C176     1.0000 0.53020  0.25110  0.56740  Biso   1.000  C
  C177     1.0000 0.56630  0.25560  0.54060  Biso   1.000  C
  C178     1.0000 0.61030  0.25380  0.51030  Biso   1.000  C
  C179     1.0000 0.61070  0.30190  0.44580  Biso   1.000  C
  H101     1.0000 0.58180  0.33890  0.42160  Biso   1.000  H
  C180     1.0000 0.65310  0.29630  0.41600  Biso   1.000  C
  H102     1.0000 0.65210  0.32820  0.37040  Biso   1.000  H
  C181     1.0000 0.69710  0.24330  0.45410  Biso   1.000  C
  C182     1.0000 0.69740  0.19700  0.51920  Biso   1.000  C
  H103     1.0000 0.72720  0.16130  0.54490  Biso   1.000  H
  C183     1.0000 0.65460  0.20140  0.54880  Biso   1.000  C
  H104     1.0000 0.65570  0.16930  0.59420  Biso   1.000  H
  C184     1.0000 0.74550  0.23860  0.42760  Biso   1.000  C
  C185     1.0000 0.21320  0.34610  0.50360  Biso   1.000  C
  H105     1.0000 0.22880  0.35790  0.56530  Biso   1.000  H
  C186     1.0000 0.20620  0.40260  0.44280  Biso   1.000  C
  H106     1.0000 0.21710  0.45190  0.46230  Biso   1.000  H
  C187     1.0000 0.18230  0.38400  0.35240  Biso   1.000  C
  H107     1.0000 0.17650  0.42100  0.30910  Biso   1.000  H
  C188     1.0000 0.16730  0.31160  0.32570  Biso   1.000  C
  H108     1.0000 0.15130  0.29810  0.26450  Biso   1.000  H
  C189     1.0000 0.17650  0.25910  0.39210  Biso   1.000  C
  C190     1.0000 0.16580  0.17870  0.37100  Biso   1.000  C
  C191     1.0000 0.14570  0.14980  0.28540  Biso   1.000  C
  H109     1.0000 0.13540  0.18170  0.23570  Biso   1.000  H
  C192     1.0000 0.14070  0.07410  0.27320  Biso   1.000  C
  H110     1.0000 0.12740  0.05340  0.21520  Biso   1.000  H
  C193     1.0000 0.15560  0.02930  0.34720  Biso   1.000  C
  H111     1.0000 0.15280  0.97720  0.34070  Biso   1.000  H
  C194     1.0000 0.17480  0.06150  0.43190  Biso   1.000  C
  H112     1.0000 0.18470  0.03070  0.48250  Biso   1.000  H
  C195     1.0000 0.33490  0.11550  0.02220  Biso   1.000  C
  H113     1.0000 0.31920  0.11700  0.95900  Biso   1.000  H
  C196     1.0000 0.33110  0.05020  0.06290  Biso   1.000  C
  H114     1.0000 0.31250  0.00800  0.02830  Biso   1.000  H
  C197     1.0000 0.35470  0.04860  0.15400  Biso   1.000  C
  H115     1.0000 0.35300  0.00460  0.18340  Biso   1.000  H
  C198     1.0000 0.38110  0.11070  0.20380  Biso   1.000  C
  H116     1.0000 0.39740  0.11050  0.26710  Biso   1.000  H
  C199     1.0000 0.38280  0.17420  0.15670  Biso   1.000  C
  C200     1.0000 0.40820  0.24540  0.20280  Biso   1.000  C
  C201     1.0000 0.43140  0.25480  0.29610  Biso   1.000  C
  H117     1.0000 0.43310  0.21450  0.33320  Biso   1.000  H
  C202     1.0000 0.45170  0.32400  0.33320  Biso   1.000  C
  H118     1.0000 0.46890  0.33110  0.39600  Biso   1.000  H
  C203     1.0000 0.44610  0.38320  0.27570  Biso   1.000  C
  H119     1.0000 0.45820  0.43130  0.29860  Biso   1.000  H
  C204     1.0000 0.42240  0.36950  0.18470  Biso   1.000  C
  H120     1.0000 0.41880  0.40920  0.14560  Biso   1.000  H
  Co10     1.0000 0.87050  0.77877  0.01337  Biso   1.000  Co
  Co11     1.0000 0.79643  0.73172  0.79557  Biso   1.000  Co
  Co12     1.0000 0.71186  0.68806  0.56896  Biso   1.000  Co
  O37      1.0000 0.87450  0.87800  0.96050  Biso   1.000  O
  O38      1.0000 0.81430  0.84530  0.81860  Biso   1.000  O
  O39      1.0000 0.78280  0.61870  0.77730  Biso   1.000  O
  O40      1.0000 0.71580  0.59370  0.63600  Biso   1.000  O
  O41      1.0000 0.95630  0.74870  0.02260  Biso   1.000  O
  O42      1.0000 0.87380  0.70960  0.91430  Biso   1.000  O
  O43      1.0000 0.22150  0.25920  0.67640  Biso   1.000  O
  O44      1.0000 0.13390  0.22370  0.58270  Biso   1.000  O
  O45      1.0000 0.84710  0.73300  0.72820  Biso   1.000  O
  O46      1.0000 0.79550  0.68520  0.59100  Biso   1.000  O
  O47      1.0000 0.28630  0.69580  0.47620  Biso   1.000  O
  O48      1.0000 0.24370  0.77730  0.36470  Biso   1.000  O
  N13      1.0000 0.69890  0.77640  0.47850  Biso   1.000  N
  N14      1.0000 0.67940  0.63480  0.44310  Biso   1.000  N
  N15      1.0000 0.85990  0.67610  0.06910  Biso   1.000  N
  N16      1.0000 0.90440  0.80210  0.14940  Biso   1.000  N
  C205     1.0000 0.83970  0.89120  0.88080  Biso   1.000  C
  C206     1.0000 0.82720  0.97250  0.85780  Biso   1.000  C
  C207     1.0000 0.84460  0.02430  0.92410  Biso   1.000  C
  H121     1.0000 0.86450  0.00860  0.98460  Biso   1.000  H
  C208     1.0000 0.83420  0.09880  0.90600  Biso   1.000  C
  H122     1.0000 0.84710  0.13360  0.95340  Biso   1.000  H
  C209     1.0000 0.80450  0.12220  0.81740  Biso   1.000  C
  C210     1.0000 0.78670  0.07050  0.74820  Biso   1.000  C
  H123     1.0000 0.76740  0.08640  0.68780  Biso   1.000  H
  C211     1.0000 0.79710  0.99580  0.76760  Biso   1.000  C
  H124     1.0000 0.78420  0.96070  0.72060  Biso   1.000  H
  C212     1.0000 0.79340  0.19990  0.79710  Biso   1.000  C
  C213     1.0000 0.78530  0.26440  0.78320  Biso   1.000  C
  C214     1.0000 0.77520  0.34190  0.76750  Biso   1.000  C
  C215     1.0000 0.80480  0.39240  0.83670  Biso   1.000  C
  H125     1.0000 0.83040  0.37530  0.89480  Biso   1.000  H
  C216     1.0000 0.79620  0.46890  0.81950  Biso   1.000  C
  H126     1.0000 0.81640  0.50320  0.86600  Biso   1.000  H
  C217     1.0000 0.75800  0.49410  0.73380  Biso   1.000  C
  C218     1.0000 0.72730  0.44330  0.66700  Biso   1.000  C
  H127     1.0000 0.70000  0.46030  0.60980  Biso   1.000  H
  C219     1.0000 0.73590  0.36820  0.68270  Biso   1.000  C
  H128     1.0000 0.71520  0.33430  0.63600  Biso   1.000  H
  C220     1.0000 0.75140  0.57560  0.71430  Biso   1.000  C
  C221     1.0000 0.93000  0.70990  0.95300  Biso   1.000  C
  C222     1.0000 0.96150  0.66050  0.92000  Biso   1.000  C
  C223     1.0000 0.02100  0.66920  0.94960  Biso   1.000  C
  H129     1.0000 0.04060  0.70920  0.98790  Biso   1.000  H
  C224     1.0000 0.05130  0.62080  0.92410  Biso   1.000  C
  H130     1.0000 0.09150  0.62780  0.94380  Biso   1.000  H
  C225     1.0000 0.02280  0.56060  0.86850  Biso   1.000  C
  C226     1.0000 0.96330  0.55190  0.83970  Biso   1.000  C
  H131     1.0000 0.94380  0.51140  0.80230  Biso   1.000  H
  C227     1.0000 0.93210  0.60140  0.86460  Biso   1.000  C
  H132     1.0000 0.89170  0.59500  0.84430  Biso   1.000  H
  C228     1.0000 0.05320  0.50630  0.84390  Biso   1.000  C
  C229     1.0000 0.07380  0.45740  0.81980  Biso   1.000  C
  C230     1.0000 0.09870  0.40430  0.78300  Biso   1.000  C
  C231     1.0000 0.15660  0.40880  0.80050  Biso   1.000  C
  H133     1.0000 0.18140  0.44370  0.84260  Biso   1.000  H
  C232     1.0000 0.17820  0.36260  0.75690  Biso   1.000  C
  H134     1.0000 0.21710  0.36760  0.76680  Biso   1.000  H
  C233     1.0000 0.14230  0.30850  0.69810  Biso   1.000  C
  C234     1.0000 0.08600  0.30170  0.68340  Biso   1.000  C
  H135     1.0000 0.06230  0.26450  0.64410  Biso   1.000  H
  C235     1.0000 0.06250  0.34860  0.72540  Biso   1.000  C
  H136     1.0000 0.02360  0.34320  0.71560  Biso   1.000  H
  C236     1.0000 0.16660  0.25970  0.65080  Biso   1.000  C
  C237     1.0000 0.84100  0.71140  0.65370  Biso   1.000  C
  C238     1.0000 0.89160  0.72110  0.63320  Biso   1.000  C
  C239     1.0000 0.88080  0.73180  0.54510  Biso   1.000  C
  H137     1.0000 0.84200  0.73180  0.49930  Biso   1.000  H
  C240     1.0000 0.92580  0.74230  0.52280  Biso   1.000  C
  H138     1.0000 0.91780  0.74960  0.46230  Biso   1.000  H
  C241     1.0000 0.98400  0.74220  0.59160  Biso   1.000  C
  C242     1.0000 0.99430  0.72940  0.68030  Biso   1.000  C
  H139     1.0000 0.03290  0.72780  0.72670  Biso   1.000  H
  C243     1.0000 0.94880  0.71930  0.70030  Biso   1.000  C
  H140     1.0000 0.95630  0.71100  0.76050  Biso   1.000  H
  C244     1.0000 0.03020  0.75110  0.56740  Biso   1.000  C
  C245     1.0000 0.06630  0.75560  0.54060  Biso   1.000  C
  C246     1.0000 0.11030  0.75380  0.51030  Biso   1.000  C
  C247     1.0000 0.11070  0.80190  0.44580  Biso   1.000  C
  H141     1.0000 0.08180  0.83890  0.42160  Biso   1.000  H
  C248     1.0000 0.15310  0.79630  0.41600  Biso   1.000  C
  H142     1.0000 0.15210  0.82820  0.37040  Biso   1.000  H
  C249     1.0000 0.19710  0.74330  0.45410  Biso   1.000  C
  C250     1.0000 0.19740  0.69700  0.51920  Biso   1.000  C
  H143     1.0000 0.22720  0.66130  0.54490  Biso   1.000  H
  C251     1.0000 0.15460  0.70140  0.54880  Biso   1.000  C
  H144     1.0000 0.15570  0.66930  0.59420  Biso   1.000  H
  C252     1.0000 0.24550  0.73860  0.42760  Biso   1.000  C
  C253     1.0000 0.71320  0.84610  0.50360  Biso   1.000  C
  H145     1.0000 0.72880  0.85790  0.56530  Biso   1.000  H
  C254     1.0000 0.70620  0.90260  0.44280  Biso   1.000  C
  H146     1.0000 0.71710  0.95190  0.46230  Biso   1.000  H
  C255     1.0000 0.68230  0.88400  0.35240  Biso   1.000  C
  H147     1.0000 0.67650  0.92100  0.30910  Biso   1.000  H
  C256     1.0000 0.66730  0.81160  0.32570  Biso   1.000  C
  H148     1.0000 0.65130  0.79810  0.26450  Biso   1.000  H
  C257     1.0000 0.67650  0.75910  0.39210  Biso   1.000  C
  C258     1.0000 0.66580  0.67870  0.37100  Biso   1.000  C
  C259     1.0000 0.64570  0.64980  0.28540  Biso   1.000  C
  H149     1.0000 0.63540  0.68170  0.23570  Biso   1.000  H
  C260     1.0000 0.64070  0.57410  0.27320  Biso   1.000  C
  H150     1.0000 0.62740  0.55340  0.21520  Biso   1.000  H
  C261     1.0000 0.65560  0.52930  0.34720  Biso   1.000  C
  H151     1.0000 0.65280  0.47720  0.34070  Biso   1.000  H
  C262     1.0000 0.67480  0.56150  0.43190  Biso   1.000  C
  H152     1.0000 0.68470  0.53070  0.48250  Biso   1.000  H
  C263     1.0000 0.83490  0.61550  0.02220  Biso   1.000  C
  H153     1.0000 0.81920  0.61700  0.95900  Biso   1.000  H
  C264     1.0000 0.83110  0.55020  0.06290  Biso   1.000  C
  H154     1.0000 0.81250  0.50800  0.02830  Biso   1.000  H
  C265     1.0000 0.85470  0.54860  0.15400  Biso   1.000  C
  H155     1.0000 0.85300  0.50460  0.18340  Biso   1.000  H
  C266     1.0000 0.88110  0.61070  0.20380  Biso   1.000  C
  H156     1.0000 0.89740  0.61050  0.26710  Biso   1.000  H
  C267     1.0000 0.88280  0.67420  0.15670  Biso   1.000  C
  C268     1.0000 0.90820  0.74540  0.20280  Biso   1.000  C
  C269     1.0000 0.93140  0.75480  0.29610  Biso   1.000  C
  H157     1.0000 0.93310  0.71450  0.33320  Biso   1.000  H
  C270     1.0000 0.95170  0.82400  0.33320  Biso   1.000  C
  H158     1.0000 0.96890  0.83110  0.39600  Biso   1.000  H
  C271     1.0000 0.94610  0.88320  0.27570  Biso   1.000  C
  H159     1.0000 0.95820  0.93130  0.29860  Biso   1.000  H
  C272     1.0000 0.92240  0.86950  0.18470  Biso   1.000  C
  H160     1.0000 0.91880  0.90920  0.14560  Biso   1.000  H
