data_LULXAS_clean
_audit_creation_date              2014-07-02
_audit_creation_method            'Materials Studio'
_symmetry_space_group_name_H-M    'P1'
_symmetry_Int_Tables_number       1
_symmetry_cell_setting            triclinic
loop_
_symmetry_equiv_pos_as_xyz
  x,y,z
_cell_length_a                    10.0292
_cell_length_b                    10.0292
_cell_length_c                    20.8080
_cell_angle_alpha                 90.0000
_cell_angle_beta                  90.0000
_cell_angle_gamma                 90.0000
loop_
_atom_site_label
_atom_site_type_symbol
_atom_site_fract_x
_atom_site_fract_y
_atom_site_fract_z
_atom_site_U_iso_or_equiv
_atom_site_adp_type
_atom_site_occupancy
Na1    Na    0.95710   0.84560   0.02198   0.01267  Uiso   1.00
Na2    Na    0.28900   0.82910   0.02500   0.01267  Uiso   1.00
Na3    Na    0.04290   0.15440   0.52198   0.01267  Uiso   1.00
Na4    Na    0.71100   0.17090   0.52500   0.01267  Uiso   1.00
Na5    Na    0.15440   0.95710   0.77198   0.01267  Uiso   1.00
Na6    Na    0.17090   0.28900   0.77500   0.01267  Uiso   1.00
Na7    Na    0.84560   0.04290   0.27198   0.01267  Uiso   1.00
Na8    Na    0.82910   0.71100   0.27500   0.01267  Uiso   1.00
Co1    Co    0.11843   0.79001   0.89440   0.01267  Uiso   1.00
Co2    Co    0.88157   0.20999   0.39440   0.01267  Uiso   1.00
Co3    Co    0.20999   0.11843   0.64440   0.01267  Uiso   1.00
Co4    Co    0.79001   0.88157   0.14440   0.01267  Uiso   1.00
H1     H     0.62730   0.79220   0.90580   0.01267  Uiso   1.00
H2     H     0.41830   0.80290   0.73910   0.01267  Uiso   1.00
H3     H     0.61940   0.81790   0.68090   0.01267  Uiso   1.00
H4     H     0.82150   0.82080   0.73600   0.01267  Uiso   1.00
H5     H     0.14120   0.32910   0.90460   0.01267  Uiso   1.00
H6     H     0.13230   0.47780   0.08460   0.01267  Uiso   1.00
H7     H     0.13560   0.25990   0.12600   0.01267  Uiso   1.00
H8     H     0.13410   0.07790   0.05660   0.01267  Uiso   1.00
H9     H     0.37270   0.20780   0.40580   0.01267  Uiso   1.00
H10    H     0.58170   0.19710   0.23910   0.01267  Uiso   1.00
H11    H     0.38060   0.18210   0.18090   0.01267  Uiso   1.00
H12    H     0.17850   0.17920   0.23600   0.01267  Uiso   1.00
H13    H     0.85880   0.67090   0.40460   0.01267  Uiso   1.00
H14    H     0.86770   0.52220   0.58460   0.01267  Uiso   1.00
H15    H     0.86440   0.74010   0.62600   0.01267  Uiso   1.00
H16    H     0.86590   0.92210   0.55660   0.01267  Uiso   1.00
H17    H     0.20780   0.62730   0.65580   0.01267  Uiso   1.00
H18    H     0.19710   0.41830   0.48910   0.01267  Uiso   1.00
H19    H     0.18210   0.61940   0.43090   0.01267  Uiso   1.00
H20    H     0.17920   0.82150   0.48600   0.01267  Uiso   1.00
H21    H     0.67090   0.14120   0.65460   0.01267  Uiso   1.00
H22    H     0.52220   0.13230   0.83460   0.01267  Uiso   1.00
H23    H     0.74010   0.13560   0.87600   0.01267  Uiso   1.00
H24    H     0.92210   0.13410   0.80660   0.01267  Uiso   1.00
H25    H     0.79220   0.37270   0.15580   0.01267  Uiso   1.00
H26    H     0.80290   0.58170   0.98910   0.01267  Uiso   1.00
H27    H     0.81790   0.38060   0.93090   0.01267  Uiso   1.00
H28    H     0.82080   0.17850   0.98600   0.01267  Uiso   1.00
H29    H     0.32910   0.85880   0.15460   0.01267  Uiso   1.00
H30    H     0.47780   0.86770   0.33460   0.01267  Uiso   1.00
H31    H     0.25990   0.86440   0.37600   0.01267  Uiso   1.00
H32    H     0.07790   0.86590   0.30660   0.01267  Uiso   1.00
C1     C     0.74420   0.80870   0.82590   0.01267  Uiso   1.00
C2     C     0.62520   0.79900   0.86030   0.01267  Uiso   1.00
C3     C     0.50410   0.79930   0.82840   0.01267  Uiso   1.00
C4     C     0.50120   0.80490   0.76120   0.01267  Uiso   1.00
C5     C     0.62070   0.81340   0.72650   0.01267  Uiso   1.00
C6     C     0.74040   0.81510   0.75940   0.01267  Uiso   1.00
C7     C     0.87600   0.80820   0.85960   0.01267  Uiso   1.00
C8     C     0.37710   0.79260   0.86550   0.01267  Uiso   1.00
C9     C     0.13810   0.18490   0.97320   0.01267  Uiso   1.00
C10    C     0.13830   0.31470   0.94970   0.01267  Uiso   1.00
C11    C     0.13420   0.42390   0.99090   0.01267  Uiso   1.00
C12    C     0.13360   0.40370   0.05620   0.01267  Uiso   1.00
C13    C     0.13500   0.27380   0.08080   0.01267  Uiso   1.00
C14    C     0.13550   0.16580   0.03960   0.01267  Uiso   1.00
C15    C     0.13440   0.06720   0.92770   0.01267  Uiso   1.00
C16    C     0.12590   0.56640   0.96670   0.01267  Uiso   1.00
C17    C     0.25580   0.19130   0.32590   0.01267  Uiso   1.00
C18    C     0.37480   0.20100   0.36030   0.01267  Uiso   1.00
C19    C     0.49590   0.20070   0.32840   0.01267  Uiso   1.00
C20    C     0.49880   0.19510   0.26120   0.01267  Uiso   1.00
C21    C     0.37930   0.18660   0.22650   0.01267  Uiso   1.00
C22    C     0.25960   0.18490   0.25940   0.01267  Uiso   1.00
C23    C     0.12400   0.19180   0.35960   0.01267  Uiso   1.00
C24    C     0.62290   0.20740   0.36550   0.01267  Uiso   1.00
C25    C     0.86190   0.81510   0.47320   0.01267  Uiso   1.00
C26    C     0.86170   0.68530   0.44970   0.01267  Uiso   1.00
C27    C     0.86580   0.57610   0.49090   0.01267  Uiso   1.00
C28    C     0.86640   0.59630   0.55620   0.01267  Uiso   1.00
C29    C     0.86500   0.72620   0.58080   0.01267  Uiso   1.00
C30    C     0.86450   0.83420   0.53960   0.01267  Uiso   1.00
C31    C     0.86560   0.93280   0.42770   0.01267  Uiso   1.00
C32    C     0.87410   0.43360   0.46670   0.01267  Uiso   1.00
C33    C     0.19130   0.74420   0.57590   0.01267  Uiso   1.00
C34    C     0.20100   0.62520   0.61030   0.01267  Uiso   1.00
C35    C     0.20070   0.50410   0.57840   0.01267  Uiso   1.00
C36    C     0.19510   0.50120   0.51120   0.01267  Uiso   1.00
C37    C     0.18660   0.62070   0.47650   0.01267  Uiso   1.00
C38    C     0.18490   0.74040   0.50940   0.01267  Uiso   1.00
C39    C     0.19180   0.87600   0.60960   0.01267  Uiso   1.00
C40    C     0.20740   0.37710   0.61550   0.01267  Uiso   1.00
C41    C     0.81510   0.13810   0.72320   0.01267  Uiso   1.00
C42    C     0.68530   0.13830   0.69970   0.01267  Uiso   1.00
C43    C     0.57610   0.13420   0.74090   0.01267  Uiso   1.00
C44    C     0.59630   0.13360   0.80620   0.01267  Uiso   1.00
C45    C     0.72620   0.13500   0.83080   0.01267  Uiso   1.00
C46    C     0.83420   0.13550   0.78960   0.01267  Uiso   1.00
C47    C     0.93280   0.13440   0.67770   0.01267  Uiso   1.00
C48    C     0.43360   0.12590   0.71670   0.01267  Uiso   1.00
C49    C     0.80870   0.25580   0.07590   0.01267  Uiso   1.00
C50    C     0.79900   0.37480   0.11030   0.01267  Uiso   1.00
C51    C     0.79930   0.49590   0.07840   0.01267  Uiso   1.00
C52    C     0.80490   0.49880   0.01120   0.01267  Uiso   1.00
C53    C     0.81340   0.37930   0.97650   0.01267  Uiso   1.00
C54    C     0.81510   0.25960   0.00940   0.01267  Uiso   1.00
C55    C     0.80820   0.12400   0.10960   0.01267  Uiso   1.00
C56    C     0.79260   0.62290   0.11550   0.01267  Uiso   1.00
C57    C     0.18490   0.86190   0.22320   0.01267  Uiso   1.00
C58    C     0.31470   0.86170   0.19970   0.01267  Uiso   1.00
C59    C     0.42390   0.86580   0.24090   0.01267  Uiso   1.00
C60    C     0.40370   0.86640   0.30620   0.01267  Uiso   1.00
C61    C     0.27380   0.86500   0.33080   0.01267  Uiso   1.00
C62    C     0.16580   0.86450   0.28960   0.01267  Uiso   1.00
C63    C     0.06720   0.86560   0.17770   0.01267  Uiso   1.00
C64    C     0.56640   0.87410   0.21670   0.01267  Uiso   1.00
O1     O     0.88250   0.79510   0.91900   0.01267  Uiso   1.00
O2     O     0.98110   0.81960   0.82532   0.01267  Uiso   1.00
O3     O     0.37630   0.78310   0.92390   0.01267  Uiso   1.00
O4     O     0.26760   0.80150   0.83190   0.01267  Uiso   1.00
O5     O     0.13620   0.08780   0.86870   0.01267  Uiso   1.00
O6     O     0.12780   0.95120   0.95405   0.01267  Uiso   1.00
O7     O     0.11650   0.58300   0.90610   0.01267  Uiso   1.00
O8     O     0.12640   0.66090   0.00490   0.01267  Uiso   1.00
O9     O     0.11750   0.20490   0.41900   0.01267  Uiso   1.00
O10    O     0.01890   0.18040   0.32532   0.01267  Uiso   1.00
O11    O     0.62370   0.21690   0.42390   0.01267  Uiso   1.00
O12    O     0.73240   0.19850   0.33190   0.01267  Uiso   1.00
O13    O     0.86380   0.91220   0.36870   0.01267  Uiso   1.00
O14    O     0.87220   0.04880   0.45405   0.01267  Uiso   1.00
O15    O     0.88350   0.41700   0.40610   0.01267  Uiso   1.00
O16    O     0.87360   0.33910   0.50490   0.01267  Uiso   1.00
O17    O     0.20490   0.88250   0.66900   0.01267  Uiso   1.00
O18    O     0.18040   0.98110   0.57532   0.01267  Uiso   1.00
O19    O     0.21690   0.37630   0.67390   0.01267  Uiso   1.00
O20    O     0.19850   0.26760   0.58190   0.01267  Uiso   1.00
O21    O     0.91220   0.13620   0.61870   0.01267  Uiso   1.00
O22    O     0.04880   0.12780   0.70405   0.01267  Uiso   1.00
O23    O     0.41700   0.11650   0.65610   0.01267  Uiso   1.00
O24    O     0.33910   0.12640   0.75490   0.01267  Uiso   1.00
O25    O     0.79510   0.11750   0.16900   0.01267  Uiso   1.00
O26    O     0.81960   0.01890   0.07532   0.01267  Uiso   1.00
O27    O     0.78310   0.62370   0.17390   0.01267  Uiso   1.00
O28    O     0.80150   0.73240   0.08190   0.01267  Uiso   1.00
O29    O     0.08780   0.86380   0.11870   0.01267  Uiso   1.00
O30    O     0.95120   0.87220   0.20405   0.01267  Uiso   1.00
O31    O     0.58300   0.88350   0.15610   0.01267  Uiso   1.00
O32    O     0.66090   0.87360   0.25490   0.01267  Uiso   1.00
