data_image0
_cell_length_a       10.6186
_cell_length_b       15.7795
_cell_length_c       14.162
_cell_angle_alpha    90
_cell_angle_beta     130.43
_cell_angle_gamma    90

_symmetry_space_group_name_H-M    "P 1"
_symmetry_int_tables_number       1

loop_
  _symmetry_equiv_pos_as_xyz
  'x, y, z'

loop_
  _atom_site_label
  _atom_site_occupancy
  _atom_site_fract_x
  _atom_site_fract_y
  _atom_site_fract_z
  _atom_site_thermal_displace_type
  _atom_site_B_iso_or_equiv
  _atom_site_type_symbol
  C1       1.0000 0.99410  0.44450  0.38410  Biso   1.000  C
  H1       1.0000 0.99140  0.42190  0.44340  Biso   1.000  H
  C2       1.0000 0.08590  0.48970  0.29620  Biso   1.000  C
  C3       1.0000 0.91380  0.49430  0.21200  Biso   1.000  C
  C4       1.0000 0.21570  0.51150  0.29030  Biso   1.000  C
  C5       1.0000 0.78420  0.52410  0.08160  Biso   1.000  C
  C6       1.0000 0.48060  0.24630  0.58350  Biso   1.000  C
  H2       1.0000 0.45200  0.24170  0.50620  Biso   1.000  H
  C7       1.0000 0.52400  0.29880  0.74180  Biso   1.000  C
  C8       1.0000 0.55930  0.21260  0.76150  Biso   1.000  C
  C9       1.0000 0.52590  0.36320  0.81780  Biso   1.000  C
  C10      1.0000 0.61320  0.15780  0.86370  Biso   1.000  C
  N1       1.0000 0.13410  0.45830  0.40560  Biso   1.000  N
  N2       1.0000 0.85860  0.46560  0.27100  Biso   1.000  N
  N3       1.0000 0.47270  0.31910  0.62780  Biso   1.000  N
  N4       1.0000 0.53350  0.18080  0.66120  Biso   1.000  N
  O1       1.0000 0.18490  0.54180  0.19590  Biso   1.000  O
  O2       1.0000 0.36270  0.49720  0.38850  Biso   1.000  O
  O3       1.0000 0.81400  0.53960  0.01200  Biso   1.000  O
  O4       1.0000 0.64360  0.53310  0.04830  Biso   1.000  O
  O5       1.0000 0.46450  0.43440  0.76660  Biso   1.000  O
  O6       1.0000 0.58190  0.34460  0.92490  Biso   1.000  O
  O7       1.0000 0.64100  0.18960  0.96010  Biso   1.000  O
  H3       1.0000 0.62340  0.24070  0.95050  Biso   1.000  H
  O8       1.0000 0.62860  0.08100  0.85590  Biso   1.000  O
  Cd1      1.0000 0.40641  0.45657  0.57049  Biso   1.000  Cd
  Cd2      1.0000 0.42036  0.54315  0.84355  Biso   1.000  Cd
  C11      1.0000 0.00590  0.94450  0.11590  Biso   1.000  C
  H4       1.0000 0.00860  0.92190  0.05660  Biso   1.000  H
  C12      1.0000 0.91410  0.98970  0.20380  Biso   1.000  C
  C13      1.0000 0.08620  0.99430  0.28800  Biso   1.000  C
  C14      1.0000 0.78430  0.01150  0.20970  Biso   1.000  C
  C15      1.0000 0.21580  0.02410  0.41840  Biso   1.000  C
  C16      1.0000 0.51940  0.74630  0.91650  Biso   1.000  C
  H5       1.0000 0.54800  0.74170  0.99380  Biso   1.000  H
  C17      1.0000 0.47600  0.79880  0.75820  Biso   1.000  C
  C18      1.0000 0.44070  0.71260  0.73850  Biso   1.000  C
  C19      1.0000 0.47410  0.86320  0.68220  Biso   1.000  C
  C20      1.0000 0.38680  0.65780  0.63630  Biso   1.000  C
  N5       1.0000 0.86590  0.95830  0.09440  Biso   1.000  N
  N6       1.0000 0.14140  0.96560  0.22900  Biso   1.000  N
  N7       1.0000 0.52730  0.81910  0.87220  Biso   1.000  N
  N8       1.0000 0.46650  0.68080  0.83880  Biso   1.000  N
  O9       1.0000 0.81510  0.04180  0.30410  Biso   1.000  O
  O10      1.0000 0.63730  0.99720  0.11150  Biso   1.000  O
  O11      1.0000 0.18600  0.03960  0.48800  Biso   1.000  O
  O12      1.0000 0.35640  0.03310  0.45170  Biso   1.000  O
  O13      1.0000 0.53550  0.93440  0.73340  Biso   1.000  O
  O14      1.0000 0.41810  0.84460  0.57510  Biso   1.000  O
  O15      1.0000 0.35900  0.68960  0.53990  Biso   1.000  O
  H6       1.0000 0.37660  0.74070  0.54950  Biso   1.000  H
  O16      1.0000 0.37140  0.58100  0.64410  Biso   1.000  O
  Cd3      1.0000 0.59359  0.95657  0.92951  Biso   1.000  Cd
  Cd4      1.0000 0.57964  0.04315  0.65645  Biso   1.000  Cd
  C21      1.0000 0.00590  0.55550  0.61590  Biso   1.000  C
  H7       1.0000 0.00860  0.57810  0.55660  Biso   1.000  H
  C22      1.0000 0.91410  0.51030  0.70380  Biso   1.000  C
  C23      1.0000 0.08620  0.50570  0.78800  Biso   1.000  C
  C24      1.0000 0.78430  0.48850  0.70970  Biso   1.000  C
  C25      1.0000 0.21580  0.47590  0.91840  Biso   1.000  C
  C26      1.0000 0.51940  0.75370  0.41650  Biso   1.000  C
  H8       1.0000 0.54800  0.75830  0.49380  Biso   1.000  H
  C27      1.0000 0.47600  0.70120  0.25820  Biso   1.000  C
  C28      1.0000 0.44070  0.78740  0.23850  Biso   1.000  C
  C29      1.0000 0.47410  0.63680  0.18220  Biso   1.000  C
  C30      1.0000 0.38680  0.84220  0.13630  Biso   1.000  C
  N9       1.0000 0.86590  0.54170  0.59440  Biso   1.000  N
  N10      1.0000 0.14140  0.53440  0.72900  Biso   1.000  N
  N11      1.0000 0.52730  0.68090  0.37220  Biso   1.000  N
  N12      1.0000 0.46650  0.81920  0.33880  Biso   1.000  N
  O17      1.0000 0.81510  0.45820  0.80410  Biso   1.000  O
  O18      1.0000 0.63730  0.50280  0.61150  Biso   1.000  O
  O19      1.0000 0.18600  0.46040  0.98800  Biso   1.000  O
  O20      1.0000 0.35640  0.46690  0.95170  Biso   1.000  O
  O21      1.0000 0.53550  0.56560  0.23340  Biso   1.000  O
  O22      1.0000 0.41810  0.65540  0.07510  Biso   1.000  O
  O23      1.0000 0.35900  0.81040  0.03990  Biso   1.000  O
  H9       1.0000 0.37660  0.75930  0.04950  Biso   1.000  H
  O24      1.0000 0.37140  0.91900  0.14410  Biso   1.000  O
  Cd5      1.0000 0.59359  0.54343  0.42951  Biso   1.000  Cd
  Cd6      1.0000 0.57964  0.45685  0.15645  Biso   1.000  Cd
  C31      1.0000 0.99410  0.05550  0.88410  Biso   1.000  C
  H10      1.0000 0.99140  0.07810  0.94340  Biso   1.000  H
  C32      1.0000 0.08590  0.01030  0.79620  Biso   1.000  C
  C33      1.0000 0.91380  0.00570  0.71200  Biso   1.000  C
  C34      1.0000 0.21570  0.98850  0.79030  Biso   1.000  C
  C35      1.0000 0.78420  0.97590  0.58160  Biso   1.000  C
  C36      1.0000 0.48060  0.25370  0.08350  Biso   1.000  C
  H11      1.0000 0.45200  0.25830  0.00620  Biso   1.000  H
  C37      1.0000 0.52400  0.20120  0.24180  Biso   1.000  C
  C38      1.0000 0.55930  0.28740  0.26150  Biso   1.000  C
  C39      1.0000 0.52590  0.13680  0.31780  Biso   1.000  C
  C40      1.0000 0.61320  0.34220  0.36370  Biso   1.000  C
  N13      1.0000 0.13410  0.04170  0.90560  Biso   1.000  N
  N14      1.0000 0.85860  0.03440  0.77100  Biso   1.000  N
  N15      1.0000 0.47270  0.18090  0.12780  Biso   1.000  N
  N16      1.0000 0.53350  0.31920  0.16120  Biso   1.000  N
  O25      1.0000 0.18490  0.95820  0.69590  Biso   1.000  O
  O26      1.0000 0.36270  0.00280  0.88850  Biso   1.000  O
  O27      1.0000 0.81400  0.96040  0.51200  Biso   1.000  O
  O28      1.0000 0.64360  0.96690  0.54830  Biso   1.000  O
  O29      1.0000 0.46450  0.06560  0.26660  Biso   1.000  O
  O30      1.0000 0.58190  0.15540  0.42490  Biso   1.000  O
  O31      1.0000 0.64100  0.31040  0.46010  Biso   1.000  O
  H12      1.0000 0.62340  0.25930  0.45050  Biso   1.000  H
  O32      1.0000 0.62860  0.41900  0.35590  Biso   1.000  O
  Cd7      1.0000 0.40641  0.04343  0.07049  Biso   1.000  Cd
  Cd8      1.0000 0.42036  0.95685  0.34355  Biso   1.000  Cd
  Cd9      1.0000 0.00000  0.50000  0.00000  Biso   1.000  Cd
  Cd10     1.0000 0.00000  0.00000  0.50000  Biso   1.000  Cd
