data_image0
_cell_length_a       10.3008
_cell_length_b       13.3246
_cell_length_c       20.462
_cell_angle_alpha    90
_cell_angle_beta     90
_cell_angle_gamma    90

_symmetry_space_group_name_H-M    "P 1"
_symmetry_int_tables_number       1

loop_
  _symmetry_equiv_pos_as_xyz
  'x, y, z'

loop_
  _atom_site_label
  _atom_site_occupancy
  _atom_site_fract_x
  _atom_site_fract_y
  _atom_site_fract_z
  _atom_site_thermal_displace_type
  _atom_site_B_iso_or_equiv
  _atom_site_type_symbol
  Zn1      1.0000 0.43529  0.88973  0.29383  Biso   1.000  Zn
  O1       1.0000 0.45010  0.80960  0.20260  Biso   1.000  O
  O2       1.0000 0.80410  0.89700  0.07260  Biso   1.000  O
  N1       1.0000 0.60350  0.94540  0.25630  Biso   1.000  N
  O3       1.0000 0.92390  0.01810  0.12130  Biso   1.000  O
  O4       1.0000 0.58410  0.77860  0.12180  Biso   1.000  O
  N2       1.0000 0.77980  0.02780  0.22280  Biso   1.000  N
  C1       1.0000 0.64010  0.90510  0.20040  Biso   1.000  C
  N3       1.0000 0.45020  0.76320  0.34930  Biso   1.000  N
  C2       1.0000 0.49350  0.59650  0.42760  Biso   1.000  C
  C3       1.0000 0.53270  0.59600  0.36410  Biso   1.000  C
  H1       1.0000 0.57300  0.53940  0.34700  Biso   1.000  H
  C4       1.0000 0.51600  0.50810  0.47090  Biso   1.000  C
  H2       1.0000 0.56290  0.45620  0.45150  Biso   1.000  H
  C5       1.0000 0.82670  0.95380  0.11830  Biso   1.000  C
  C6       1.0000 0.68700  0.01870  0.26850  Biso   1.000  C
  H3       1.0000 0.68230  0.05990  0.30510  Biso   1.000  H
  C7       1.0000 0.55470  0.82470  0.17480  Biso   1.000  C
  C8       1.0000 0.43050  0.68170  0.45040  Biso   1.000  C
  H4       1.0000 0.40490  0.68470  0.49390  Biso   1.000  H
  C9       1.0000 0.51280  0.67950  0.32450  Biso   1.000  C
  H5       1.0000 0.54160  0.67900  0.28150  Biso   1.000  H
  C10      1.0000 0.40570  0.75970  0.41080  Biso   1.000  C
  H6       1.0000 0.35620  0.81290  0.42650  Biso   1.000  H
  C11      1.0000 0.74900  0.95790  0.17920  Biso   1.000  C
  Zn2      1.0000 0.06471  0.61027  0.29383  Biso   1.000  Zn
  O5       1.0000 0.04990  0.69040  0.20260  Biso   1.000  O
  O6       1.0000 0.69590  0.60300  0.07260  Biso   1.000  O
  N4       1.0000 0.89650  0.55460  0.25630  Biso   1.000  N
  O7       1.0000 0.57610  0.48190  0.12130  Biso   1.000  O
  O8       1.0000 0.91590  0.72140  0.12180  Biso   1.000  O
  N5       1.0000 0.72020  0.47220  0.22280  Biso   1.000  N
  C12      1.0000 0.85990  0.59490  0.20040  Biso   1.000  C
  N6       1.0000 0.04980  0.73680  0.34930  Biso   1.000  N
  C13      1.0000 0.00650  0.90350  0.42760  Biso   1.000  C
  C14      1.0000 0.96730  0.90400  0.36410  Biso   1.000  C
  H7       1.0000 0.92700  0.96060  0.34700  Biso   1.000  H
  C15      1.0000 0.98400  0.99190  0.47090  Biso   1.000  C
  H8       1.0000 0.93710  0.04380  0.45150  Biso   1.000  H
  C16      1.0000 0.67330  0.54620  0.11830  Biso   1.000  C
  C17      1.0000 0.81300  0.48130  0.26850  Biso   1.000  C
  H9       1.0000 0.81770  0.44010  0.30510  Biso   1.000  H
  C18      1.0000 0.94530  0.67530  0.17480  Biso   1.000  C
  C19      1.0000 0.06950  0.81830  0.45040  Biso   1.000  C
  H10      1.0000 0.09510  0.81530  0.49390  Biso   1.000  H
  C20      1.0000 0.98720  0.82050  0.32450  Biso   1.000  C
  H11      1.0000 0.95840  0.82100  0.28150  Biso   1.000  H
  C21      1.0000 0.09430  0.74030  0.41080  Biso   1.000  C
  H12      1.0000 0.14380  0.68710  0.42650  Biso   1.000  H
  C22      1.0000 0.75100  0.54210  0.17920  Biso   1.000  C
  Zn3      1.0000 0.56471  0.38973  0.20617  Biso   1.000  Zn
  O9       1.0000 0.54990  0.30960  0.29740  Biso   1.000  O
  O10      1.0000 0.19590  0.39700  0.42740  Biso   1.000  O
  N7       1.0000 0.39650  0.44540  0.24370  Biso   1.000  N
  O11      1.0000 0.07610  0.51810  0.37870  Biso   1.000  O
  O12      1.0000 0.41590  0.27860  0.37820  Biso   1.000  O
  N8       1.0000 0.22020  0.52780  0.27720  Biso   1.000  N
  C23      1.0000 0.35990  0.40510  0.29960  Biso   1.000  C
  N9       1.0000 0.54980  0.26320  0.15070  Biso   1.000  N
  C24      1.0000 0.50650  0.09650  0.07240  Biso   1.000  C
  C25      1.0000 0.46730  0.09600  0.13590  Biso   1.000  C
  H13      1.0000 0.42700  0.03940  0.15300  Biso   1.000  H
  C26      1.0000 0.48400  0.00810  0.02910  Biso   1.000  C
  H14      1.0000 0.43710  0.95620  0.04850  Biso   1.000  H
  C27      1.0000 0.17330  0.45380  0.38170  Biso   1.000  C
  C28      1.0000 0.31300  0.51870  0.23150  Biso   1.000  C
  H15      1.0000 0.31770  0.55990  0.19490  Biso   1.000  H
  C29      1.0000 0.44530  0.32470  0.32520  Biso   1.000  C
  C30      1.0000 0.56950  0.18170  0.04960  Biso   1.000  C
  H16      1.0000 0.59510  0.18470  0.00610  Biso   1.000  H
  C31      1.0000 0.48720  0.17950  0.17550  Biso   1.000  C
  H17      1.0000 0.45840  0.17900  0.21850  Biso   1.000  H
  C32      1.0000 0.59430  0.25970  0.08920  Biso   1.000  C
  H18      1.0000 0.64380  0.31290  0.07350  Biso   1.000  H
  C33      1.0000 0.25100  0.45790  0.32080  Biso   1.000  C
  Zn4      1.0000 0.93529  0.11027  0.20617  Biso   1.000  Zn
  O13      1.0000 0.95010  0.19040  0.29740  Biso   1.000  O
  O14      1.0000 0.30410  0.10300  0.42740  Biso   1.000  O
  N10      1.0000 0.10350  0.05460  0.24370  Biso   1.000  N
  O15      1.0000 0.42390  0.98190  0.37870  Biso   1.000  O
  O16      1.0000 0.08410  0.22140  0.37820  Biso   1.000  O
  N11      1.0000 0.27980  0.97220  0.27720  Biso   1.000  N
  C34      1.0000 0.14010  0.09490  0.29960  Biso   1.000  C
  N12      1.0000 0.95020  0.23680  0.15070  Biso   1.000  N
  C35      1.0000 0.99350  0.40350  0.07240  Biso   1.000  C
  C36      1.0000 0.03270  0.40400  0.13590  Biso   1.000  C
  H19      1.0000 0.07300  0.46060  0.15300  Biso   1.000  H
  C37      1.0000 0.01600  0.49190  0.02910  Biso   1.000  C
  H20      1.0000 0.06290  0.54380  0.04850  Biso   1.000  H
  C38      1.0000 0.32670  0.04620  0.38170  Biso   1.000  C
  C39      1.0000 0.18700  0.98130  0.23150  Biso   1.000  C
  H21      1.0000 0.18230  0.94010  0.19490  Biso   1.000  H
  C40      1.0000 0.05470  0.17530  0.32520  Biso   1.000  C
  C41      1.0000 0.93050  0.31830  0.04960  Biso   1.000  C
  H22      1.0000 0.90490  0.31530  0.00610  Biso   1.000  H
  C42      1.0000 0.01280  0.32050  0.17550  Biso   1.000  C
  H23      1.0000 0.04160  0.32100  0.21850  Biso   1.000  H
  C43      1.0000 0.90570  0.24030  0.08920  Biso   1.000  C
  H24      1.0000 0.85620  0.18710  0.07350  Biso   1.000  H
  C44      1.0000 0.24900  0.04210  0.32080  Biso   1.000  C
  Zn5      1.0000 0.56471  0.11027  0.70617  Biso   1.000  Zn
  O17      1.0000 0.54990  0.19040  0.79740  Biso   1.000  O
  O18      1.0000 0.19590  0.10300  0.92740  Biso   1.000  O
  N13      1.0000 0.39650  0.05460  0.74370  Biso   1.000  N
  O19      1.0000 0.07610  0.98190  0.87870  Biso   1.000  O
  O20      1.0000 0.41590  0.22140  0.87820  Biso   1.000  O
  N14      1.0000 0.22020  0.97220  0.77720  Biso   1.000  N
  C45      1.0000 0.35990  0.09490  0.79960  Biso   1.000  C
  N15      1.0000 0.54980  0.23680  0.65070  Biso   1.000  N
  C46      1.0000 0.50650  0.40350  0.57240  Biso   1.000  C
  C47      1.0000 0.46730  0.40400  0.63590  Biso   1.000  C
  H25      1.0000 0.42700  0.46060  0.65300  Biso   1.000  H
  C48      1.0000 0.48400  0.49190  0.52910  Biso   1.000  C
  H26      1.0000 0.43710  0.54380  0.54850  Biso   1.000  H
  C49      1.0000 0.17330  0.04620  0.88170  Biso   1.000  C
  C50      1.0000 0.31300  0.98130  0.73150  Biso   1.000  C
  H27      1.0000 0.31770  0.94010  0.69490  Biso   1.000  H
  C51      1.0000 0.44530  0.17530  0.82520  Biso   1.000  C
  C52      1.0000 0.56950  0.31830  0.54960  Biso   1.000  C
  H28      1.0000 0.59510  0.31530  0.50610  Biso   1.000  H
  C53      1.0000 0.48720  0.32050  0.67550  Biso   1.000  C
  H29      1.0000 0.45840  0.32100  0.71850  Biso   1.000  H
  C54      1.0000 0.59430  0.24030  0.58920  Biso   1.000  C
  H30      1.0000 0.64380  0.18710  0.57350  Biso   1.000  H
  C55      1.0000 0.25100  0.04210  0.82080  Biso   1.000  C
  Zn6      1.0000 0.93529  0.38973  0.70617  Biso   1.000  Zn
  O21      1.0000 0.95010  0.30960  0.79740  Biso   1.000  O
  O22      1.0000 0.30410  0.39700  0.92740  Biso   1.000  O
  N16      1.0000 0.10350  0.44540  0.74370  Biso   1.000  N
  O23      1.0000 0.42390  0.51810  0.87870  Biso   1.000  O
  O24      1.0000 0.08410  0.27860  0.87820  Biso   1.000  O
  N17      1.0000 0.27980  0.52780  0.77720  Biso   1.000  N
  C56      1.0000 0.14010  0.40510  0.79960  Biso   1.000  C
  N18      1.0000 0.95020  0.26320  0.65070  Biso   1.000  N
  C57      1.0000 0.99350  0.09650  0.57240  Biso   1.000  C
  C58      1.0000 0.03270  0.09600  0.63590  Biso   1.000  C
  H31      1.0000 0.07300  0.03940  0.65300  Biso   1.000  H
  C59      1.0000 0.01600  0.00810  0.52910  Biso   1.000  C
  H32      1.0000 0.06290  0.95620  0.54850  Biso   1.000  H
  C60      1.0000 0.32670  0.45380  0.88170  Biso   1.000  C
  C61      1.0000 0.18700  0.51870  0.73150  Biso   1.000  C
  H33      1.0000 0.18230  0.55990  0.69490  Biso   1.000  H
  C62      1.0000 0.05470  0.32470  0.82520  Biso   1.000  C
  C63      1.0000 0.93050  0.18170  0.54960  Biso   1.000  C
  H34      1.0000 0.90490  0.18470  0.50610  Biso   1.000  H
  C64      1.0000 0.01280  0.17950  0.67550  Biso   1.000  C
  H35      1.0000 0.04160  0.17900  0.71850  Biso   1.000  H
  C65      1.0000 0.90570  0.25970  0.58920  Biso   1.000  C
  H36      1.0000 0.85620  0.31290  0.57350  Biso   1.000  H
  C66      1.0000 0.24900  0.45790  0.82080  Biso   1.000  C
  Zn7      1.0000 0.43529  0.61027  0.79383  Biso   1.000  Zn
  O25      1.0000 0.45010  0.69040  0.70260  Biso   1.000  O
  O26      1.0000 0.80410  0.60300  0.57260  Biso   1.000  O
  N19      1.0000 0.60350  0.55460  0.75630  Biso   1.000  N
  O27      1.0000 0.92390  0.48190  0.62130  Biso   1.000  O
  O28      1.0000 0.58410  0.72140  0.62180  Biso   1.000  O
  N20      1.0000 0.77980  0.47220  0.72280  Biso   1.000  N
  C67      1.0000 0.64010  0.59490  0.70040  Biso   1.000  C
  N21      1.0000 0.45020  0.73680  0.84930  Biso   1.000  N
  C68      1.0000 0.49350  0.90350  0.92760  Biso   1.000  C
  C69      1.0000 0.53270  0.90400  0.86410  Biso   1.000  C
  H37      1.0000 0.57300  0.96060  0.84700  Biso   1.000  H
  C70      1.0000 0.51600  0.99190  0.97090  Biso   1.000  C
  H38      1.0000 0.56290  0.04380  0.95150  Biso   1.000  H
  C71      1.0000 0.82670  0.54620  0.61830  Biso   1.000  C
  C72      1.0000 0.68700  0.48130  0.76850  Biso   1.000  C
  H39      1.0000 0.68230  0.44010  0.80510  Biso   1.000  H
  C73      1.0000 0.55470  0.67530  0.67480  Biso   1.000  C
  C74      1.0000 0.43050  0.81830  0.95040  Biso   1.000  C
  H40      1.0000 0.40490  0.81530  0.99390  Biso   1.000  H
  C75      1.0000 0.51280  0.82050  0.82450  Biso   1.000  C
  H41      1.0000 0.54160  0.82100  0.78150  Biso   1.000  H
  C76      1.0000 0.40570  0.74030  0.91080  Biso   1.000  C
  H42      1.0000 0.35620  0.68710  0.92650  Biso   1.000  H
  C77      1.0000 0.74900  0.54210  0.67920  Biso   1.000  C
  Zn8      1.0000 0.06471  0.88973  0.79383  Biso   1.000  Zn
  O29      1.0000 0.04990  0.80960  0.70260  Biso   1.000  O
  O30      1.0000 0.69590  0.89700  0.57260  Biso   1.000  O
  N22      1.0000 0.89650  0.94540  0.75630  Biso   1.000  N
  O31      1.0000 0.57610  0.01810  0.62130  Biso   1.000  O
  O32      1.0000 0.91590  0.77860  0.62180  Biso   1.000  O
  N23      1.0000 0.72020  0.02780  0.72280  Biso   1.000  N
  C78      1.0000 0.85990  0.90510  0.70040  Biso   1.000  C
  N24      1.0000 0.04980  0.76320  0.84930  Biso   1.000  N
  C79      1.0000 0.00650  0.59650  0.92760  Biso   1.000  C
  C80      1.0000 0.96730  0.59600  0.86410  Biso   1.000  C
  H43      1.0000 0.92700  0.53940  0.84700  Biso   1.000  H
  C81      1.0000 0.98400  0.50810  0.97090  Biso   1.000  C
  H44      1.0000 0.93710  0.45620  0.95150  Biso   1.000  H
  C82      1.0000 0.67330  0.95380  0.61830  Biso   1.000  C
  C83      1.0000 0.81300  0.01870  0.76850  Biso   1.000  C
  H45      1.0000 0.81770  0.05990  0.80510  Biso   1.000  H
  C84      1.0000 0.94530  0.82470  0.67480  Biso   1.000  C
  C85      1.0000 0.06950  0.68170  0.95040  Biso   1.000  C
  H46      1.0000 0.09510  0.68470  0.99390  Biso   1.000  H
  C86      1.0000 0.98720  0.67950  0.82450  Biso   1.000  C
  H47      1.0000 0.95840  0.67900  0.78150  Biso   1.000  H
  C87      1.0000 0.09430  0.75970  0.91080  Biso   1.000  C
  H48      1.0000 0.14380  0.81290  0.92650  Biso   1.000  H
  C88      1.0000 0.75100  0.95790  0.67920  Biso   1.000  C
  Zn9      1.0000 0.75000  0.75000  0.07500  Biso   1.000  Zn
  Zn10     1.0000 0.25000  0.25000  0.42500  Biso   1.000  Zn
  Zn11     1.0000 0.25000  0.25000  0.92500  Biso   1.000  Zn
  Zn12     1.0000 0.75000  0.75000  0.57500  Biso   1.000  Zn
