data_image0
_cell_length_a       24.338
_cell_length_b       9.4877
_cell_length_c       16.502
_cell_angle_alpha    90
_cell_angle_beta     119.89
_cell_angle_gamma    90

_symmetry_space_group_name_H-M    "P 1"
_symmetry_int_tables_number       1

loop_
  _symmetry_equiv_pos_as_xyz
  'x, y, z'

loop_
  _atom_site_label
  _atom_site_occupancy
  _atom_site_fract_x
  _atom_site_fract_y
  _atom_site_fract_z
  _atom_site_thermal_displace_type
  _atom_site_B_iso_or_equiv
  _atom_site_type_symbol
  Cu1      1.0000 0.04272  0.82361  0.03963  Biso   1.000  Cu
  Cu2      1.0000 0.95720  0.61493  0.12225  Biso   1.000  Cu
  N1       1.0000 0.86306  0.98230  0.97063  Biso   1.000  N
  N2       1.0000 0.92087  0.99350  0.97845  Biso   1.000  N
  N3       1.0000 0.95359  0.87890  0.01690  Biso   1.000  N
  N4       1.0000 0.91801  0.78970  0.03613  Biso   1.000  N
  N5       1.0000 0.91764  0.68220  0.20098  Biso   1.000  N
  N6       1.0000 0.95187  0.69890  0.29279  Biso   1.000  N
  N7       1.0000 0.91779  0.76450  0.32342  Biso   1.000  N
  N8       1.0000 0.86000  0.79130  0.25217  Biso   1.000  N
  C1       1.0000 0.04375  0.66860  0.96414  Biso   1.000  C
  C2       1.0000 0.74918  0.69790  0.07708  Biso   1.000  C
  H1       1.0000 0.74920  0.66250  0.12960  Biso   1.000  H
  C3       1.0000 0.80603  0.74380  0.08491  Biso   1.000  C
  C4       1.0000 0.80715  0.79630  0.00681  Biso   1.000  C
  C5       1.0000 0.86330  0.85550  0.00706  Biso   1.000  C
  C6       1.0000 0.86185  0.74010  0.17876  Biso   1.000  C
  N9       1.0000 0.04457  0.56660  0.92933  Biso   1.000  N
  Cu3      1.0000 0.54272  0.32361  0.03963  Biso   1.000  Cu
  Cu4      1.0000 0.45720  0.11493  0.12225  Biso   1.000  Cu
  N10      1.0000 0.36306  0.48230  0.97063  Biso   1.000  N
  N11      1.0000 0.42087  0.49350  0.97845  Biso   1.000  N
  N12      1.0000 0.45359  0.37890  0.01690  Biso   1.000  N
  N13      1.0000 0.41801  0.28970  0.03613  Biso   1.000  N
  N14      1.0000 0.41764  0.18220  0.20098  Biso   1.000  N
  N15      1.0000 0.45187  0.19890  0.29279  Biso   1.000  N
  N16      1.0000 0.41779  0.26450  0.32342  Biso   1.000  N
  N17      1.0000 0.36000  0.29130  0.25217  Biso   1.000  N
  C7       1.0000 0.54375  0.16860  0.96414  Biso   1.000  C
  C8       1.0000 0.24918  0.19790  0.07708  Biso   1.000  C
  H2       1.0000 0.24920  0.16250  0.12960  Biso   1.000  H
  C9       1.0000 0.30603  0.24380  0.08491  Biso   1.000  C
  C10      1.0000 0.30715  0.29630  0.00681  Biso   1.000  C
  C11      1.0000 0.36330  0.35550  0.00706  Biso   1.000  C
  C12      1.0000 0.36185  0.24010  0.17876  Biso   1.000  C
  N18      1.0000 0.54457  0.06660  0.92933  Biso   1.000  N
  Cu5      1.0000 0.95728  0.82361  0.46037  Biso   1.000  Cu
  Cu6      1.0000 0.04280  0.61493  0.37775  Biso   1.000  Cu
  N19      1.0000 0.13694  0.98230  0.52937  Biso   1.000  N
  N20      1.0000 0.07913  0.99350  0.52155  Biso   1.000  N
  N21      1.0000 0.04641  0.87890  0.48310  Biso   1.000  N
  N22      1.0000 0.08199  0.78970  0.46387  Biso   1.000  N
  N23      1.0000 0.08236  0.68220  0.29902  Biso   1.000  N
  N24      1.0000 0.04813  0.69890  0.20721  Biso   1.000  N
  N25      1.0000 0.08221  0.76450  0.17658  Biso   1.000  N
  N26      1.0000 0.14000  0.79130  0.24783  Biso   1.000  N
  C13      1.0000 0.95625  0.66860  0.53586  Biso   1.000  C
  C14      1.0000 0.25082  0.69790  0.42292  Biso   1.000  C
  H3       1.0000 0.25080  0.66250  0.37040  Biso   1.000  H
  C15      1.0000 0.19397  0.74380  0.41509  Biso   1.000  C
  C16      1.0000 0.19285  0.79630  0.49319  Biso   1.000  C
  C17      1.0000 0.13670  0.85550  0.49294  Biso   1.000  C
  C18      1.0000 0.13815  0.74010  0.32124  Biso   1.000  C
  N27      1.0000 0.95543  0.56660  0.57067  Biso   1.000  N
  Cu7      1.0000 0.45728  0.32361  0.46037  Biso   1.000  Cu
  Cu8      1.0000 0.54280  0.11493  0.37775  Biso   1.000  Cu
  N28      1.0000 0.63694  0.48230  0.52937  Biso   1.000  N
  N29      1.0000 0.57913  0.49350  0.52155  Biso   1.000  N
  N30      1.0000 0.54641  0.37890  0.48310  Biso   1.000  N
  N31      1.0000 0.58199  0.28970  0.46387  Biso   1.000  N
  N32      1.0000 0.58236  0.18220  0.29902  Biso   1.000  N
  N33      1.0000 0.54813  0.19890  0.20721  Biso   1.000  N
  N34      1.0000 0.58221  0.26450  0.17658  Biso   1.000  N
  N35      1.0000 0.64000  0.29130  0.24783  Biso   1.000  N
  C19      1.0000 0.45625  0.16860  0.53586  Biso   1.000  C
  C20      1.0000 0.75082  0.19790  0.42292  Biso   1.000  C
  H4       1.0000 0.75080  0.16250  0.37040  Biso   1.000  H
  C21      1.0000 0.69397  0.24380  0.41509  Biso   1.000  C
  C22      1.0000 0.69285  0.29630  0.49319  Biso   1.000  C
  C23      1.0000 0.63670  0.35550  0.49294  Biso   1.000  C
  C24      1.0000 0.63815  0.24010  0.32124  Biso   1.000  C
  N36      1.0000 0.45543  0.06660  0.57067  Biso   1.000  N
  Cu9      1.0000 0.95728  0.17639  0.96037  Biso   1.000  Cu
  Cu10     1.0000 0.04280  0.38507  0.87775  Biso   1.000  Cu
  N37      1.0000 0.13694  0.01770  0.02937  Biso   1.000  N
  N38      1.0000 0.07913  0.00650  0.02155  Biso   1.000  N
  N39      1.0000 0.04641  0.12110  0.98310  Biso   1.000  N
  N40      1.0000 0.08199  0.21030  0.96387  Biso   1.000  N
  N41      1.0000 0.08236  0.31780  0.79902  Biso   1.000  N
  N42      1.0000 0.04813  0.30110  0.70721  Biso   1.000  N
  N43      1.0000 0.08221  0.23550  0.67658  Biso   1.000  N
  N44      1.0000 0.14000  0.20870  0.74783  Biso   1.000  N
  C25      1.0000 0.95625  0.33140  0.03586  Biso   1.000  C
  C26      1.0000 0.25082  0.30210  0.92292  Biso   1.000  C
  H5       1.0000 0.25080  0.33750  0.87040  Biso   1.000  H
  C27      1.0000 0.19397  0.25620  0.91509  Biso   1.000  C
  C28      1.0000 0.19285  0.20370  0.99319  Biso   1.000  C
  C29      1.0000 0.13670  0.14450  0.99294  Biso   1.000  C
  C30      1.0000 0.13815  0.25990  0.82124  Biso   1.000  C
  N45      1.0000 0.95543  0.43340  0.07067  Biso   1.000  N
  Cu11     1.0000 0.45728  0.67639  0.96037  Biso   1.000  Cu
  Cu12     1.0000 0.54280  0.88507  0.87775  Biso   1.000  Cu
  N46      1.0000 0.63694  0.51770  0.02937  Biso   1.000  N
  N47      1.0000 0.57913  0.50650  0.02155  Biso   1.000  N
  N48      1.0000 0.54641  0.62110  0.98310  Biso   1.000  N
  N49      1.0000 0.58199  0.71030  0.96387  Biso   1.000  N
  N50      1.0000 0.58236  0.81780  0.79902  Biso   1.000  N
  N51      1.0000 0.54813  0.80110  0.70721  Biso   1.000  N
  N52      1.0000 0.58221  0.73550  0.67658  Biso   1.000  N
  N53      1.0000 0.64000  0.70870  0.74783  Biso   1.000  N
  C31      1.0000 0.45625  0.83140  0.03586  Biso   1.000  C
  C32      1.0000 0.75082  0.80210  0.92292  Biso   1.000  C
  H6       1.0000 0.75080  0.83750  0.87040  Biso   1.000  H
  C33      1.0000 0.69397  0.75620  0.91509  Biso   1.000  C
  C34      1.0000 0.69285  0.70370  0.99319  Biso   1.000  C
  C35      1.0000 0.63670  0.64450  0.99294  Biso   1.000  C
  C36      1.0000 0.63815  0.75990  0.82124  Biso   1.000  C
  N54      1.0000 0.45543  0.93340  0.07067  Biso   1.000  N
  Cu13     1.0000 0.04272  0.17639  0.53963  Biso   1.000  Cu
  Cu14     1.0000 0.95720  0.38507  0.62225  Biso   1.000  Cu
  N55      1.0000 0.86306  0.01770  0.47063  Biso   1.000  N
  N56      1.0000 0.92087  0.00650  0.47845  Biso   1.000  N
  N57      1.0000 0.95359  0.12110  0.51690  Biso   1.000  N
  N58      1.0000 0.91801  0.21030  0.53613  Biso   1.000  N
  N59      1.0000 0.91764  0.31780  0.70098  Biso   1.000  N
  N60      1.0000 0.95187  0.30110  0.79279  Biso   1.000  N
  N61      1.0000 0.91779  0.23550  0.82342  Biso   1.000  N
  N62      1.0000 0.86000  0.20870  0.75217  Biso   1.000  N
  C37      1.0000 0.04375  0.33140  0.46414  Biso   1.000  C
  C38      1.0000 0.74918  0.30210  0.57708  Biso   1.000  C
  H7       1.0000 0.74920  0.33750  0.62960  Biso   1.000  H
  C39      1.0000 0.80603  0.25620  0.58491  Biso   1.000  C
  C40      1.0000 0.80715  0.20370  0.50681  Biso   1.000  C
  C41      1.0000 0.86330  0.14450  0.50706  Biso   1.000  C
  C42      1.0000 0.86185  0.25990  0.67876  Biso   1.000  C
  N63      1.0000 0.04457  0.43340  0.42933  Biso   1.000  N
  Cu15     1.0000 0.54272  0.67639  0.53963  Biso   1.000  Cu
  Cu16     1.0000 0.45720  0.88507  0.62225  Biso   1.000  Cu
  N64      1.0000 0.36306  0.51770  0.47063  Biso   1.000  N
  N65      1.0000 0.42087  0.50650  0.47845  Biso   1.000  N
  N66      1.0000 0.45359  0.62110  0.51690  Biso   1.000  N
  N67      1.0000 0.41801  0.71030  0.53613  Biso   1.000  N
  N68      1.0000 0.41764  0.81780  0.70098  Biso   1.000  N
  N69      1.0000 0.45187  0.80110  0.79279  Biso   1.000  N
  N70      1.0000 0.41779  0.73550  0.82342  Biso   1.000  N
  N71      1.0000 0.36000  0.70870  0.75217  Biso   1.000  N
  C43      1.0000 0.54375  0.83140  0.46414  Biso   1.000  C
  C44      1.0000 0.24918  0.80210  0.57708  Biso   1.000  C
  H8       1.0000 0.24920  0.83750  0.62960  Biso   1.000  H
  C45      1.0000 0.30603  0.75620  0.58491  Biso   1.000  C
  C46      1.0000 0.30715  0.70370  0.50681  Biso   1.000  C
  C47      1.0000 0.36330  0.64450  0.50706  Biso   1.000  C
  C48      1.0000 0.36185  0.75990  0.67876  Biso   1.000  C
  N72      1.0000 0.54457  0.93340  0.42933  Biso   1.000  N
