data_image0
_cell_length_a       24.321
_cell_length_b       9.4098
_cell_length_c       16.628
_cell_angle_alpha    90
_cell_angle_beta     119.24
_cell_angle_gamma    90

_symmetry_space_group_name_H-M    "P 1"
_symmetry_int_tables_number       1

loop_
  _symmetry_equiv_pos_as_xyz
  'x, y, z'

loop_
  _atom_site_label
  _atom_site_occupancy
  _atom_site_fract_x
  _atom_site_fract_y
  _atom_site_fract_z
  _atom_site_thermal_displace_type
  _atom_site_B_iso_or_equiv
  _atom_site_type_symbol
  Cu1      1.0000 0.04273  0.82357  0.04115  Biso   1.000  Cu
  Cu2      1.0000 0.95723  0.61430  0.12254  Biso   1.000  Cu
  N1       1.0000 0.91824  0.79070  0.03730  Biso   1.000  N
  N2       1.0000 0.95358  0.88030  0.01720  Biso   1.000  N
  N3       1.0000 0.92015  0.99270  0.97640  Biso   1.000  N
  N4       1.0000 0.86240  0.98150  0.96750  Biso   1.000  N
  N5       1.0000 0.86050  0.79070  0.25110  Biso   1.000  N
  N6       1.0000 0.91800  0.76380  0.32220  Biso   1.000  N
  N7       1.0000 0.95211  0.69740  0.29260  Biso   1.000  N
  N8       1.0000 0.91769  0.68120  0.20090  Biso   1.000  N
  N9       1.0000 0.04490  0.56610  0.93060  Biso   1.000  N
  C1       1.0000 0.74930  0.69640  0.07640  Biso   1.000  C
  H1       1.0000 0.74910  0.65930  0.12810  Biso   1.000  H
  C2       1.0000 0.80640  0.74380  0.08450  Biso   1.000  C
  C3       1.0000 0.80680  0.79700  0.00610  Biso   1.000  C
  C4       1.0000 0.86280  0.85570  0.00600  Biso   1.000  C
  C5       1.0000 0.86230  0.74010  0.17760  Biso   1.000  C
  C6       1.0000 0.04520  0.66830  0.96740  Biso   1.000  C
  Cu3      1.0000 0.54273  0.32357  0.04115  Biso   1.000  Cu
  Cu4      1.0000 0.45723  0.11430  0.12254  Biso   1.000  Cu
  N10      1.0000 0.41824  0.29070  0.03730  Biso   1.000  N
  N11      1.0000 0.45358  0.38030  0.01720  Biso   1.000  N
  N12      1.0000 0.42015  0.49270  0.97640  Biso   1.000  N
  N13      1.0000 0.36240  0.48150  0.96750  Biso   1.000  N
  N14      1.0000 0.36050  0.29070  0.25110  Biso   1.000  N
  N15      1.0000 0.41800  0.26380  0.32220  Biso   1.000  N
  N16      1.0000 0.45211  0.19740  0.29260  Biso   1.000  N
  N17      1.0000 0.41769  0.18120  0.20090  Biso   1.000  N
  N18      1.0000 0.54490  0.06610  0.93060  Biso   1.000  N
  C7       1.0000 0.24930  0.19640  0.07640  Biso   1.000  C
  H2       1.0000 0.24910  0.15930  0.12810  Biso   1.000  H
  C8       1.0000 0.30640  0.24380  0.08450  Biso   1.000  C
  C9       1.0000 0.30680  0.29700  0.00610  Biso   1.000  C
  C10      1.0000 0.36280  0.35570  0.00600  Biso   1.000  C
  C11      1.0000 0.36230  0.24010  0.17760  Biso   1.000  C
  C12      1.0000 0.54520  0.16830  0.96740  Biso   1.000  C
  Cu5      1.0000 0.95727  0.82357  0.45885  Biso   1.000  Cu
  Cu6      1.0000 0.04277  0.61430  0.37746  Biso   1.000  Cu
  N19      1.0000 0.08176  0.79070  0.46270  Biso   1.000  N
  N20      1.0000 0.04642  0.88030  0.48280  Biso   1.000  N
  N21      1.0000 0.07985  0.99270  0.52360  Biso   1.000  N
  N22      1.0000 0.13760  0.98150  0.53250  Biso   1.000  N
  N23      1.0000 0.13950  0.79070  0.24890  Biso   1.000  N
  N24      1.0000 0.08200  0.76380  0.17780  Biso   1.000  N
  N25      1.0000 0.04789  0.69740  0.20740  Biso   1.000  N
  N26      1.0000 0.08231  0.68120  0.29910  Biso   1.000  N
  N27      1.0000 0.95510  0.56610  0.56940  Biso   1.000  N
  C13      1.0000 0.25070  0.69640  0.42360  Biso   1.000  C
  H3       1.0000 0.25090  0.65930  0.37190  Biso   1.000  H
  C14      1.0000 0.19360  0.74380  0.41550  Biso   1.000  C
  C15      1.0000 0.19320  0.79700  0.49390  Biso   1.000  C
  C16      1.0000 0.13720  0.85570  0.49400  Biso   1.000  C
  C17      1.0000 0.13770  0.74010  0.32240  Biso   1.000  C
  C18      1.0000 0.95480  0.66830  0.53260  Biso   1.000  C
  Cu7      1.0000 0.45727  0.32357  0.45885  Biso   1.000  Cu
  Cu8      1.0000 0.54277  0.11430  0.37746  Biso   1.000  Cu
  N28      1.0000 0.58176  0.29070  0.46270  Biso   1.000  N
  N29      1.0000 0.54642  0.38030  0.48280  Biso   1.000  N
  N30      1.0000 0.57985  0.49270  0.52360  Biso   1.000  N
  N31      1.0000 0.63760  0.48150  0.53250  Biso   1.000  N
  N32      1.0000 0.63950  0.29070  0.24890  Biso   1.000  N
  N33      1.0000 0.58200  0.26380  0.17780  Biso   1.000  N
  N34      1.0000 0.54789  0.19740  0.20740  Biso   1.000  N
  N35      1.0000 0.58231  0.18120  0.29910  Biso   1.000  N
  N36      1.0000 0.45510  0.06610  0.56940  Biso   1.000  N
  C19      1.0000 0.75070  0.19640  0.42360  Biso   1.000  C
  H4       1.0000 0.75090  0.15930  0.37190  Biso   1.000  H
  C20      1.0000 0.69360  0.24380  0.41550  Biso   1.000  C
  C21      1.0000 0.69320  0.29700  0.49390  Biso   1.000  C
  C22      1.0000 0.63720  0.35570  0.49400  Biso   1.000  C
  C23      1.0000 0.63770  0.24010  0.32240  Biso   1.000  C
  C24      1.0000 0.45480  0.16830  0.53260  Biso   1.000  C
  Cu9      1.0000 0.95727  0.17643  0.95885  Biso   1.000  Cu
  Cu10     1.0000 0.04277  0.38570  0.87746  Biso   1.000  Cu
  N37      1.0000 0.08176  0.20930  0.96270  Biso   1.000  N
  N38      1.0000 0.04642  0.11970  0.98280  Biso   1.000  N
  N39      1.0000 0.07985  0.00730  0.02360  Biso   1.000  N
  N40      1.0000 0.13760  0.01850  0.03250  Biso   1.000  N
  N41      1.0000 0.13950  0.20930  0.74890  Biso   1.000  N
  N42      1.0000 0.08200  0.23620  0.67780  Biso   1.000  N
  N43      1.0000 0.04789  0.30260  0.70740  Biso   1.000  N
  N44      1.0000 0.08231  0.31880  0.79910  Biso   1.000  N
  N45      1.0000 0.95510  0.43390  0.06940  Biso   1.000  N
  C25      1.0000 0.25070  0.30360  0.92360  Biso   1.000  C
  H5       1.0000 0.25090  0.34070  0.87190  Biso   1.000  H
  C26      1.0000 0.19360  0.25620  0.91550  Biso   1.000  C
  C27      1.0000 0.19320  0.20300  0.99390  Biso   1.000  C
  C28      1.0000 0.13720  0.14430  0.99400  Biso   1.000  C
  C29      1.0000 0.13770  0.25990  0.82240  Biso   1.000  C
  C30      1.0000 0.95480  0.33170  0.03260  Biso   1.000  C
  Cu11     1.0000 0.45727  0.67643  0.95885  Biso   1.000  Cu
  Cu12     1.0000 0.54277  0.88570  0.87746  Biso   1.000  Cu
  N46      1.0000 0.58176  0.70930  0.96270  Biso   1.000  N
  N47      1.0000 0.54642  0.61970  0.98280  Biso   1.000  N
  N48      1.0000 0.57985  0.50730  0.02360  Biso   1.000  N
  N49      1.0000 0.63760  0.51850  0.03250  Biso   1.000  N
  N50      1.0000 0.63950  0.70930  0.74890  Biso   1.000  N
  N51      1.0000 0.58200  0.73620  0.67780  Biso   1.000  N
  N52      1.0000 0.54789  0.80260  0.70740  Biso   1.000  N
  N53      1.0000 0.58231  0.81880  0.79910  Biso   1.000  N
  N54      1.0000 0.45510  0.93390  0.06940  Biso   1.000  N
  C31      1.0000 0.75070  0.80360  0.92360  Biso   1.000  C
  H6       1.0000 0.75090  0.84070  0.87190  Biso   1.000  H
  C32      1.0000 0.69360  0.75620  0.91550  Biso   1.000  C
  C33      1.0000 0.69320  0.70300  0.99390  Biso   1.000  C
  C34      1.0000 0.63720  0.64430  0.99400  Biso   1.000  C
  C35      1.0000 0.63770  0.75990  0.82240  Biso   1.000  C
  C36      1.0000 0.45480  0.83170  0.03260  Biso   1.000  C
  Cu13     1.0000 0.04273  0.17643  0.54115  Biso   1.000  Cu
  Cu14     1.0000 0.95723  0.38570  0.62254  Biso   1.000  Cu
  N55      1.0000 0.91824  0.20930  0.53730  Biso   1.000  N
  N56      1.0000 0.95358  0.11970  0.51720  Biso   1.000  N
  N57      1.0000 0.92015  0.00730  0.47640  Biso   1.000  N
  N58      1.0000 0.86240  0.01850  0.46750  Biso   1.000  N
  N59      1.0000 0.86050  0.20930  0.75110  Biso   1.000  N
  N60      1.0000 0.91800  0.23620  0.82220  Biso   1.000  N
  N61      1.0000 0.95211  0.30260  0.79260  Biso   1.000  N
  N62      1.0000 0.91769  0.31880  0.70090  Biso   1.000  N
  N63      1.0000 0.04490  0.43390  0.43060  Biso   1.000  N
  C37      1.0000 0.74930  0.30360  0.57640  Biso   1.000  C
  H7       1.0000 0.74910  0.34070  0.62810  Biso   1.000  H
  C38      1.0000 0.80640  0.25620  0.58450  Biso   1.000  C
  C39      1.0000 0.80680  0.20300  0.50610  Biso   1.000  C
  C40      1.0000 0.86280  0.14430  0.50600  Biso   1.000  C
  C41      1.0000 0.86230  0.25990  0.67760  Biso   1.000  C
  C42      1.0000 0.04520  0.33170  0.46740  Biso   1.000  C
  Cu15     1.0000 0.54273  0.67643  0.54115  Biso   1.000  Cu
  Cu16     1.0000 0.45723  0.88570  0.62254  Biso   1.000  Cu
  N64      1.0000 0.41824  0.70930  0.53730  Biso   1.000  N
  N65      1.0000 0.45358  0.61970  0.51720  Biso   1.000  N
  N66      1.0000 0.42015  0.50730  0.47640  Biso   1.000  N
  N67      1.0000 0.36240  0.51850  0.46750  Biso   1.000  N
  N68      1.0000 0.36050  0.70930  0.75110  Biso   1.000  N
  N69      1.0000 0.41800  0.73620  0.82220  Biso   1.000  N
  N70      1.0000 0.45211  0.80260  0.79260  Biso   1.000  N
  N71      1.0000 0.41769  0.81880  0.70090  Biso   1.000  N
  N72      1.0000 0.54490  0.93390  0.43060  Biso   1.000  N
  C43      1.0000 0.24930  0.80360  0.57640  Biso   1.000  C
  H8       1.0000 0.24910  0.84070  0.62810  Biso   1.000  H
  C44      1.0000 0.30640  0.75620  0.58450  Biso   1.000  C
  C45      1.0000 0.30680  0.70300  0.50610  Biso   1.000  C
  C46      1.0000 0.36280  0.64430  0.50600  Biso   1.000  C
  C47      1.0000 0.36230  0.75990  0.67760  Biso   1.000  C
  C48      1.0000 0.54520  0.83170  0.46740  Biso   1.000  C
