data_LUMZUO_clean
_audit_creation_date              2014-07-02
_audit_creation_method            'Materials Studio'
_symmetry_space_group_name_H-M    'P1'
_symmetry_Int_Tables_number       1
_symmetry_cell_setting            triclinic
loop_
_symmetry_equiv_pos_as_xyz
  x,y,z
_cell_length_a                    13.2501
_cell_length_b                    13.2501
_cell_length_c                    18.4989
_cell_angle_alpha                 92.5559
_cell_angle_beta                  92.5559
_cell_angle_gamma                 112.7320
loop_
_atom_site_label
_atom_site_type_symbol
_atom_site_fract_x
_atom_site_fract_y
_atom_site_fract_z
_atom_site_U_iso_or_equiv
_atom_site_adp_type
_atom_site_occupancy
Mn1    Mn    0.78757   0.70699   0.30304   0.01267  Uiso   1.00
Mn2    Mn    0.29301   0.21243   0.19696   0.01267  Uiso   1.00
Mn3    Mn    0.21243   0.29301   0.69696   0.01267  Uiso   1.00
Mn4    Mn    0.70699   0.78757   0.80304   0.01267  Uiso   1.00
Mn5    Mn    0.50000   0.00000  -0.00000   0.01267  Uiso   1.00
Mn6    Mn    0.00000   0.50000   0.50000   0.01267  Uiso   1.00
W1     W     0.96509   0.55047   0.08918   0.01267  Uiso   1.00
W2     W     0.07931   0.43035   0.05098   0.01267  Uiso   1.00
W3     W     0.12851   0.62889   0.00120   0.01267  Uiso   1.00
W4     W     0.44953   0.03491   0.41082   0.01267  Uiso   1.00
W5     W     0.56965   0.92069   0.44902   0.01267  Uiso   1.00
W6     W     0.37111   0.87149   0.49880   0.01267  Uiso   1.00
W7     W     0.03491   0.44953   0.91082   0.01267  Uiso   1.00
W8     W     0.92069   0.56965   0.94902   0.01267  Uiso   1.00
W9     W     0.87149   0.37111   0.99880   0.01267  Uiso   1.00
W10    W     0.55047   0.96509   0.58918   0.01267  Uiso   1.00
W11    W     0.43035   0.07931   0.55098   0.01267  Uiso   1.00
W12    W     0.62889   0.12851   0.50120   0.01267  Uiso   1.00
C1     C     0.91790   0.61130   0.18790   0.01267  Uiso   1.00
C2     C     0.17000   0.34740   0.10410   0.01267  Uiso   1.00
C3     C     0.27650   0.77630   0.00310   0.01267  Uiso   1.00
C4     C     0.38870   0.08210   0.31210   0.01267  Uiso   1.00
C5     C     0.65260   0.83000   0.39590   0.01267  Uiso   1.00
C6     C     0.22370   0.72350   0.49690   0.01267  Uiso   1.00
C7     C     0.08210   0.38870   0.81210   0.01267  Uiso   1.00
C8     C     0.83000   0.65260   0.89590   0.01267  Uiso   1.00
C9     C     0.72350   0.22370   0.99690   0.01267  Uiso   1.00
C10    C     0.61130   0.91790   0.68790   0.01267  Uiso   1.00
C11    C     0.34740   0.17000   0.60410   0.01267  Uiso   1.00
C12    C     0.77630   0.27650   0.50310   0.01267  Uiso   1.00
S1     S     0.15870   0.60030   0.12997   0.01267  Uiso   1.00
S2     S     0.22278   0.50842   0.96591   0.01267  Uiso   1.00
S3     S     0.92268   0.36432   0.12767   0.01267  Uiso   1.00
S4     S     0.01355   0.72905   0.03523   0.01267  Uiso   1.00
S5     S     0.39970   0.84130   0.37003   0.01267  Uiso   1.00
S6     S     0.49158   0.77722   0.53409   0.01267  Uiso   1.00
S7     S     0.63568   0.07732   0.37233   0.01267  Uiso   1.00
S8     S     0.27095   0.98645   0.46477   0.01267  Uiso   1.00
S9     S     0.84130   0.39970   0.87003   0.01267  Uiso   1.00
S10    S     0.77722   0.49158   0.03409   0.01267  Uiso   1.00
S11    S     0.07732   0.63568   0.87233   0.01267  Uiso   1.00
S12    S     0.98645   0.27095   0.96477   0.01267  Uiso   1.00
S13    S     0.60030   0.15870   0.62997   0.01267  Uiso   1.00
S14    S     0.50842   0.22278   0.46591   0.01267  Uiso   1.00
S15    S     0.36432   0.92268   0.62767   0.01267  Uiso   1.00
S16    S     0.72905   0.01355   0.53523   0.01267  Uiso   1.00
N1     N     0.88210   0.64230   0.23570   0.01267  Uiso   1.00
N2     N     0.21940   0.30220   0.13380   0.01267  Uiso   1.00
N3     N     0.35450   0.85430   0.00590   0.01267  Uiso   1.00
N4     N     0.35770   0.11790   0.26430   0.01267  Uiso   1.00
N5     N     0.69780   0.78060   0.36620   0.01267  Uiso   1.00
N6     N     0.14570   0.64550   0.49410   0.01267  Uiso   1.00
N7     N     0.11790   0.35770   0.76430   0.01267  Uiso   1.00
N8     N     0.78060   0.69780   0.86620   0.01267  Uiso   1.00
N9     N     0.64550   0.14570   0.99410   0.01267  Uiso   1.00
N10    N     0.64230   0.88210   0.73570   0.01267  Uiso   1.00
N11    N     0.30220   0.21940   0.63380   0.01267  Uiso   1.00
N12    N     0.85430   0.35450   0.50590   0.01267  Uiso   1.00
