data_image0
_cell_length_a       8.105
_cell_length_b       16.969
_cell_length_c       17.666
_cell_angle_alpha    90
_cell_angle_beta     102.495
_cell_angle_gamma    90

_symmetry_space_group_name_H-M    "P 1"
_symmetry_int_tables_number       1

loop_
  _symmetry_equiv_pos_as_xyz
  'x, y, z'

loop_
  _atom_site_label
  _atom_site_occupancy
  _atom_site_fract_x
  _atom_site_fract_y
  _atom_site_fract_z
  _atom_site_thermal_displace_type
  _atom_site_B_iso_or_equiv
  _atom_site_type_symbol
  Cu1      1.0000 0.00577  0.70429  0.28783  Biso   1.000  Cu
  Cu2      1.0000 0.20535  0.60267  0.17002  Biso   1.000  Cu
  Cu3      1.0000 0.53558  0.66737  0.97293  Biso   1.000  Cu
  Cu4      1.0000 0.40762  0.58083  0.79756  Biso   1.000  Cu
  C1       1.0000 0.89150  0.65570  0.05860  Biso   1.000  C
  H1       1.0000 0.92610  0.63670  0.01390  Biso   1.000  H
  C2       1.0000 0.74210  0.70210  0.13380  Biso   1.000  C
  H2       1.0000 0.65000  0.72280  0.15290  Biso   1.000  H
  C3       1.0000 0.72010  0.82750  0.27830  Biso   1.000  C
  H3       1.0000 0.71840  0.84550  0.22730  Biso   1.000  H
  C4       1.0000 0.78240  0.76590  0.38390  Biso   1.000  C
  H4       1.0000 0.83460  0.73090  0.42390  Biso   1.000  H
  C5       1.0000 0.30470  0.69780  0.39740  Biso   1.000  C
  C6       1.0000 0.34820  0.65430  0.32680  Biso   1.000  C
  H5       1.0000 0.44780  0.68140  0.31340  Biso   1.000  H
  C7       1.0000 0.39650  0.57040  0.34620  Biso   1.000  C
  H6       1.0000 0.29810  0.54230  0.35810  Biso   1.000  H
  H7       1.0000 0.48840  0.56910  0.39330  Biso   1.000  H
  C8       1.0000 0.45410  0.52760  0.28200  Biso   1.000  C
  C9       1.0000 0.28840  0.58720  0.02370  Biso   1.000  C
  C10      1.0000 0.27110  0.55530  0.94120  Biso   1.000  C
  H8       1.0000 0.30890  0.49910  0.94290  Biso   1.000  H
  C11      1.0000 0.11350  0.56220  0.89500  Biso   1.000  C
  H9       1.0000 0.08730  0.61910  0.88850  Biso   1.000  H
  H10      1.0000 0.03210  0.53920  0.92330  Biso   1.000  H
  C12      1.0000 0.07960  0.52480  0.81370  Biso   1.000  C
  N1       1.0000 0.65800  0.81390  0.38980  Biso   1.000  N
  N2       1.0000 0.61800  0.85400  0.32060  Biso   1.000  N
  N3       1.0000 0.82780  0.77200  0.31460  Biso   1.000  N
  N4       1.0000 0.89500  0.68760  0.17780  Biso   1.000  N
  N5       1.0000 0.98970  0.65830  0.12910  Biso   1.000  N
  N6       1.0000 0.73480  0.68370  0.05890  Biso   1.000  N
  O1       1.0000 0.15570  0.72340  0.38970  Biso   1.000  O
  O2       1.0000 0.41870  0.70650  0.45670  Biso   1.000  O
  O3       1.0000 0.20990  0.66230  0.26260  Biso   1.000  O
  O4       1.0000 0.41760  0.55120  0.21180  Biso   1.000  O
  O5       1.0000 0.53700  0.46370  0.29940  Biso   1.000  O
  O6       1.0000 0.19470  0.55780  0.06560  Biso   1.000  O
  O7       1.0000 0.40120  0.63780  0.04720  Biso   1.000  O
  O8       1.0000 0.38240  0.60590  0.90110  Biso   1.000  O
  O9       1.0000 0.19790  0.52080  0.77730  Biso   1.000  O
  O10      1.0000 0.93730  0.50440  0.78570  Biso   1.000  O
  Cu5      1.0000 0.99423  0.20429  0.21217  Biso   1.000  Cu
  Cu6      1.0000 0.79465  0.10267  0.32998  Biso   1.000  Cu
  Cu7      1.0000 0.46442  0.16737  0.52707  Biso   1.000  Cu
  Cu8      1.0000 0.59238  0.08083  0.70244  Biso   1.000  Cu
  C13      1.0000 0.10850  0.15570  0.44140  Biso   1.000  C
  H11      1.0000 0.07390  0.13670  0.48610  Biso   1.000  H
  C14      1.0000 0.25790  0.20210  0.36620  Biso   1.000  C
  H12      1.0000 0.35000  0.22280  0.34710  Biso   1.000  H
  C15      1.0000 0.27990  0.32750  0.22170  Biso   1.000  C
  H13      1.0000 0.28160  0.34550  0.27270  Biso   1.000  H
  C16      1.0000 0.21760  0.26590  0.11610  Biso   1.000  C
  H14      1.0000 0.16540  0.23090  0.07610  Biso   1.000  H
  C17      1.0000 0.69530  0.19780  0.10260  Biso   1.000  C
  C18      1.0000 0.65180  0.15430  0.17320  Biso   1.000  C
  H15      1.0000 0.55220  0.18140  0.18660  Biso   1.000  H
  C19      1.0000 0.60350  0.07040  0.15380  Biso   1.000  C
  H16      1.0000 0.70190  0.04230  0.14190  Biso   1.000  H
  H17      1.0000 0.51160  0.06910  0.10670  Biso   1.000  H
  C20      1.0000 0.54590  0.02760  0.21800  Biso   1.000  C
  C21      1.0000 0.71160  0.08720  0.47630  Biso   1.000  C
  C22      1.0000 0.72890  0.05530  0.55880  Biso   1.000  C
  H18      1.0000 0.69110  0.99910  0.55710  Biso   1.000  H
  C23      1.0000 0.88650  0.06220  0.60500  Biso   1.000  C
  H19      1.0000 0.91270  0.11910  0.61150  Biso   1.000  H
  H20      1.0000 0.96790  0.03920  0.57670  Biso   1.000  H
  C24      1.0000 0.92040  0.02480  0.68630  Biso   1.000  C
  N7       1.0000 0.34200  0.31390  0.11020  Biso   1.000  N
  N8       1.0000 0.38200  0.35400  0.17940  Biso   1.000  N
  N9       1.0000 0.17220  0.27200  0.18540  Biso   1.000  N
  N10      1.0000 0.10500  0.18760  0.32220  Biso   1.000  N
  N11      1.0000 0.01030  0.15830  0.37090  Biso   1.000  N
  N12      1.0000 0.26520  0.18370  0.44110  Biso   1.000  N
  O11      1.0000 0.84430  0.22340  0.11030  Biso   1.000  O
  O12      1.0000 0.58130  0.20650  0.04330  Biso   1.000  O
  O13      1.0000 0.79010  0.16230  0.23740  Biso   1.000  O
  O14      1.0000 0.58240  0.05120  0.28820  Biso   1.000  O
  O15      1.0000 0.46300  0.96370  0.20060  Biso   1.000  O
  O16      1.0000 0.80530  0.05780  0.43440  Biso   1.000  O
  O17      1.0000 0.59880  0.13780  0.45280  Biso   1.000  O
  O18      1.0000 0.61760  0.10590  0.59890  Biso   1.000  O
  O19      1.0000 0.80210  0.02080  0.72270  Biso   1.000  O
  O20      1.0000 0.06270  0.00440  0.71430  Biso   1.000  O
  Cu9      1.0000 0.99423  0.29571  0.71217  Biso   1.000  Cu
  Cu10     1.0000 0.79465  0.39733  0.82998  Biso   1.000  Cu
  Cu11     1.0000 0.46442  0.33263  0.02707  Biso   1.000  Cu
  Cu12     1.0000 0.59238  0.41917  0.20244  Biso   1.000  Cu
  C25      1.0000 0.10850  0.34430  0.94140  Biso   1.000  C
  H21      1.0000 0.07390  0.36330  0.98610  Biso   1.000  H
  C26      1.0000 0.25790  0.29790  0.86620  Biso   1.000  C
  H22      1.0000 0.35000  0.27720  0.84710  Biso   1.000  H
  C27      1.0000 0.27990  0.17250  0.72170  Biso   1.000  C
  H23      1.0000 0.28160  0.15450  0.77270  Biso   1.000  H
  C28      1.0000 0.21760  0.23410  0.61610  Biso   1.000  C
  H24      1.0000 0.16540  0.26910  0.57610  Biso   1.000  H
  C29      1.0000 0.69530  0.30220  0.60260  Biso   1.000  C
  C30      1.0000 0.65180  0.34570  0.67320  Biso   1.000  C
  H25      1.0000 0.55220  0.31860  0.68660  Biso   1.000  H
  C31      1.0000 0.60350  0.42960  0.65380  Biso   1.000  C
  H26      1.0000 0.70190  0.45770  0.64190  Biso   1.000  H
  H27      1.0000 0.51160  0.43090  0.60670  Biso   1.000  H
  C32      1.0000 0.54590  0.47240  0.71800  Biso   1.000  C
  C33      1.0000 0.71160  0.41280  0.97630  Biso   1.000  C
  C34      1.0000 0.72890  0.44470  0.05880  Biso   1.000  C
  H28      1.0000 0.69110  0.50090  0.05710  Biso   1.000  H
  C35      1.0000 0.88650  0.43780  0.10500  Biso   1.000  C
  H29      1.0000 0.91270  0.38090  0.11150  Biso   1.000  H
  H30      1.0000 0.96790  0.46080  0.07670  Biso   1.000  H
  C36      1.0000 0.92040  0.47520  0.18630  Biso   1.000  C
  N13      1.0000 0.34200  0.18610  0.61020  Biso   1.000  N
  N14      1.0000 0.38200  0.14600  0.67940  Biso   1.000  N
  N15      1.0000 0.17220  0.22800  0.68540  Biso   1.000  N
  N16      1.0000 0.10500  0.31240  0.82220  Biso   1.000  N
  N17      1.0000 0.01030  0.34170  0.87090  Biso   1.000  N
  N18      1.0000 0.26520  0.31630  0.94110  Biso   1.000  N
  O21      1.0000 0.84430  0.27660  0.61030  Biso   1.000  O
  O22      1.0000 0.58130  0.29350  0.54330  Biso   1.000  O
  O23      1.0000 0.79010  0.33770  0.73740  Biso   1.000  O
  O24      1.0000 0.58240  0.44880  0.78820  Biso   1.000  O
  O25      1.0000 0.46300  0.53630  0.70060  Biso   1.000  O
  O26      1.0000 0.80530  0.44220  0.93440  Biso   1.000  O
  O27      1.0000 0.59880  0.36220  0.95280  Biso   1.000  O
  O28      1.0000 0.61760  0.39410  0.09890  Biso   1.000  O
  O29      1.0000 0.80210  0.47920  0.22270  Biso   1.000  O
  O30      1.0000 0.06270  0.49560  0.21430  Biso   1.000  O
  Cu13     1.0000 0.00577  0.79571  0.78783  Biso   1.000  Cu
  Cu14     1.0000 0.20535  0.89733  0.67002  Biso   1.000  Cu
  Cu15     1.0000 0.53558  0.83263  0.47293  Biso   1.000  Cu
  Cu16     1.0000 0.40762  0.91917  0.29756  Biso   1.000  Cu
  C37      1.0000 0.89150  0.84430  0.55860  Biso   1.000  C
  H31      1.0000 0.92610  0.86330  0.51390  Biso   1.000  H
  C38      1.0000 0.74210  0.79790  0.63380  Biso   1.000  C
  H32      1.0000 0.65000  0.77720  0.65290  Biso   1.000  H
  C39      1.0000 0.72010  0.67250  0.77830  Biso   1.000  C
  H33      1.0000 0.71840  0.65450  0.72730  Biso   1.000  H
  C40      1.0000 0.78240  0.73410  0.88390  Biso   1.000  C
  H34      1.0000 0.83460  0.76910  0.92390  Biso   1.000  H
  C41      1.0000 0.30470  0.80220  0.89740  Biso   1.000  C
  C42      1.0000 0.34820  0.84570  0.82680  Biso   1.000  C
  H35      1.0000 0.44780  0.81860  0.81340  Biso   1.000  H
  C43      1.0000 0.39650  0.92960  0.84620  Biso   1.000  C
  H36      1.0000 0.29810  0.95770  0.85810  Biso   1.000  H
  H37      1.0000 0.48840  0.93090  0.89330  Biso   1.000  H
  C44      1.0000 0.45410  0.97240  0.78200  Biso   1.000  C
  C45      1.0000 0.28840  0.91280  0.52370  Biso   1.000  C
  C46      1.0000 0.27110  0.94470  0.44120  Biso   1.000  C
  H38      1.0000 0.30890  0.00090  0.44290  Biso   1.000  H
  C47      1.0000 0.11350  0.93780  0.39500  Biso   1.000  C
  H39      1.0000 0.08730  0.88090  0.38850  Biso   1.000  H
  H40      1.0000 0.03210  0.96080  0.42330  Biso   1.000  H
  C48      1.0000 0.07960  0.97520  0.31370  Biso   1.000  C
  N19      1.0000 0.65800  0.68610  0.88980  Biso   1.000  N
  N20      1.0000 0.61800  0.64600  0.82060  Biso   1.000  N
  N21      1.0000 0.82780  0.72800  0.81460  Biso   1.000  N
  N22      1.0000 0.89500  0.81240  0.67780  Biso   1.000  N
  N23      1.0000 0.98970  0.84170  0.62910  Biso   1.000  N
  N24      1.0000 0.73480  0.81630  0.55890  Biso   1.000  N
  O31      1.0000 0.15570  0.77660  0.88970  Biso   1.000  O
  O32      1.0000 0.41870  0.79350  0.95670  Biso   1.000  O
  O33      1.0000 0.20990  0.83770  0.76260  Biso   1.000  O
  O34      1.0000 0.41760  0.94880  0.71180  Biso   1.000  O
  O35      1.0000 0.53700  0.03630  0.79940  Biso   1.000  O
  O36      1.0000 0.19470  0.94220  0.56560  Biso   1.000  O
  O37      1.0000 0.40120  0.86220  0.54720  Biso   1.000  O
  O38      1.0000 0.38240  0.89410  0.40110  Biso   1.000  O
  O39      1.0000 0.19790  0.97920  0.27730  Biso   1.000  O
  O40      1.0000 0.93730  0.99560  0.28570  Biso   1.000  O
