data_image0
_cell_length_a       24.349
_cell_length_b       9.2334
_cell_length_c       16.959
_cell_angle_alpha    90
_cell_angle_beta     119.41
_cell_angle_gamma    90

_symmetry_space_group_name_H-M    "P 1"
_symmetry_int_tables_number       1

loop_
  _symmetry_equiv_pos_as_xyz
  'x, y, z'

loop_
  _atom_site_label
  _atom_site_occupancy
  _atom_site_fract_x
  _atom_site_fract_y
  _atom_site_fract_z
  _atom_site_thermal_displace_type
  _atom_site_B_iso_or_equiv
  _atom_site_type_symbol
  Cu1      1.0000 0.15336  0.67062  0.32335  Biso   1.000  Cu
  Cu2      1.0000 0.14800  0.89651  0.64849  Biso   1.000  Cu
  Cu3      1.0000 0.06310  0.68569  0.72744  Biso   1.000  Cu
  Cu4      1.0000 0.06379  0.87942  0.39709  Biso   1.000  Cu
  N1       1.0000 0.19260  0.73870  0.45790  Biso   1.000  N
  N2       1.0000 0.24930  0.71630  0.52890  Biso   1.000  N
  N3       1.0000 0.18950  0.82700  0.57350  Biso   1.000  N
  N4       1.0000 0.15580  0.80650  0.48370  Biso   1.000  N
  N5       1.0000 0.18720  0.71890  0.73430  Biso   1.000  N
  N6       1.0000 0.15450  0.62980  0.75950  Biso   1.000  N
  N7       1.0000 0.19020  0.52250  0.80850  Biso   1.000  N
  N8       1.0000 0.24900  0.53970  0.81970  Biso   1.000  N
  N9       1.0000 0.46890  0.80450  0.02320  Biso   1.000  N
  N10      1.0000 0.52580  0.76640  0.09330  Biso   1.000  N
  N11      1.0000 0.55810  0.69170  0.06450  Biso   1.000  N
  N12      1.0000 0.52410  0.67910  0.97320  Biso   1.000  N
  N13      1.0000 0.52820  0.80420  0.81940  Biso   1.000  N
  N14      1.0000 0.56360  0.89000  0.79930  Biso   1.000  N
  N15      1.0000 0.52780  0.00030  0.75040  Biso   1.000  N
  N16      1.0000 0.47050  0.98860  0.73930  Biso   1.000  N
  N17      1.0000 0.05720  0.15530  0.29680  Biso   1.000  N
  N18      1.0000 0.15230  0.17900  0.74250  Biso   1.000  N
  C1       1.0000 0.24630  0.77070  0.59930  Biso   1.000  C
  C2       1.0000 0.30180  0.77140  0.69260  Biso   1.000  C
  C3       1.0000 0.35810  0.81580  0.70120  Biso   1.000  C
  H1       1.0000 0.35830  0.85040  0.64990  Biso   1.000  H
  C4       1.0000 0.41440  0.81240  0.78130  Biso   1.000  C
  C5       1.0000 0.41450  0.75940  0.85930  Biso   1.000  C
  C6       1.0000 0.35670  0.71830  0.85200  Biso   1.000  C
  H2       1.0000 0.35600  0.68870  0.90390  Biso   1.000  H
  C7       1.0000 0.29970  0.72020  0.76910  Biso   1.000  C
  C8       1.0000 0.24480  0.66100  0.77310  Biso   1.000  C
  C9       1.0000 0.47080  0.75120  0.95160  Biso   1.000  C
  C10      1.0000 0.47090  0.86770  0.78240  Biso   1.000  C
  C11      1.0000 0.05700  0.05380  0.33620  Biso   1.000  C
  C12      1.0000 0.15130  0.07760  0.70230  Biso   1.000  C
  Cu5      1.0000 0.65336  0.17062  0.32335  Biso   1.000  Cu
  Cu6      1.0000 0.64800  0.39651  0.64849  Biso   1.000  Cu
  Cu7      1.0000 0.56310  0.18569  0.72744  Biso   1.000  Cu
  Cu8      1.0000 0.56379  0.37942  0.39709  Biso   1.000  Cu
  N19      1.0000 0.69260  0.23870  0.45790  Biso   1.000  N
  N20      1.0000 0.74930  0.21630  0.52890  Biso   1.000  N
  N21      1.0000 0.68950  0.32700  0.57350  Biso   1.000  N
  N22      1.0000 0.65580  0.30650  0.48370  Biso   1.000  N
  N23      1.0000 0.68720  0.21890  0.73430  Biso   1.000  N
  N24      1.0000 0.65450  0.12980  0.75950  Biso   1.000  N
  N25      1.0000 0.69020  0.02250  0.80850  Biso   1.000  N
  N26      1.0000 0.74900  0.03970  0.81970  Biso   1.000  N
  N27      1.0000 0.96890  0.30450  0.02320  Biso   1.000  N
  N28      1.0000 0.02580  0.26640  0.09330  Biso   1.000  N
  N29      1.0000 0.05810  0.19170  0.06450  Biso   1.000  N
  N30      1.0000 0.02410  0.17910  0.97320  Biso   1.000  N
  N31      1.0000 0.02820  0.30420  0.81940  Biso   1.000  N
  N32      1.0000 0.06360  0.39000  0.79930  Biso   1.000  N
  N33      1.0000 0.02780  0.50030  0.75040  Biso   1.000  N
  N34      1.0000 0.97050  0.48860  0.73930  Biso   1.000  N
  N35      1.0000 0.55720  0.65530  0.29680  Biso   1.000  N
  N36      1.0000 0.65230  0.67900  0.74250  Biso   1.000  N
  C13      1.0000 0.74630  0.27070  0.59930  Biso   1.000  C
  C14      1.0000 0.80180  0.27140  0.69260  Biso   1.000  C
  C15      1.0000 0.85810  0.31580  0.70120  Biso   1.000  C
  H3       1.0000 0.85830  0.35040  0.64990  Biso   1.000  H
  C16      1.0000 0.91440  0.31240  0.78130  Biso   1.000  C
  C17      1.0000 0.91450  0.25940  0.85930  Biso   1.000  C
  C18      1.0000 0.85670  0.21830  0.85200  Biso   1.000  C
  H4       1.0000 0.85600  0.18870  0.90390  Biso   1.000  H
  C19      1.0000 0.79970  0.22020  0.76910  Biso   1.000  C
  C20      1.0000 0.74480  0.16100  0.77310  Biso   1.000  C
  C21      1.0000 0.97080  0.25120  0.95160  Biso   1.000  C
  C22      1.0000 0.97090  0.36770  0.78240  Biso   1.000  C
  C23      1.0000 0.55700  0.55380  0.33620  Biso   1.000  C
  C24      1.0000 0.65130  0.57760  0.70230  Biso   1.000  C
  Cu9      1.0000 0.15336  0.32938  0.82335  Biso   1.000  Cu
  Cu10     1.0000 0.14800  0.10349  0.14849  Biso   1.000  Cu
  Cu11     1.0000 0.06310  0.31431  0.22744  Biso   1.000  Cu
  Cu12     1.0000 0.06379  0.12058  0.89709  Biso   1.000  Cu
  N37      1.0000 0.19260  0.26130  0.95790  Biso   1.000  N
  N38      1.0000 0.24930  0.28370  0.02890  Biso   1.000  N
  N39      1.0000 0.18950  0.17300  0.07350  Biso   1.000  N
  N40      1.0000 0.15580  0.19350  0.98370  Biso   1.000  N
  N41      1.0000 0.18720  0.28110  0.23430  Biso   1.000  N
  N42      1.0000 0.15450  0.37020  0.25950  Biso   1.000  N
  N43      1.0000 0.19020  0.47750  0.30850  Biso   1.000  N
  N44      1.0000 0.24900  0.46030  0.31970  Biso   1.000  N
  N45      1.0000 0.46890  0.19550  0.52320  Biso   1.000  N
  N46      1.0000 0.52580  0.23360  0.59330  Biso   1.000  N
  N47      1.0000 0.55810  0.30830  0.56450  Biso   1.000  N
  N48      1.0000 0.52410  0.32090  0.47320  Biso   1.000  N
  N49      1.0000 0.52820  0.19580  0.31940  Biso   1.000  N
  N50      1.0000 0.56360  0.11000  0.29930  Biso   1.000  N
  N51      1.0000 0.52780  0.99970  0.25040  Biso   1.000  N
  N52      1.0000 0.47050  0.01140  0.23930  Biso   1.000  N
  N53      1.0000 0.05720  0.84470  0.79680  Biso   1.000  N
  N54      1.0000 0.15230  0.82100  0.24250  Biso   1.000  N
  C25      1.0000 0.24630  0.22930  0.09930  Biso   1.000  C
  C26      1.0000 0.30180  0.22860  0.19260  Biso   1.000  C
  C27      1.0000 0.35810  0.18420  0.20120  Biso   1.000  C
  H5       1.0000 0.35830  0.14960  0.14990  Biso   1.000  H
  C28      1.0000 0.41440  0.18760  0.28130  Biso   1.000  C
  C29      1.0000 0.41450  0.24060  0.35930  Biso   1.000  C
  C30      1.0000 0.35670  0.28170  0.35200  Biso   1.000  C
  H6       1.0000 0.35600  0.31130  0.40390  Biso   1.000  H
  C31      1.0000 0.29970  0.27980  0.26910  Biso   1.000  C
  C32      1.0000 0.24480  0.33900  0.27310  Biso   1.000  C
  C33      1.0000 0.47080  0.24880  0.45160  Biso   1.000  C
  C34      1.0000 0.47090  0.13230  0.28240  Biso   1.000  C
  C35      1.0000 0.05700  0.94620  0.83620  Biso   1.000  C
  C36      1.0000 0.15130  0.92240  0.20230  Biso   1.000  C
  Cu13     1.0000 0.65336  0.82938  0.82335  Biso   1.000  Cu
  Cu14     1.0000 0.64800  0.60349  0.14849  Biso   1.000  Cu
  Cu15     1.0000 0.56310  0.81431  0.22744  Biso   1.000  Cu
  Cu16     1.0000 0.56379  0.62058  0.89709  Biso   1.000  Cu
  N55      1.0000 0.69260  0.76130  0.95790  Biso   1.000  N
  N56      1.0000 0.74930  0.78370  0.02890  Biso   1.000  N
  N57      1.0000 0.68950  0.67300  0.07350  Biso   1.000  N
  N58      1.0000 0.65580  0.69350  0.98370  Biso   1.000  N
  N59      1.0000 0.68720  0.78110  0.23430  Biso   1.000  N
  N60      1.0000 0.65450  0.87020  0.25950  Biso   1.000  N
  N61      1.0000 0.69020  0.97750  0.30850  Biso   1.000  N
  N62      1.0000 0.74900  0.96030  0.31970  Biso   1.000  N
  N63      1.0000 0.96890  0.69550  0.52320  Biso   1.000  N
  N64      1.0000 0.02580  0.73360  0.59330  Biso   1.000  N
  N65      1.0000 0.05810  0.80830  0.56450  Biso   1.000  N
  N66      1.0000 0.02410  0.82090  0.47320  Biso   1.000  N
  N67      1.0000 0.02820  0.69580  0.31940  Biso   1.000  N
  N68      1.0000 0.06360  0.61000  0.29930  Biso   1.000  N
  N69      1.0000 0.02780  0.49970  0.25040  Biso   1.000  N
  N70      1.0000 0.97050  0.51140  0.23930  Biso   1.000  N
  N71      1.0000 0.55720  0.34470  0.79680  Biso   1.000  N
  N72      1.0000 0.65230  0.32100  0.24250  Biso   1.000  N
  C37      1.0000 0.74630  0.72930  0.09930  Biso   1.000  C
  C38      1.0000 0.80180  0.72860  0.19260  Biso   1.000  C
  C39      1.0000 0.85810  0.68420  0.20120  Biso   1.000  C
  H7       1.0000 0.85830  0.64960  0.14990  Biso   1.000  H
  C40      1.0000 0.91440  0.68760  0.28130  Biso   1.000  C
  C41      1.0000 0.91450  0.74060  0.35930  Biso   1.000  C
  C42      1.0000 0.85670  0.78170  0.35200  Biso   1.000  C
  H8       1.0000 0.85600  0.81130  0.40390  Biso   1.000  H
  C43      1.0000 0.79970  0.77980  0.26910  Biso   1.000  C
  C44      1.0000 0.74480  0.83900  0.27310  Biso   1.000  C
  C45      1.0000 0.97080  0.74880  0.45160  Biso   1.000  C
  C46      1.0000 0.97090  0.63230  0.28240  Biso   1.000  C
  C47      1.0000 0.55700  0.44620  0.83620  Biso   1.000  C
  C48      1.0000 0.65130  0.42240  0.20230  Biso   1.000  C
