data_LUNBAX_clean
_audit_creation_date              2014-07-02
_audit_creation_method            'Materials Studio'
_symmetry_space_group_name_H-M    'P1'
_symmetry_Int_Tables_number       1
_symmetry_cell_setting            triclinic
loop_
_symmetry_equiv_pos_as_xyz
  x,y,z
_cell_length_a                    13.1888
_cell_length_b                    13.1888
_cell_length_c                    18.2860
_cell_angle_alpha                 92.7321
_cell_angle_beta                  92.7321
_cell_angle_gamma                 112.7810
loop_
_atom_site_label
_atom_site_type_symbol
_atom_site_fract_x
_atom_site_fract_y
_atom_site_fract_z
_atom_site_U_iso_or_equiv
_atom_site_adp_type
_atom_site_occupancy
Fe1    Fe    0.21521   0.29533   0.69598   0.01267  Uiso   1.00
Fe2    Fe    0.70467   0.78479   0.80402   0.01267  Uiso   1.00
Fe3    Fe    0.78479   0.70467   0.30402   0.01267  Uiso   1.00
Fe4    Fe    0.29533   0.21521   0.19598   0.01267  Uiso   1.00
Fe5    Fe    0.50000  -0.00000   0.00000   0.01267  Uiso   1.00
Fe6    Fe    0.00000   0.50000   0.50000   0.01267  Uiso   1.00
W1     W     0.03780   0.45066   0.91031   0.01267  Uiso   1.00
W2     W     0.91851   0.56731   0.94759   0.01267  Uiso   1.00
W3     W     0.12740   0.63184   0.00214   0.01267  Uiso   1.00
W4     W     0.54934   0.96220   0.58969   0.01267  Uiso   1.00
W5     W     0.43269   0.08149   0.55241   0.01267  Uiso   1.00
W6     W     0.36816   0.87260   0.49786   0.01267  Uiso   1.00
W7     W     0.96220   0.54934   0.08969   0.01267  Uiso   1.00
W8     W     0.08149   0.43269   0.05241   0.01267  Uiso   1.00
W9     W     0.87260   0.36816   0.99786   0.01267  Uiso   1.00
W10    W     0.45066   0.03780   0.41031   0.01267  Uiso   1.00
W11    W     0.56731   0.91851   0.44759   0.01267  Uiso   1.00
W12    W     0.63184   0.12740   0.50214   0.01267  Uiso   1.00
C1     C     0.08940   0.39060   0.81150   0.01267  Uiso   1.00
C2     C     0.82610   0.64890   0.89220   0.01267  Uiso   1.00
C3     C     0.27220   0.78320   0.00470   0.01267  Uiso   1.00
C4     C     0.60940   0.91060   0.68850   0.01267  Uiso   1.00
C5     C     0.35110   0.17390   0.60780   0.01267  Uiso   1.00
C6     C     0.21680   0.72780   0.49530   0.01267  Uiso   1.00
C7     C     0.91060   0.60940   0.18850   0.01267  Uiso   1.00
C8     C     0.17390   0.35110   0.10780   0.01267  Uiso   1.00
C9     C     0.72780   0.21680   0.99530   0.01267  Uiso   1.00
C10    C     0.39060   0.08940   0.31150   0.01267  Uiso   1.00
C11    C     0.64890   0.82610   0.39220   0.01267  Uiso   1.00
C12    C     0.78320   0.27220   0.50470   0.01267  Uiso   1.00
S1     S     0.07610   0.63650   0.87140   0.01267  Uiso   1.00
S2     S     0.84220   0.39600   0.86750   0.01267  Uiso   1.00
S3     S     0.22590   0.51510   0.96810   0.01267  Uiso   1.00
S4     S     0.00803   0.72757   0.03520   0.01267  Uiso   1.00
S5     S     0.36350   0.92390   0.62860   0.01267  Uiso   1.00
S6     S     0.60400   0.15780   0.63250   0.01267  Uiso   1.00
S7     S     0.48490   0.77410   0.53190   0.01267  Uiso   1.00
S8     S     0.27243   0.99197   0.46480   0.01267  Uiso   1.00
S9     S     0.92390   0.36350   0.12860   0.01267  Uiso   1.00
S10    S     0.15780   0.60400   0.13250   0.01267  Uiso   1.00
S11    S     0.77410   0.48490   0.03190   0.01267  Uiso   1.00
S12    S     0.99197   0.27243   0.96480   0.01267  Uiso   1.00
S13    S     0.63650   0.07610   0.37140   0.01267  Uiso   1.00
S14    S     0.39600   0.84220   0.36750   0.01267  Uiso   1.00
S15    S     0.51510   0.22590   0.46810   0.01267  Uiso   1.00
S16    S     0.72757   0.00803   0.53520   0.01267  Uiso   1.00
N1     N     0.12210   0.35770   0.76210   0.01267  Uiso   1.00
N2     N     0.77350   0.68970   0.86440   0.01267  Uiso   1.00
N3     N     0.35160   0.86280   0.00550   0.01267  Uiso   1.00
N4     N     0.64230   0.87790   0.73790   0.01267  Uiso   1.00
N5     N     0.31030   0.22650   0.63560   0.01267  Uiso   1.00
N6     N     0.13720   0.64840   0.49450   0.01267  Uiso   1.00
N7     N     0.87790   0.64230   0.23790   0.01267  Uiso   1.00
N8     N     0.22650   0.31030   0.13560   0.01267  Uiso   1.00
N9     N     0.64840   0.13720   0.99450   0.01267  Uiso   1.00
N10    N     0.35770   0.12210   0.26210   0.01267  Uiso   1.00
N11    N     0.68970   0.77350   0.36440   0.01267  Uiso   1.00
N12    N     0.86280   0.35160   0.50550   0.01267  Uiso   1.00
