data_LUNBEB_clean
_audit_creation_date              2014-07-02
_audit_creation_method            'Materials Studio'
_symmetry_space_group_name_H-M    'P1'
_symmetry_Int_Tables_number       1
_symmetry_cell_setting            triclinic
loop_
_symmetry_equiv_pos_as_xyz
  x,y,z
_cell_length_a                    13.1120
_cell_length_b                    13.1120
_cell_length_c                    18.0300
_cell_angle_alpha                 92.6858
_cell_angle_beta                  92.6858
_cell_angle_gamma                 113.1360
loop_
_atom_site_label
_atom_site_type_symbol
_atom_site_fract_x
_atom_site_fract_y
_atom_site_fract_z
_atom_site_U_iso_or_equiv
_atom_site_adp_type
_atom_site_occupancy
Co1    Co    0.79551   0.71529   0.69440   0.01267  Uiso   1.00
Co2    Co    0.28471   0.20449   0.80560   0.01267  Uiso   1.00
Co3    Co    0.20449   0.28471   0.30560   0.01267  Uiso   1.00
Co4    Co    0.71529   0.79551   0.19440   0.01267  Uiso   1.00
Co5    Co    0.50000   0.00000   0.00000   0.01267  Uiso   1.00
Co6    Co    0.00000   0.50000   0.50000   0.01267  Uiso   1.00
W1     W     0.95188   0.53864   0.90875   0.01267  Uiso   1.00
W2     W     0.06707   0.41733   0.94755   0.01267  Uiso   1.00
W3     W     0.13340   0.62738   0.00202   0.01267  Uiso   1.00
W4     W     0.46136   0.04812   0.59125   0.01267  Uiso   1.00
W5     W     0.58267   0.93293   0.55245   0.01267  Uiso   1.00
W6     W     0.37262   0.86660   0.49798   0.01267  Uiso   1.00
W7     W     0.04812   0.46136   0.09125   0.01267  Uiso   1.00
W8     W     0.93293   0.58267   0.05245   0.01267  Uiso   1.00
W9     W     0.86660   0.37262   0.99798   0.01267  Uiso   1.00
W10    W     0.53864   0.95188   0.40875   0.01267  Uiso   1.00
W11    W     0.41733   0.06707   0.44755   0.01267  Uiso   1.00
W12    W     0.62738   0.13340   0.50202   0.01267  Uiso   1.00
C1     C     0.89510   0.59330   0.80920   0.01267  Uiso   1.00
C2     C     0.14300   0.32180   0.89240   0.01267  Uiso   1.00
C3     C     0.28240   0.77220   0.00690   0.01267  Uiso   1.00
C4     C     0.40670   0.10490   0.69080   0.01267  Uiso   1.00
C5     C     0.67820   0.85700   0.60760   0.01267  Uiso   1.00
C6     C     0.22780   0.71760   0.49310   0.01267  Uiso   1.00
C7     C     0.10490   0.40670   0.19080   0.01267  Uiso   1.00
C8     C     0.85700   0.67820   0.10760   0.01267  Uiso   1.00
C9     C     0.71760   0.22780   0.99310   0.01267  Uiso   1.00
C10    C     0.59330   0.89510   0.30920   0.01267  Uiso   1.00
C11    C     0.32180   0.14300   0.39240   0.01267  Uiso   1.00
C12    C     0.77220   0.28240   0.50690   0.01267  Uiso   1.00
S1     S     0.13960   0.57660   0.86960   0.01267  Uiso   1.00
S2     S     0.01840   0.72900   0.96650   0.01267  Uiso   1.00
S3     S     0.89560   0.34240   0.86550   0.01267  Uiso   1.00
S4     S     0.22820   0.50720   0.03640   0.01267  Uiso   1.00
S5     S     0.42340   0.86040   0.63040   0.01267  Uiso   1.00
S6     S     0.27100   0.98160   0.53350   0.01267  Uiso   1.00
S7     S     0.65760   0.10440   0.63450   0.01267  Uiso   1.00
S8     S     0.49280   0.77180   0.46360   0.01267  Uiso   1.00
S9     S     0.86040   0.42340   0.13040   0.01267  Uiso   1.00
S10    S     0.98160   0.27100   0.03350   0.01267  Uiso   1.00
S11    S     0.10440   0.65760   0.13450   0.01267  Uiso   1.00
S12    S     0.77180   0.49280   0.96360   0.01267  Uiso   1.00
S13    S     0.57660   0.13960   0.36960   0.01267  Uiso   1.00
S14    S     0.72900   0.01840   0.46650   0.01267  Uiso   1.00
S15    S     0.34240   0.89560   0.36550   0.01267  Uiso   1.00
S16    S     0.50720   0.22820   0.53640   0.01267  Uiso   1.00
N1     N     0.85910   0.62410   0.76010   0.01267  Uiso   1.00
N2     N     0.18820   0.27120   0.86350   0.01267  Uiso   1.00
N3     N     0.36410   0.84830   0.00310   0.01267  Uiso   1.00
N4     N     0.37590   0.14090   0.73990   0.01267  Uiso   1.00
N5     N     0.72880   0.81180   0.63650   0.01267  Uiso   1.00
N6     N     0.15170   0.63590   0.49690   0.01267  Uiso   1.00
N7     N     0.14090   0.37590   0.23990   0.01267  Uiso   1.00
N8     N     0.81180   0.72880   0.13650   0.01267  Uiso   1.00
N9     N     0.63590   0.15170   0.99690   0.01267  Uiso   1.00
N10    N     0.62410   0.85910   0.26010   0.01267  Uiso   1.00
N11    N     0.27120   0.18820   0.36350   0.01267  Uiso   1.00
N12    N     0.84830   0.36410   0.50310   0.01267  Uiso   1.00
