data_image0
_cell_length_a       10.685
_cell_length_b       11.821
_cell_length_c       36.625
_cell_angle_alpha    90
_cell_angle_beta     90
_cell_angle_gamma    90

_symmetry_space_group_name_H-M    "P 1"
_symmetry_int_tables_number       1

loop_
  _symmetry_equiv_pos_as_xyz
  'x, y, z'

loop_
  _atom_site_label
  _atom_site_occupancy
  _atom_site_fract_x
  _atom_site_fract_y
  _atom_site_fract_z
  _atom_site_thermal_displace_type
  _atom_site_B_iso_or_equiv
  _atom_site_type_symbol
  Ag1      1.0000 0.40318  0.43974  0.70989  Biso   1.000  Ag
  Ag2      1.0000 0.36050  0.86199  0.55654  Biso   1.000  Ag
  C1       1.0000 0.64480  0.27810  0.57820  Biso   1.000  C
  N1       1.0000 0.62990  0.31450  0.61550  Biso   1.000  N
  N2       1.0000 0.72240  0.29770  0.64080  Biso   1.000  N
  C2       1.0000 0.67290  0.33890  0.67030  Biso   1.000  C
  N3       1.0000 0.55630  0.38170  0.66690  Biso   1.000  N
  C3       1.0000 0.53320  0.36470  0.63160  Biso   1.000  C
  N4       1.0000 0.61200  0.15790  0.57470  Biso   1.000  N
  N5       1.0000 0.69240  0.07740  0.58650  Biso   1.000  N
  C4       1.0000 0.63150  0.98380  0.57970  Biso   1.000  C
  N6       1.0000 0.51180  0.99970  0.56520  Biso   1.000  N
  C5       1.0000 0.50900  0.10990  0.56260  Biso   1.000  C
  C6       1.0000 0.15340  0.58780  0.67380  Biso   1.000  C
  N7       1.0000 0.12730  0.46880  0.66950  Biso   1.000  N
  N8       1.0000 0.21630  0.39110  0.67800  Biso   1.000  N
  C7       1.0000 0.15890  0.29540  0.67070  Biso   1.000  C
  N9       1.0000 0.04150  0.30760  0.65800  Biso   1.000  N
  C8       1.0000 0.02370  0.41690  0.65830  Biso   1.000  C
  N10      1.0000 0.23450  0.63210  0.64560  Biso   1.000  N
  N11      1.0000 0.35620  0.59670  0.64340  Biso   1.000  N
  C9       1.0000 0.39800  0.65730  0.61650  Biso   1.000  C
  N12      1.0000 0.31730  0.72750  0.60150  Biso   1.000  N
  C10      1.0000 0.21290  0.70960  0.61990  Biso   1.000  C
  H1       1.0000 0.59136  0.32146  0.56284  Biso   1.000  H
  H2       1.0000 0.72909  0.28836  0.57092  Biso   1.000  H
  H3       1.0000 0.71670  0.33924  0.69301  Biso   1.000  H
  H4       1.0000 0.45753  0.38589  0.61976  Biso   1.000  H
  H5       1.0000 0.66523  0.91057  0.58444  Biso   1.000  H
  H6       1.0000 0.43975  0.15075  0.55300  Biso   1.000  H
  H7       1.0000 0.07584  0.62968  0.67371  Biso   1.000  H
  H8       1.0000 0.19193  0.60043  0.69733  Biso   1.000  H
  H9       1.0000 0.19692  0.22393  0.67425  Biso   1.000  H
  H10      1.0000 0.94756  0.45354  0.65154  Biso   1.000  H
  H11      1.0000 0.48181  0.64995  0.60812  Biso   1.000  H
  H12      1.0000 0.13518  0.74628  0.61582  Biso   1.000  H
  Ag3      1.0000 0.39405  0.32945  0.35967  Biso   1.000  Ag
  C11      1.0000 0.28150  0.72850  0.27930  Biso   1.000  C
  N13      1.0000 0.15760  0.77330  0.27330  Biso   1.000  N
  N14      1.0000 0.09070  0.74680  0.24290  Biso   1.000  N
  C12      1.0000 0.99820  0.81810  0.24410  Biso   1.000  C
  N15      1.0000 0.00180  0.89040  0.27260  Biso   1.000  N
  C13      1.0000 0.10140  0.86010  0.29060  Biso   1.000  C
  N16      1.0000 0.28150  0.61050  0.28950  Biso   1.000  N
  N17      1.0000 0.25650  0.52980  0.26380  Biso   1.000  N
  C14      1.0000 0.28090  0.43710  0.28250  Biso   1.000  C
  N18      1.0000 0.31910  0.45370  0.31770  Biso   1.000  N
  C15      1.0000 0.31980  0.56350  0.32040  Biso   1.000  C
  C16      1.0000 0.62660  0.49130  0.48960  Biso   1.000  C
  N19      1.0000 0.60260  0.47050  0.45140  Biso   1.000  N
  N20      1.0000 0.68970  0.49780  0.42580  Biso   1.000  N
  C17      1.0000 0.63050  0.47520  0.39590  Biso   1.000  C
  N21      1.0000 0.51340  0.43160  0.40030  Biso   1.000  N
  C18      1.0000 0.49780  0.43190  0.43470  Biso   1.000  C
  N22      1.0000 0.59420  0.60450  0.49870  Biso   1.000  N
  N23      1.0000 0.66530  0.69280  0.48700  Biso   1.000  N
  C19      1.0000 0.60790  0.78230  0.50060  Biso   1.000  C
  N24      1.0000 0.50190  0.75640  0.51920  Biso   1.000  N
  C20      1.0000 0.49700  0.64550  0.51750  Biso   1.000  C
  H13      1.0000 0.32800  0.73644  0.25712  Biso   1.000  H
  H14      1.0000 0.32033  0.77086  0.29793  Biso   1.000  H
  H15      1.0000 0.93357  0.81941  0.22626  Biso   1.000  H
  H16      1.0000 0.12961  0.89432  0.31284  Biso   1.000  H
  H17      1.0000 0.27219  0.36335  0.27230  Biso   1.000  H
  H18      1.0000 0.34466  0.60322  0.34182  Biso   1.000  H
  H19      1.0000 0.57955  0.43883  0.50449  Biso   1.000  H
  H20      1.0000 0.71422  0.47802  0.49496  Biso   1.000  H
  H21      1.0000 0.66610  0.48864  0.37260  Biso   1.000  H
  H22      1.0000 0.42410  0.40783  0.44702  Biso   1.000  H
  H23      1.0000 0.63802  0.85709  0.49760  Biso   1.000  H
  H24      1.0000 0.43331  0.59978  0.52809  Biso   1.000  H
  Ag4      1.0000 0.89405  0.17055  0.64033  Biso   1.000  Ag
  C21      1.0000 0.78150  0.77150  0.72070  Biso   1.000  C
  N25      1.0000 0.65760  0.72670  0.72670  Biso   1.000  N
  N26      1.0000 0.59070  0.75320  0.75710  Biso   1.000  N
  C22      1.0000 0.49820  0.68190  0.75590  Biso   1.000  C
  N27      1.0000 0.50180  0.60960  0.72740  Biso   1.000  N
  C23      1.0000 0.60140  0.63990  0.70940  Biso   1.000  C
  N28      1.0000 0.78150  0.88950  0.71050  Biso   1.000  N
  N29      1.0000 0.75650  0.97020  0.73620  Biso   1.000  N
  C24      1.0000 0.78090  0.06290  0.71750  Biso   1.000  C
  N30      1.0000 0.81910  0.04630  0.68230  Biso   1.000  N
  C25      1.0000 0.81980  0.93650  0.67960  Biso   1.000  C
  C26      1.0000 0.12660  0.00870  0.51040  Biso   1.000  C
  N31      1.0000 0.10260  0.02950  0.54860  Biso   1.000  N
  N32      1.0000 0.18970  0.00220  0.57420  Biso   1.000  N
  C27      1.0000 0.13050  0.02480  0.60410  Biso   1.000  C
  N33      1.0000 0.01340  0.06840  0.59970  Biso   1.000  N
  C28      1.0000 0.99780  0.06810  0.56530  Biso   1.000  C
  N34      1.0000 0.09420  0.89550  0.50130  Biso   1.000  N
  N35      1.0000 0.16530  0.80720  0.51300  Biso   1.000  N
  C29      1.0000 0.10790  0.71770  0.49940  Biso   1.000  C
  N36      1.0000 0.00190  0.74360  0.48080  Biso   1.000  N
  C30      1.0000 0.99700  0.85450  0.48250  Biso   1.000  C
  H25      1.0000 0.82800  0.76356  0.74288  Biso   1.000  H
  H26      1.0000 0.82033  0.72914  0.70207  Biso   1.000  H
  H27      1.0000 0.43357  0.68059  0.77374  Biso   1.000  H
  H28      1.0000 0.62961  0.60568  0.68716  Biso   1.000  H
  H29      1.0000 0.77219  0.13665  0.72770  Biso   1.000  H
  H30      1.0000 0.84466  0.89678  0.65818  Biso   1.000  H
  H31      1.0000 0.07955  0.06117  0.49551  Biso   1.000  H
  H32      1.0000 0.21422  0.02198  0.50504  Biso   1.000  H
  H33      1.0000 0.16610  0.01136  0.62740  Biso   1.000  H
  H34      1.0000 0.92410  0.09217  0.55298  Biso   1.000  H
  H35      1.0000 0.13802  0.64291  0.50240  Biso   1.000  H
  H36      1.0000 0.93331  0.90022  0.47191  Biso   1.000  H
  Ag5      1.0000 0.90318  0.06026  0.29011  Biso   1.000  Ag
  Ag6      1.0000 0.86050  0.63801  0.44346  Biso   1.000  Ag
  C31      1.0000 0.14480  0.22190  0.42180  Biso   1.000  C
  N37      1.0000 0.12990  0.18550  0.38450  Biso   1.000  N
  N38      1.0000 0.22240  0.20230  0.35920  Biso   1.000  N
  C32      1.0000 0.17290  0.16110  0.32970  Biso   1.000  C
  N39      1.0000 0.05630  0.11830  0.33310  Biso   1.000  N
  C33      1.0000 0.03320  0.13530  0.36840  Biso   1.000  C
  N40      1.0000 0.11200  0.34210  0.42530  Biso   1.000  N
  N41      1.0000 0.19240  0.42260  0.41350  Biso   1.000  N
  C34      1.0000 0.13150  0.51620  0.42030  Biso   1.000  C
  N42      1.0000 0.01180  0.50030  0.43480  Biso   1.000  N
  C35      1.0000 0.00900  0.39010  0.43740  Biso   1.000  C
  C36      1.0000 0.65340  0.91220  0.32620  Biso   1.000  C
  N43      1.0000 0.62730  0.03120  0.33050  Biso   1.000  N
  N44      1.0000 0.71630  0.10890  0.32200  Biso   1.000  N
  C37      1.0000 0.65890  0.20460  0.32930  Biso   1.000  C
  N45      1.0000 0.54150  0.19240  0.34200  Biso   1.000  N
  C38      1.0000 0.52370  0.08310  0.34170  Biso   1.000  C
  N46      1.0000 0.73450  0.86790  0.35440  Biso   1.000  N
  N47      1.0000 0.85620  0.90330  0.35660  Biso   1.000  N
  C39      1.0000 0.89800  0.84270  0.38350  Biso   1.000  C
  N48      1.0000 0.81730  0.77250  0.39850  Biso   1.000  N
  C40      1.0000 0.71290  0.79040  0.38010  Biso   1.000  C
  H37      1.0000 0.09136  0.17854  0.43716  Biso   1.000  H
  H38      1.0000 0.22909  0.21164  0.42908  Biso   1.000  H
  H39      1.0000 0.21670  0.16076  0.30699  Biso   1.000  H
  H40      1.0000 0.95753  0.11411  0.38024  Biso   1.000  H
  H41      1.0000 0.16523  0.58943  0.41556  Biso   1.000  H
  H42      1.0000 0.93975  0.34925  0.44700  Biso   1.000  H
  H43      1.0000 0.57584  0.87032  0.32629  Biso   1.000  H
  H44      1.0000 0.69193  0.89957  0.30267  Biso   1.000  H
  H45      1.0000 0.69692  0.27607  0.32575  Biso   1.000  H
  H46      1.0000 0.44756  0.04646  0.34846  Biso   1.000  H
  H47      1.0000 0.98181  0.85005  0.39188  Biso   1.000  H
  H48      1.0000 0.63518  0.75372  0.38418  Biso   1.000  H
  Ag7      1.0000 0.10595  0.67055  0.85967  Biso   1.000  Ag
  C41      1.0000 0.21850  0.27150  0.77930  Biso   1.000  C
  N49      1.0000 0.34240  0.22670  0.77330  Biso   1.000  N
  N50      1.0000 0.40930  0.25320  0.74290  Biso   1.000  N
  C42      1.0000 0.50180  0.18190  0.74410  Biso   1.000  C
  N51      1.0000 0.49820  0.10960  0.77260  Biso   1.000  N
  C43      1.0000 0.39860  0.13990  0.79060  Biso   1.000  C
  N52      1.0000 0.21850  0.38950  0.78950  Biso   1.000  N
  N53      1.0000 0.24350  0.47020  0.76380  Biso   1.000  N
  C44      1.0000 0.21910  0.56290  0.78250  Biso   1.000  C
  N54      1.0000 0.18090  0.54630  0.81770  Biso   1.000  N
  C45      1.0000 0.18020  0.43650  0.82040  Biso   1.000  C
  C46      1.0000 0.87340  0.50870  0.98960  Biso   1.000  C
  N55      1.0000 0.89740  0.52950  0.95140  Biso   1.000  N
  N56      1.0000 0.81030  0.50220  0.92580  Biso   1.000  N
  C47      1.0000 0.86950  0.52480  0.89590  Biso   1.000  C
  N57      1.0000 0.98660  0.56840  0.90030  Biso   1.000  N
  C48      1.0000 0.00220  0.56810  0.93470  Biso   1.000  C
  N58      1.0000 0.90580  0.39550  0.99870  Biso   1.000  N
  N59      1.0000 0.83470  0.30720  0.98700  Biso   1.000  N
  C49      1.0000 0.89210  0.21770  0.00060  Biso   1.000  C
  N60      1.0000 0.99810  0.24360  0.01920  Biso   1.000  N
  C50      1.0000 0.00300  0.35450  0.01750  Biso   1.000  C
  H49      1.0000 0.17200  0.26356  0.75712  Biso   1.000  H
  H50      1.0000 0.17967  0.22914  0.79793  Biso   1.000  H
  H51      1.0000 0.56643  0.18059  0.72626  Biso   1.000  H
  H52      1.0000 0.37039  0.10568  0.81284  Biso   1.000  H
  H53      1.0000 0.22781  0.63665  0.77230  Biso   1.000  H
  H54      1.0000 0.15534  0.39678  0.84182  Biso   1.000  H
  H55      1.0000 0.92045  0.56117  0.00449  Biso   1.000  H
  H56      1.0000 0.78578  0.52198  0.99496  Biso   1.000  H
  H57      1.0000 0.83390  0.51136  0.87260  Biso   1.000  H
  H58      1.0000 0.07590  0.59217  0.94702  Biso   1.000  H
  H59      1.0000 0.86198  0.14291  0.99760  Biso   1.000  H
  H60      1.0000 0.06669  0.40022  0.02809  Biso   1.000  H
  Ag8      1.0000 0.09682  0.56026  0.20989  Biso   1.000  Ag
  Ag9      1.0000 0.13950  0.13801  0.05654  Biso   1.000  Ag
  C51      1.0000 0.85520  0.72190  0.07820  Biso   1.000  C
  N61      1.0000 0.87010  0.68550  0.11550  Biso   1.000  N
  N62      1.0000 0.77760  0.70230  0.14080  Biso   1.000  N
  C52      1.0000 0.82710  0.66110  0.17030  Biso   1.000  C
  N63      1.0000 0.94370  0.61830  0.16690  Biso   1.000  N
  C53      1.0000 0.96680  0.63530  0.13160  Biso   1.000  C
  N64      1.0000 0.88800  0.84210  0.07470  Biso   1.000  N
  N65      1.0000 0.80760  0.92260  0.08650  Biso   1.000  N
  C54      1.0000 0.86850  0.01620  0.07970  Biso   1.000  C
  N66      1.0000 0.98820  0.00030  0.06520  Biso   1.000  N
  C55      1.0000 0.99100  0.89010  0.06260  Biso   1.000  C
  C56      1.0000 0.34660  0.41220  0.17380  Biso   1.000  C
  N67      1.0000 0.37270  0.53120  0.16950  Biso   1.000  N
  N68      1.0000 0.28370  0.60890  0.17800  Biso   1.000  N
  C57      1.0000 0.34110  0.70460  0.17070  Biso   1.000  C
  N69      1.0000 0.45850  0.69240  0.15800  Biso   1.000  N
  C58      1.0000 0.47630  0.58310  0.15830  Biso   1.000  C
  N70      1.0000 0.26550  0.36790  0.14560  Biso   1.000  N
  N71      1.0000 0.14380  0.40330  0.14340  Biso   1.000  N
  C59      1.0000 0.10200  0.34270  0.11650  Biso   1.000  C
  N72      1.0000 0.18270  0.27250  0.10150  Biso   1.000  N
  C60      1.0000 0.28710  0.29040  0.11990  Biso   1.000  C
  H61      1.0000 0.90864  0.67854  0.06284  Biso   1.000  H
  H62      1.0000 0.77091  0.71164  0.07092  Biso   1.000  H
  H63      1.0000 0.78330  0.66076  0.19301  Biso   1.000  H
  H64      1.0000 0.04247  0.61411  0.11976  Biso   1.000  H
  H65      1.0000 0.83477  0.08943  0.08444  Biso   1.000  H
  H66      1.0000 0.06025  0.84925  0.05300  Biso   1.000  H
  H67      1.0000 0.42416  0.37032  0.17371  Biso   1.000  H
  H68      1.0000 0.30807  0.39957  0.19733  Biso   1.000  H
  H69      1.0000 0.30308  0.77607  0.17425  Biso   1.000  H
  H70      1.0000 0.55244  0.54646  0.15154  Biso   1.000  H
  H71      1.0000 0.01819  0.35005  0.10812  Biso   1.000  H
  H72      1.0000 0.36482  0.25372  0.11582  Biso   1.000  H
  Ag10     1.0000 0.59682  0.93974  0.79011  Biso   1.000  Ag
  Ag11     1.0000 0.63950  0.36199  0.94346  Biso   1.000  Ag
  C61      1.0000 0.35520  0.77810  0.92180  Biso   1.000  C
  N73      1.0000 0.37010  0.81450  0.88450  Biso   1.000  N
  N74      1.0000 0.27760  0.79770  0.85920  Biso   1.000  N
  C62      1.0000 0.32710  0.83890  0.82970  Biso   1.000  C
  N75      1.0000 0.44370  0.88170  0.83310  Biso   1.000  N
  C63      1.0000 0.46680  0.86470  0.86840  Biso   1.000  C
  N76      1.0000 0.38800  0.65790  0.92530  Biso   1.000  N
  N77      1.0000 0.30760  0.57740  0.91350  Biso   1.000  N
  C64      1.0000 0.36850  0.48380  0.92030  Biso   1.000  C
  N78      1.0000 0.48820  0.49970  0.93480  Biso   1.000  N
  C65      1.0000 0.49100  0.60990  0.93740  Biso   1.000  C
  C66      1.0000 0.84660  0.08780  0.82620  Biso   1.000  C
  N79      1.0000 0.87270  0.96880  0.83050  Biso   1.000  N
  N80      1.0000 0.78370  0.89110  0.82200  Biso   1.000  N
  C67      1.0000 0.84110  0.79540  0.82930  Biso   1.000  C
  N81      1.0000 0.95850  0.80760  0.84200  Biso   1.000  N
  C68      1.0000 0.97630  0.91690  0.84170  Biso   1.000  C
  N82      1.0000 0.76550  0.13210  0.85440  Biso   1.000  N
  N83      1.0000 0.64380  0.09670  0.85660  Biso   1.000  N
  C69      1.0000 0.60200  0.15730  0.88350  Biso   1.000  C
  N84      1.0000 0.68270  0.22750  0.89850  Biso   1.000  N
  C70      1.0000 0.78710  0.20960  0.88010  Biso   1.000  C
  H73      1.0000 0.40864  0.82146  0.93716  Biso   1.000  H
  H74      1.0000 0.27091  0.78836  0.92908  Biso   1.000  H
  H75      1.0000 0.28330  0.83924  0.80699  Biso   1.000  H
  H76      1.0000 0.54247  0.88589  0.88024  Biso   1.000  H
  H77      1.0000 0.33477  0.41057  0.91556  Biso   1.000  H
  H78      1.0000 0.56025  0.65075  0.94700  Biso   1.000  H
  H79      1.0000 0.92416  0.12968  0.82629  Biso   1.000  H
  H80      1.0000 0.80807  0.10043  0.80267  Biso   1.000  H
  H81      1.0000 0.80308  0.72393  0.82575  Biso   1.000  H
  H82      1.0000 0.05244  0.95354  0.84846  Biso   1.000  H
  H83      1.0000 0.51819  0.14995  0.89188  Biso   1.000  H
  H84      1.0000 0.86482  0.24628  0.88418  Biso   1.000  H
  Ag12     1.0000 0.60595  0.82945  0.14033  Biso   1.000  Ag
  C71      1.0000 0.71850  0.22850  0.22070  Biso   1.000  C
  N85      1.0000 0.84240  0.27330  0.22670  Biso   1.000  N
  N86      1.0000 0.90930  0.24680  0.25710  Biso   1.000  N
  C72      1.0000 0.00180  0.31810  0.25590  Biso   1.000  C
  N87      1.0000 0.99820  0.39040  0.22740  Biso   1.000  N
  C73      1.0000 0.89860  0.36010  0.20940  Biso   1.000  C
  N88      1.0000 0.71850  0.11050  0.21050  Biso   1.000  N
  N89      1.0000 0.74350  0.02980  0.23620  Biso   1.000  N
  C74      1.0000 0.71910  0.93710  0.21750  Biso   1.000  C
  N90      1.0000 0.68090  0.95370  0.18230  Biso   1.000  N
  C75      1.0000 0.68020  0.06350  0.17960  Biso   1.000  C
  C76      1.0000 0.37340  0.99130  0.01040  Biso   1.000  C
  N91      1.0000 0.39740  0.97050  0.04860  Biso   1.000  N
  N92      1.0000 0.31030  0.99780  0.07420  Biso   1.000  N
  C77      1.0000 0.36950  0.97520  0.10410  Biso   1.000  C
  N93      1.0000 0.48660  0.93160  0.09970  Biso   1.000  N
  C78      1.0000 0.50220  0.93190  0.06530  Biso   1.000  C
  N94      1.0000 0.40580  0.10450  0.00130  Biso   1.000  N
  N95      1.0000 0.33470  0.19280  0.01300  Biso   1.000  N
  C79      1.0000 0.39210  0.28230  0.99940  Biso   1.000  C
  N96      1.0000 0.49810  0.25640  0.98080  Biso   1.000  N
  C80      1.0000 0.50300  0.14550  0.98250  Biso   1.000  C
  H85      1.0000 0.67200  0.23644  0.24288  Biso   1.000  H
  H86      1.0000 0.67967  0.27086  0.20207  Biso   1.000  H
  H87      1.0000 0.06643  0.31941  0.27374  Biso   1.000  H
  H88      1.0000 0.87039  0.39432  0.18716  Biso   1.000  H
  H89      1.0000 0.72781  0.86335  0.22770  Biso   1.000  H
  H90      1.0000 0.65534  0.10322  0.15818  Biso   1.000  H
  H91      1.0000 0.42045  0.93883  0.99551  Biso   1.000  H
  H92      1.0000 0.28578  0.97802  0.00504  Biso   1.000  H
  H93      1.0000 0.33390  0.98864  0.12740  Biso   1.000  H
  H94      1.0000 0.57590  0.90783  0.05298  Biso   1.000  H
  H95      1.0000 0.36198  0.35709  0.00240  Biso   1.000  H
  H96      1.0000 0.56669  0.09978  0.97191  Biso   1.000  H
