data_image0
_cell_length_a       9.9045
_cell_length_b       12.3011
_cell_length_c       17.322
_cell_angle_alpha    90
_cell_angle_beta     103.701
_cell_angle_gamma    90

_symmetry_space_group_name_H-M    "P 1"
_symmetry_int_tables_number       1

loop_
  _symmetry_equiv_pos_as_xyz
  'x, y, z'

loop_
  _atom_site_label
  _atom_site_occupancy
  _atom_site_fract_x
  _atom_site_fract_y
  _atom_site_fract_z
  _atom_site_thermal_displace_type
  _atom_site_B_iso_or_equiv
  _atom_site_type_symbol
  Fe1      1.0000 0.75560  0.57730  0.22130  Biso   1.000  Fe
  Fe2      1.0000 0.56250  0.52580  0.37080  Biso   1.000  Fe
  Fe3      1.0000 0.86750  0.35260  0.92470  Biso   1.000  Fe
  Fe4      1.0000 0.03090  0.38960  0.29070  Biso   1.000  Fe
  P1       1.0000 0.30010  0.41420  0.44060  Biso   1.000  P
  P2       1.0000 0.77930  0.84490  0.20420  Biso   1.000  P
  P3       1.0000 0.43780  0.62460  0.19200  Biso   1.000  P
  P4       1.0000 0.91430  0.45770  0.10620  Biso   1.000  P
  O1       1.0000 0.57120  0.61720  0.16250  Biso   1.000  O
  O2       1.0000 0.82720  0.72900  0.23160  Biso   1.000  O
  F1       1.0000 0.71450  0.59380  0.32800  Biso   1.000  F
  F2       1.0000 0.94960  0.53860  0.27880  Biso   1.000  F
  O3       1.0000 0.81070  0.54650  0.11960  Biso   1.000  O
  O4       1.0000 0.80940  0.92320  0.27550  Biso   1.000  O
  O5       1.0000 0.40070  0.46080  0.39580  Biso   1.000  O
  O6       1.0000 0.31600  0.47060  0.52080  Biso   1.000  O
  O7       1.0000 0.86420  0.87970  0.14380  Biso   1.000  O
  O8       1.0000 0.44350  0.54710  0.26210  Biso   1.000  O
  O9       1.0000 0.85360  0.39940  0.02880  Biso   1.000  O
  O10      1.0000 0.32850  0.29270  0.45530  Biso   1.000  O
  O11      1.0000 0.05170  0.51230  0.10290  Biso   1.000  O
  O12      1.0000 0.31730  0.58900  0.12240  Biso   1.000  O
  O13      1.0000 0.40820  0.74000  0.21560  Biso   1.000  O
  O14      1.0000 0.15060  0.43010  0.39300  Biso   1.000  O
  O15      1.0000 0.62410  0.84800  0.16330  Biso   1.000  O
  O16      1.0000 0.94250  0.37530  0.17410  Biso   1.000  O
  N1       1.0000 0.62710  0.60370  0.60370  Biso   1.000  N
  Fe5      1.0000 0.74440  0.07730  0.27870  Biso   1.000  Fe
  Fe6      1.0000 0.93750  0.02580  0.12920  Biso   1.000  Fe
  Fe7      1.0000 0.63250  0.85260  0.57530  Biso   1.000  Fe
  Fe8      1.0000 0.46910  0.88960  0.20930  Biso   1.000  Fe
  P5       1.0000 0.19990  0.91420  0.05940  Biso   1.000  P
  P6       1.0000 0.72070  0.34490  0.29580  Biso   1.000  P
  P7       1.0000 0.06220  0.12460  0.30800  Biso   1.000  P
  P8       1.0000 0.58570  0.95770  0.39380  Biso   1.000  P
  O17      1.0000 0.92880  0.11720  0.33750  Biso   1.000  O
  O18      1.0000 0.67280  0.22900  0.26840  Biso   1.000  O
  F3       1.0000 0.78550  0.09380  0.17200  Biso   1.000  F
  F4       1.0000 0.55040  0.03860  0.22120  Biso   1.000  F
  O19      1.0000 0.68930  0.04650  0.38040  Biso   1.000  O
  O20      1.0000 0.69060  0.42320  0.22450  Biso   1.000  O
  O21      1.0000 0.09930  0.96080  0.10420  Biso   1.000  O
  O22      1.0000 0.18400  0.97060  0.97920  Biso   1.000  O
  O23      1.0000 0.63580  0.37970  0.35620  Biso   1.000  O
  O24      1.0000 0.05650  0.04710  0.23790  Biso   1.000  O
  O25      1.0000 0.64640  0.89940  0.47120  Biso   1.000  O
  O26      1.0000 0.17150  0.79270  0.04470  Biso   1.000  O
  O27      1.0000 0.44830  0.01230  0.39710  Biso   1.000  O
  O28      1.0000 0.18270  0.08900  0.37760  Biso   1.000  O
  O29      1.0000 0.09180  0.24000  0.28440  Biso   1.000  O
  O30      1.0000 0.34940  0.93010  0.10700  Biso   1.000  O
  O31      1.0000 0.87590  0.34800  0.33670  Biso   1.000  O
  O32      1.0000 0.55750  0.87530  0.32590  Biso   1.000  O
  N2       1.0000 0.87290  0.10370  0.89630  Biso   1.000  N
  Fe9      1.0000 0.24440  0.42270  0.77870  Biso   1.000  Fe
  Fe10     1.0000 0.43750  0.47420  0.62920  Biso   1.000  Fe
  Fe11     1.0000 0.13250  0.64740  0.07530  Biso   1.000  Fe
  Fe12     1.0000 0.96910  0.61040  0.70930  Biso   1.000  Fe
  P9       1.0000 0.69990  0.58580  0.55940  Biso   1.000  P
  P10      1.0000 0.22070  0.15510  0.79580  Biso   1.000  P
  P11      1.0000 0.56220  0.37540  0.80800  Biso   1.000  P
  P12      1.0000 0.08570  0.54230  0.89380  Biso   1.000  P
  O33      1.0000 0.42880  0.38280  0.83750  Biso   1.000  O
  O34      1.0000 0.17280  0.27100  0.76840  Biso   1.000  O
  F5       1.0000 0.28550  0.40620  0.67200  Biso   1.000  F
  F6       1.0000 0.05040  0.46140  0.72120  Biso   1.000  F
  O35      1.0000 0.18930  0.45350  0.88040  Biso   1.000  O
  O36      1.0000 0.19060  0.07680  0.72450  Biso   1.000  O
  O37      1.0000 0.59930  0.53920  0.60420  Biso   1.000  O
  O38      1.0000 0.68400  0.52940  0.47920  Biso   1.000  O
  O39      1.0000 0.13580  0.12030  0.85620  Biso   1.000  O
  O40      1.0000 0.55650  0.45290  0.73790  Biso   1.000  O
  O41      1.0000 0.14640  0.60060  0.97120  Biso   1.000  O
  O42      1.0000 0.67150  0.70730  0.54470  Biso   1.000  O
  O43      1.0000 0.94830  0.48770  0.89710  Biso   1.000  O
  O44      1.0000 0.68270  0.41100  0.87760  Biso   1.000  O
  O45      1.0000 0.59180  0.26000  0.78440  Biso   1.000  O
  O46      1.0000 0.84940  0.56990  0.60700  Biso   1.000  O
  O47      1.0000 0.37590  0.15200  0.83670  Biso   1.000  O
  O48      1.0000 0.05750  0.62470  0.82590  Biso   1.000  O
  N3       1.0000 0.37290  0.39630  0.39630  Biso   1.000  N
  Fe13     1.0000 0.25560  0.92270  0.72130  Biso   1.000  Fe
  Fe14     1.0000 0.06250  0.97420  0.87080  Biso   1.000  Fe
  Fe15     1.0000 0.36750  0.14740  0.42470  Biso   1.000  Fe
  Fe16     1.0000 0.53090  0.11040  0.79070  Biso   1.000  Fe
  P13      1.0000 0.80010  0.08580  0.94060  Biso   1.000  P
  P14      1.0000 0.27930  0.65510  0.70420  Biso   1.000  P
  P15      1.0000 0.93780  0.87540  0.69200  Biso   1.000  P
  P16      1.0000 0.41430  0.04230  0.60620  Biso   1.000  P
  O49      1.0000 0.07120  0.88280  0.66250  Biso   1.000  O
  O50      1.0000 0.32720  0.77100  0.73160  Biso   1.000  O
  F7       1.0000 0.21450  0.90620  0.82800  Biso   1.000  F
  F8       1.0000 0.44960  0.96140  0.77880  Biso   1.000  F
  O51      1.0000 0.31070  0.95350  0.61960  Biso   1.000  O
  O52      1.0000 0.30940  0.57680  0.77550  Biso   1.000  O
  O53      1.0000 0.90070  0.03920  0.89580  Biso   1.000  O
  O54      1.0000 0.81600  0.02940  0.02080  Biso   1.000  O
  O55      1.0000 0.36420  0.62030  0.64380  Biso   1.000  O
  O56      1.0000 0.94350  0.95290  0.76210  Biso   1.000  O
  O57      1.0000 0.35360  0.10060  0.52880  Biso   1.000  O
  O58      1.0000 0.82850  0.20730  0.95530  Biso   1.000  O
  O59      1.0000 0.55170  0.98770  0.60290  Biso   1.000  O
  O60      1.0000 0.81730  0.91100  0.62240  Biso   1.000  O
  O61      1.0000 0.90820  0.76000  0.71560  Biso   1.000  O
  O62      1.0000 0.65060  0.06990  0.89300  Biso   1.000  O
  O63      1.0000 0.12410  0.65200  0.66330  Biso   1.000  O
  O64      1.0000 0.44250  0.12470  0.67410  Biso   1.000  O
  N4       1.0000 0.12710  0.89630  0.10370  Biso   1.000  N
