data_LUPYAX_clean
_audit_creation_date              2014-07-02
_audit_creation_method            'Materials Studio'
_symmetry_space_group_name_H-M    'P1'
_symmetry_Int_Tables_number       1
_symmetry_cell_setting            triclinic
loop_
_symmetry_equiv_pos_as_xyz
  x,y,z
_cell_length_a                    12.3416
_cell_length_b                    20.7246
_cell_length_c                    23.2306
_cell_angle_alpha                 113.6030
_cell_angle_beta                  105.4050
_cell_angle_gamma                 90.0000
loop_
_atom_site_label
_atom_site_type_symbol
_atom_site_fract_x
_atom_site_fract_y
_atom_site_fract_z
_atom_site_U_iso_or_equiv
_atom_site_adp_type
_atom_site_occupancy
Zn1    Zn    0.25922   0.80651   0.77026   0.01267  Uiso   1.00
Zn2    Zn    0.00885   0.85999   0.74534   0.01267  Uiso   1.00
Zn3    Zn    0.65331   0.18475   0.67546   0.01267  Uiso   1.00
Zn4    Zn    0.48896   0.69349   0.22974   0.01267  Uiso   1.00
Zn5    Zn    0.26351   0.64001   0.25466   0.01267  Uiso   1.00
Zn6    Zn    0.97785   0.31525   0.32454   0.01267  Uiso   1.00
Zn7    Zn    0.74078   0.19349   0.22974   0.01267  Uiso   1.00
Zn8    Zn    0.99115   0.14001   0.25466   0.01267  Uiso   1.00
Zn9    Zn    0.34669   0.81525   0.32454   0.01267  Uiso   1.00
Zn10   Zn    0.51104   0.30651   0.77026   0.01267  Uiso   1.00
Zn11   Zn    0.73649   0.35999   0.74534   0.01267  Uiso   1.00
Zn12   Zn    0.02215   0.68475   0.67546   0.01267  Uiso   1.00
H1     H     0.40920   0.95750   0.77580   0.01267  Uiso   1.00
H2     H     0.25470   0.13010   0.71000   0.01267  Uiso   1.00
H3     H     0.04180   0.67690   0.50620   0.01267  Uiso   1.00
H4     H     0.31150   0.80990   0.48520   0.01267  Uiso   1.00
H5     H     0.93910   0.97730   0.07640   0.01267  Uiso   1.00
H6     H     0.07650   0.77620   0.79240   0.01267  Uiso   1.00
H7     H     0.63340   0.54250   0.22420   0.01267  Uiso   1.00
H8     H     0.54470   0.36990   0.29000   0.01267  Uiso   1.00
H9     H     0.53560   0.82310   0.49380   0.01267  Uiso   1.00
H10    H     0.82630   0.69010   0.51480   0.01267  Uiso   1.00
H11    H     0.86270   0.52270   0.92360   0.01267  Uiso   1.00
H12    H     0.28410   0.72380   0.20760   0.01267  Uiso   1.00
H13    H     0.59080   0.04250   0.22420   0.01267  Uiso   1.00
H14    H     0.74530   0.86990   0.29000   0.01267  Uiso   1.00
H15    H     0.95820   0.32310   0.49380   0.01267  Uiso   1.00
H16    H     0.68850   0.19010   0.51480   0.01267  Uiso   1.00
H17    H     0.06090   0.02270   0.92360   0.01267  Uiso   1.00
H18    H     0.92350   0.22380   0.20760   0.01267  Uiso   1.00
H19    H     0.36660   0.45750   0.77580   0.01267  Uiso   1.00
H20    H     0.45530   0.63010   0.71000   0.01267  Uiso   1.00
H21    H     0.46440   0.17690   0.50620   0.01267  Uiso   1.00
H22    H     0.17370   0.30990   0.48520   0.01267  Uiso   1.00
H23    H     0.13730   0.47730   0.07640   0.01267  Uiso   1.00
H24    H     0.71590   0.27620   0.79240   0.01267  Uiso   1.00
C1     C     0.19330   0.94480   0.76000   0.01267  Uiso   1.00
C2     C     0.26340   0.99680   0.74920   0.01267  Uiso   1.00
C3     C     0.37760   0.99230   0.76240   0.01267  Uiso   1.00
C4     C     0.44630   0.04170   0.75540   0.01267  Uiso   1.00
C5     C     0.40203   0.09320   0.73546   0.01267  Uiso   1.00
C6     C     0.28690   0.09520   0.72300   0.01267  Uiso   1.00
C7     C     0.22020   0.04950   0.72880   0.01267  Uiso   1.00
C8     C     0.47445   0.14820   0.72890   0.01267  Uiso   1.00
C9     C     0.20910   0.72450   0.37000   0.01267  Uiso   1.00
C10    C     0.19010   0.73160   0.43440   0.01267  Uiso   1.00
C11    C     0.11190   0.69070   0.44200   0.01267  Uiso   1.00
C12    C     0.10210   0.70230   0.50360   0.01267  Uiso   1.00
C13    C     0.17430   0.74770   0.55820   0.01267  Uiso   1.00
C14    C     0.26000   0.78460   0.54960   0.01267  Uiso   1.00
C15    C     0.26000   0.77890   0.48840   0.01267  Uiso   1.00
C16    C     0.16440   0.74980   0.62000   0.01267  Uiso   1.00
C17    C     0.98930   0.88810   0.87040   0.01267  Uiso   1.00
C18    C     0.99218   0.94550   0.93756   0.01267  Uiso   1.00
C19    C     0.96520   0.98710   0.04600   0.01267  Uiso   1.00
C20    C     0.95880   0.93210   0.98560   0.01267  Uiso   1.00
C21    C     0.43330   0.55520   0.24000   0.01267  Uiso   1.00
C22    C     0.51420   0.50320   0.25080   0.01267  Uiso   1.00
C23    C     0.61520   0.50770   0.23760   0.01267  Uiso   1.00
C24    C     0.69090   0.45830   0.24460   0.01267  Uiso   1.00
C25    C     0.66657   0.40680   0.26454   0.01267  Uiso   1.00
C26    C     0.56390   0.40480   0.27700   0.01267  Uiso   1.00
C27    C     0.49140   0.45050   0.27120   0.01267  Uiso   1.00
C28    C     0.74555   0.35180   0.27110   0.01267  Uiso   1.00
C29    C     0.83910   0.77550   0.63000   0.01267  Uiso   1.00
C30    C     0.75570   0.76840   0.56560   0.01267  Uiso   1.00
C31    C     0.66990   0.80930   0.55800   0.01267  Uiso   1.00
C32    C     0.59850   0.79770   0.49640   0.01267  Uiso   1.00
C33    C     0.61610   0.75230   0.44180   0.01267  Uiso   1.00
C34    C     0.71040   0.71540   0.45040   0.01267  Uiso   1.00
C35    C     0.77160   0.72110   0.51160   0.01267  Uiso   1.00
C36    C     0.54440   0.75020   0.38000   0.01267  Uiso   1.00
C37    C     0.11890   0.61190   0.12960   0.01267  Uiso   1.00
C38    C     0.05462   0.55450   0.06244   0.01267  Uiso   1.00
C39    C     0.91920   0.51290   0.95400   0.01267  Uiso   1.00
C40    C     0.97320   0.56790   0.01440   0.01267  Uiso   1.00
C41    C     0.80670   0.05520   0.24000   0.01267  Uiso   1.00
C42    C     0.73660   0.00320   0.25080   0.01267  Uiso   1.00
C43    C     0.62240   0.00770   0.23760   0.01267  Uiso   1.00
C44    C     0.55370   0.95830   0.24460   0.01267  Uiso   1.00
C45    C     0.59797   0.90680   0.26454   0.01267  Uiso   1.00
C46    C     0.71310   0.90480   0.27700   0.01267  Uiso   1.00
C47    C     0.77980   0.95050   0.27120   0.01267  Uiso   1.00
C48    C     0.52555   0.85180   0.27110   0.01267  Uiso   1.00
C49    C     0.79090   0.27550   0.63000   0.01267  Uiso   1.00
C50    C     0.80990   0.26840   0.56560   0.01267  Uiso   1.00
C51    C     0.88810   0.30930   0.55800   0.01267  Uiso   1.00
C52    C     0.89790   0.29770   0.49640   0.01267  Uiso   1.00
C53    C     0.82570   0.25230   0.44180   0.01267  Uiso   1.00
C54    C     0.74000   0.21540   0.45040   0.01267  Uiso   1.00
C55    C     0.74000   0.22110   0.51160   0.01267  Uiso   1.00
C56    C     0.83560   0.25020   0.38000   0.01267  Uiso   1.00
C57    C     0.01070   0.11190   0.12960   0.01267  Uiso   1.00
C58    C     0.00782   0.05450   0.06244   0.01267  Uiso   1.00
C59    C     0.03480   0.01290   0.95400   0.01267  Uiso   1.00
C60    C     0.04120   0.06790   0.01440   0.01267  Uiso   1.00
C61    C     0.56670   0.44480   0.76000   0.01267  Uiso   1.00
C62    C     0.48580   0.49680   0.74920   0.01267  Uiso   1.00
C63    C     0.38480   0.49230   0.76240   0.01267  Uiso   1.00
C64    C     0.30910   0.54170   0.75540   0.01267  Uiso   1.00
C65    C     0.33343   0.59320   0.73546   0.01267  Uiso   1.00
C66    C     0.43610   0.59520   0.72300   0.01267  Uiso   1.00
C67    C     0.50860   0.54950   0.72880   0.01267  Uiso   1.00
C68    C     0.25445   0.64820   0.72890   0.01267  Uiso   1.00
C69    C     0.16090   0.22450   0.37000   0.01267  Uiso   1.00
C70    C     0.24430   0.23160   0.43440   0.01267  Uiso   1.00
C71    C     0.33010   0.19070   0.44200   0.01267  Uiso   1.00
C72    C     0.40150   0.20230   0.50360   0.01267  Uiso   1.00
C73    C     0.38390   0.24770   0.55820   0.01267  Uiso   1.00
C74    C     0.28960   0.28460   0.54960   0.01267  Uiso   1.00
C75    C     0.22840   0.27890   0.48840   0.01267  Uiso   1.00
C76    C     0.45560   0.24980   0.62000   0.01267  Uiso   1.00
C77    C     0.88110   0.38810   0.87040   0.01267  Uiso   1.00
C78    C     0.94538   0.44550   0.93756   0.01267  Uiso   1.00
C79    C     0.08080   0.48710   0.04600   0.01267  Uiso   1.00
C80    C     0.02680   0.43210   0.98560   0.01267  Uiso   1.00
Cl1    Cl    0.58810   0.03110   0.77000   0.01267  Uiso   1.00
Cl2    Cl    0.08120   0.06700   0.72260   0.01267  Uiso   1.00
Cl3    Cl    0.98385   0.64630   0.36890   0.01267  Uiso   1.00
Cl4    Cl    0.32070   0.87710   0.62060   0.01267  Uiso   1.00
Cl5    Cl    0.90073   0.84822   0.97126   0.01267  Uiso   1.00
Cl6    Cl    0.81810   0.46890   0.23000   0.01267  Uiso   1.00
Cl7    Cl    0.35860   0.43300   0.27740   0.01267  Uiso   1.00
Cl8    Cl    0.61495   0.85370   0.63110   0.01267  Uiso   1.00
Cl9    Cl    0.70010   0.62290   0.37940   0.01267  Uiso   1.00
Cl10   Cl    0.92947   0.65178   0.02874   0.01267  Uiso   1.00
Cl11   Cl    0.41190   0.96890   0.23000   0.01267  Uiso   1.00
Cl12   Cl    0.91880   0.93300   0.27740   0.01267  Uiso   1.00
Cl13   Cl    0.01615   0.35370   0.63110   0.01267  Uiso   1.00
Cl14   Cl    0.67930   0.12290   0.37940   0.01267  Uiso   1.00
Cl15   Cl    0.09927   0.15178   0.02874   0.01267  Uiso   1.00
Cl16   Cl    0.18190   0.53110   0.77000   0.01267  Uiso   1.00
Cl17   Cl    0.64140   0.56700   0.72260   0.01267  Uiso   1.00
Cl18   Cl    0.38505   0.14630   0.36890   0.01267  Uiso   1.00
Cl19   Cl    0.29990   0.37710   0.62060   0.01267  Uiso   1.00
Cl20   Cl    0.07053   0.34822   0.97126   0.01267  Uiso   1.00
O1     O     0.24327   0.91660   0.79614   0.01267  Uiso   1.00
O2     O     0.08893   0.92920   0.72846   0.01267  Uiso   1.00
O3     O     0.45339   0.20840   0.75638   0.01267  Uiso   1.00
O4     O     0.54901   0.12930   0.70102   0.01267  Uiso   1.00
O5     O     0.19932   0.66030   0.32744   0.01267  Uiso   1.00
O6     O     0.22832   0.77880   0.36284   0.01267  Uiso   1.00
O7     O     0.23272   0.79130   0.67404   0.01267  Uiso   1.00
O8     O     0.08290   0.70670   0.61460   0.01267  Uiso   1.00
O9     O     0.00681   0.82840   0.86362   0.01267  Uiso   1.00
O10    O     0.97269   0.91270   0.82818   0.01267  Uiso   1.00
O11    O     0.08577   0.78010   0.75274   0.01267  Uiso   1.00
O12    O     0.44713   0.58340   0.20386   0.01267  Uiso   1.00
O13    O     0.36047   0.57080   0.27154   0.01267  Uiso   1.00
O14    O     0.69701   0.29160   0.24362   0.01267  Uiso   1.00
O15    O     0.84799   0.37070   0.29898   0.01267  Uiso   1.00
O16    O     0.87188   0.83970   0.67256   0.01267  Uiso   1.00
O17    O     0.86548   0.72120   0.63716   0.01267  Uiso   1.00
O18    O     0.55868   0.70870   0.32596   0.01267  Uiso   1.00
O19    O     0.46830   0.79330   0.38540   0.01267  Uiso   1.00
O20    O     0.14319   0.67160   0.13638   0.01267  Uiso   1.00
O21    O     0.14451   0.58730   0.17182   0.01267  Uiso   1.00
O22    O     0.33303   0.71990   0.24726   0.01267  Uiso   1.00
O23    O     0.75673   0.08340   0.20386   0.01267  Uiso   1.00
O24    O     0.91107   0.07080   0.27154   0.01267  Uiso   1.00
O25    O     0.54661   0.79160   0.24362   0.01267  Uiso   1.00
O26    O     0.45099   0.87070   0.29898   0.01267  Uiso   1.00
O27    O     0.80068   0.33970   0.67256   0.01267  Uiso   1.00
O28    O     0.77168   0.22120   0.63716   0.01267  Uiso   1.00
O29    O     0.76728   0.20870   0.32596   0.01267  Uiso   1.00
O30    O     0.91710   0.29330   0.38540   0.01267  Uiso   1.00
O31    O     0.99319   0.17160   0.13638   0.01267  Uiso   1.00
O32    O     0.02731   0.08730   0.17182   0.01267  Uiso   1.00
O33    O     0.91423   0.21990   0.24726   0.01267  Uiso   1.00
O34    O     0.55287   0.41660   0.79614   0.01267  Uiso   1.00
O35    O     0.63953   0.42920   0.72846   0.01267  Uiso   1.00
O36    O     0.30299   0.70840   0.75638   0.01267  Uiso   1.00
O37    O     0.15201   0.62930   0.70102   0.01267  Uiso   1.00
O38    O     0.12812   0.16030   0.32744   0.01267  Uiso   1.00
O39    O     0.13452   0.27880   0.36284   0.01267  Uiso   1.00
O40    O     0.44132   0.29130   0.67404   0.01267  Uiso   1.00
O41    O     0.53170   0.20670   0.61460   0.01267  Uiso   1.00
O42    O     0.85681   0.32840   0.86362   0.01267  Uiso   1.00
O43    O     0.85549   0.41270   0.82818   0.01267  Uiso   1.00
O44    O     0.66697   0.28010   0.75274   0.01267  Uiso   1.00
