data_LUQGAG_clean
_audit_creation_date              2014-07-02
_audit_creation_method            'Materials Studio'
_symmetry_space_group_name_H-M    'P1'
_symmetry_Int_Tables_number       1
_symmetry_cell_setting            triclinic
loop_
_symmetry_equiv_pos_as_xyz
  x,y,z
_cell_length_a                    12.4580
_cell_length_b                    17.3145
_cell_length_c                    17.3145
_cell_angle_alpha                 82.5637
_cell_angle_beta                  68.9148
_cell_angle_gamma                 68.9148
loop_
_atom_site_label
_atom_site_type_symbol
_atom_site_fract_x
_atom_site_fract_y
_atom_site_fract_z
_atom_site_U_iso_or_equiv
_atom_site_adp_type
_atom_site_occupancy
Co1    Co    0.16159   0.17682   0.75000   0.01267  Uiso   1.00
Co2    Co    0.58841   0.32318   0.75000   0.01267  Uiso   1.00
Co3    Co    0.41159   0.25000   0.67682   0.01267  Uiso   1.00
Co4    Co    0.83841   0.25000   0.82318   0.01267  Uiso   1.00
Co5    Co    0.83841   0.82318   0.25000   0.01267  Uiso   1.00
Co6    Co    0.41159   0.67682   0.25000   0.01267  Uiso   1.00
Co7    Co    0.58841   0.75000   0.32318   0.01267  Uiso   1.00
Co8    Co    0.16159   0.75000   0.17682   0.01267  Uiso   1.00
H1     H     0.18120   0.01690   0.66150   0.01267  Uiso   1.00
H2     H     0.82100   0.10570   0.73810   0.01267  Uiso   1.00
H3     H     0.80640   0.01590   0.65990   0.01267  Uiso   1.00
H4     H     0.35960   0.48310   0.83850   0.01267  Uiso   1.00
H5     H     0.16480   0.39430   0.76190   0.01267  Uiso   1.00
H6     H     0.98220   0.48410   0.84010   0.01267  Uiso   1.00
H7     H     0.34270   0.33850   0.51690   0.01267  Uiso   1.00
H8     H     0.05910   0.26190   0.60570   0.01267  Uiso   1.00
H9     H     0.96630   0.34010   0.51590   0.01267  Uiso   1.00
H10    H     0.69810   0.16150   0.98310   0.01267  Uiso   1.00
H11    H     0.42670   0.23810   0.89430   0.01267  Uiso   1.00
H12    H     0.32230   0.15990   0.98410   0.01267  Uiso   1.00
H13    H     0.64040   0.16150   0.51690   0.01267  Uiso   1.00
H14    H     0.83520   0.23810   0.60570   0.01267  Uiso   1.00
H15    H     0.01780   0.15990   0.51590   0.01267  Uiso   1.00
H16    H     0.81880   0.33850   0.98310   0.01267  Uiso   1.00
H17    H     0.17900   0.26190   0.89430   0.01267  Uiso   1.00
H18    H     0.19360   0.34010   0.98410   0.01267  Uiso   1.00
H19    H     0.30190   0.01690   0.83850   0.01267  Uiso   1.00
H20    H     0.57330   0.10570   0.76190   0.01267  Uiso   1.00
H21    H     0.67770   0.01590   0.84010   0.01267  Uiso   1.00
H22    H     0.65730   0.48310   0.66150   0.01267  Uiso   1.00
H23    H     0.94090   0.39430   0.73810   0.01267  Uiso   1.00
H24    H     0.03370   0.48410   0.65990   0.01267  Uiso   1.00
H25    H     0.81880   0.98310   0.33850   0.01267  Uiso   1.00
H26    H     0.17900   0.89430   0.26190   0.01267  Uiso   1.00
H27    H     0.19360   0.98410   0.34010   0.01267  Uiso   1.00
H28    H     0.64040   0.51690   0.16150   0.01267  Uiso   1.00
H29    H     0.83520   0.60570   0.23810   0.01267  Uiso   1.00
H30    H     0.01780   0.51590   0.15990   0.01267  Uiso   1.00
H31    H     0.65730   0.66150   0.48310   0.01267  Uiso   1.00
H32    H     0.94090   0.73810   0.39430   0.01267  Uiso   1.00
H33    H     0.03370   0.65990   0.48410   0.01267  Uiso   1.00
H34    H     0.30190   0.83850   0.01690   0.01267  Uiso   1.00
H35    H     0.57330   0.76190   0.10570   0.01267  Uiso   1.00
H36    H     0.67770   0.84010   0.01590   0.01267  Uiso   1.00
H37    H     0.35960   0.83850   0.48310   0.01267  Uiso   1.00
H38    H     0.16480   0.76190   0.39430   0.01267  Uiso   1.00
H39    H     0.98220   0.84010   0.48410   0.01267  Uiso   1.00
H40    H     0.18120   0.66150   0.01690   0.01267  Uiso   1.00
H41    H     0.82100   0.73810   0.10570   0.01267  Uiso   1.00
H42    H     0.80640   0.65990   0.01590   0.01267  Uiso   1.00
H43    H     0.69810   0.98310   0.16150   0.01267  Uiso   1.00
H44    H     0.42670   0.89430   0.23810   0.01267  Uiso   1.00
H45    H     0.32230   0.98410   0.15990   0.01267  Uiso   1.00
H46    H     0.34270   0.51690   0.33850   0.01267  Uiso   1.00
H47    H     0.05910   0.60570   0.26190   0.01267  Uiso   1.00
H48    H     0.96630   0.51590   0.34010   0.01267  Uiso   1.00
H49    H     0.15120   0.95290   0.54710   0.01267  Uiso   1.00
H50    H     0.79810   0.92700   0.57300   0.01267  Uiso   1.00
H51    H     0.15120   0.54710   0.95290   0.01267  Uiso   1.00
H52    H     0.79810   0.57300   0.92700   0.01267  Uiso   1.00
H53    H     0.19830   0.45290   0.45290   0.01267  Uiso   1.00
H54    H     0.87110   0.42700   0.42700   0.01267  Uiso   1.00
H55    H     0.60410   0.04710   0.04710   0.01267  Uiso   1.00
H56    H     0.22510   0.07300   0.07300   0.01267  Uiso   1.00
H57    H     0.84880   0.04710   0.45290   0.01267  Uiso   1.00
H58    H     0.20190   0.07300   0.42700   0.01267  Uiso   1.00
H59    H     0.84880   0.45290   0.04710   0.01267  Uiso   1.00
H60    H     0.20190   0.42700   0.07300   0.01267  Uiso   1.00
H61    H     0.39590   0.95290   0.95290   0.01267  Uiso   1.00
H62    H     0.77490   0.92700   0.92700   0.01267  Uiso   1.00
H63    H     0.80170   0.54710   0.54710   0.01267  Uiso   1.00
H64    H     0.12890   0.57300   0.57300   0.01267  Uiso   1.00
C1     C     0.10010   0.04930   0.68710   0.01267  Uiso   1.00
C2     C     0.99950   0.03440   0.68200   0.01267  Uiso   1.00
C3     C     0.90260   0.09740   0.72900   0.01267  Uiso   1.00
C4     C     0.98980   0.98450   0.62150   0.01267  Uiso   1.00
C5     C     0.87860   0.98160   0.62340   0.01267  Uiso   1.00
C6     C     0.33650   0.45070   0.81290   0.01267  Uiso   1.00
C7     C     0.21590   0.46560   0.81800   0.01267  Uiso   1.00
C8     C     0.22900   0.40260   0.77100   0.01267  Uiso   1.00
C9     C     0.09580   0.51550   0.87850   0.01267  Uiso   1.00
C10    C     0.98360   0.51840   0.87660   0.01267  Uiso   1.00
C11    C     0.28720   0.31290   0.54930   0.01267  Uiso   1.00
C12    C     0.18150   0.31800   0.53440   0.01267  Uiso   1.00
C13    C     0.13160   0.27100   0.59740   0.01267  Uiso   1.00
C14    C     0.11130   0.37850   0.48450   0.01267  Uiso   1.00
C15    C     0.00200   0.37660   0.48160   0.01267  Uiso   1.00
C16    C     0.64940   0.18710   0.95070   0.01267  Uiso   1.00
C17    C     0.53390   0.18200   0.96560   0.01267  Uiso   1.00
C18    C     0.50000   0.22900   0.90260   0.01267  Uiso   1.00
C19    C     0.47430   0.12150   0.01550   0.01267  Uiso   1.00
C20    C     0.36020   0.12340   0.01840   0.01267  Uiso   1.00
C21    C     0.66350   0.18710   0.54930   0.01267  Uiso   1.00
C22    C     0.78410   0.18200   0.53440   0.01267  Uiso   1.00
C23    C     0.77100   0.22900   0.59740   0.01267  Uiso   1.00
C24    C     0.90420   0.12150   0.48450   0.01267  Uiso   1.00
C25    C     0.01640   0.12340   0.48160   0.01267  Uiso   1.00
C26    C     0.89990   0.31290   0.95070   0.01267  Uiso   1.00
C27    C     0.00050   0.31800   0.96560   0.01267  Uiso   1.00
C28    C     0.09740   0.27100   0.90260   0.01267  Uiso   1.00
C29    C     0.01020   0.37850   0.01550   0.01267  Uiso   1.00
C30    C     0.12140   0.37660   0.01840   0.01267  Uiso   1.00
C31    C     0.35060   0.04930   0.81290   0.01267  Uiso   1.00
C32    C     0.46610   0.03440   0.81800   0.01267  Uiso   1.00
C33    C     0.50000   0.09740   0.77100   0.01267  Uiso   1.00
C34    C     0.52570   0.98450   0.87850   0.01267  Uiso   1.00
C35    C     0.63980   0.98160   0.87660   0.01267  Uiso   1.00
C36    C     0.71280   0.45070   0.68710   0.01267  Uiso   1.00
C37    C     0.81850   0.46560   0.68200   0.01267  Uiso   1.00
C38    C     0.86840   0.40260   0.72900   0.01267  Uiso   1.00
C39    C     0.88870   0.51550   0.62150   0.01267  Uiso   1.00
C40    C     0.99800   0.51840   0.62340   0.01267  Uiso   1.00
C41    C     0.89990   0.95070   0.31290   0.01267  Uiso   1.00
C42    C     0.00050   0.96560   0.31800   0.01267  Uiso   1.00
C43    C     0.09740   0.90260   0.27100   0.01267  Uiso   1.00
C44    C     0.01020   0.01550   0.37850   0.01267  Uiso   1.00
C45    C     0.12140   0.01840   0.37660   0.01267  Uiso   1.00
C46    C     0.66350   0.54930   0.18710   0.01267  Uiso   1.00
C47    C     0.78410   0.53440   0.18200   0.01267  Uiso   1.00
C48    C     0.77100   0.59740   0.22900   0.01267  Uiso   1.00
C49    C     0.90420   0.48450   0.12150   0.01267  Uiso   1.00
C50    C     0.01640   0.48160   0.12340   0.01267  Uiso   1.00
C51    C     0.71280   0.68710   0.45070   0.01267  Uiso   1.00
C52    C     0.81850   0.68200   0.46560   0.01267  Uiso   1.00
C53    C     0.86840   0.72900   0.40260   0.01267  Uiso   1.00
C54    C     0.88870   0.62150   0.51550   0.01267  Uiso   1.00
C55    C     0.99800   0.62340   0.51840   0.01267  Uiso   1.00
C56    C     0.35060   0.81290   0.04930   0.01267  Uiso   1.00
C57    C     0.46610   0.81800   0.03440   0.01267  Uiso   1.00
C58    C     0.50000   0.77100   0.09740   0.01267  Uiso   1.00
C59    C     0.52570   0.87850   0.98450   0.01267  Uiso   1.00
C60    C     0.63980   0.87660   0.98160   0.01267  Uiso   1.00
C61    C     0.33650   0.81290   0.45070   0.01267  Uiso   1.00
C62    C     0.21590   0.81800   0.46560   0.01267  Uiso   1.00
C63    C     0.22900   0.77100   0.40260   0.01267  Uiso   1.00
C64    C     0.09580   0.87850   0.51550   0.01267  Uiso   1.00
C65    C     0.98360   0.87660   0.51840   0.01267  Uiso   1.00
C66    C     0.10010   0.68710   0.04930   0.01267  Uiso   1.00
C67    C     0.99950   0.68200   0.03440   0.01267  Uiso   1.00
C68    C     0.90260   0.72900   0.09740   0.01267  Uiso   1.00
C69    C     0.98980   0.62150   0.98450   0.01267  Uiso   1.00
C70    C     0.87860   0.62340   0.98160   0.01267  Uiso   1.00
C71    C     0.64940   0.95070   0.18710   0.01267  Uiso   1.00
C72    C     0.53390   0.96560   0.18200   0.01267  Uiso   1.00
C73    C     0.50000   0.90260   0.22900   0.01267  Uiso   1.00
C74    C     0.47430   0.01550   0.12150   0.01267  Uiso   1.00
C75    C     0.36020   0.01840   0.12340   0.01267  Uiso   1.00
C76    C     0.28720   0.54930   0.31290   0.01267  Uiso   1.00
C77    C     0.18150   0.53440   0.31800   0.01267  Uiso   1.00
C78    C     0.13160   0.59740   0.27100   0.01267  Uiso   1.00
C79    C     0.11130   0.48450   0.37850   0.01267  Uiso   1.00
C80    C     0.00200   0.48160   0.37660   0.01267  Uiso   1.00
C81    C     0.10470   0.92110   0.57890   0.01267  Uiso   1.00
C82    C     0.87300   0.92810   0.57190   0.01267  Uiso   1.00
C83    C     0.10470   0.57890   0.92110   0.01267  Uiso   1.00
C84    C     0.87300   0.57190   0.92810   0.01267  Uiso   1.00
C85    C     0.18360   0.42110   0.42110   0.01267  Uiso   1.00
C86    C     0.94490   0.42810   0.42810   0.01267  Uiso   1.00
C87    C     0.52580   0.07890   0.07890   0.01267  Uiso   1.00
C88    C     0.30110   0.07190   0.07190   0.01267  Uiso   1.00
C89    C     0.89530   0.07890   0.42110   0.01267  Uiso   1.00
C90    C     0.12700   0.07190   0.42810   0.01267  Uiso   1.00
C91    C     0.89530   0.42110   0.07890   0.01267  Uiso   1.00
C92    C     0.12700   0.42810   0.07190   0.01267  Uiso   1.00
C93    C     0.47420   0.92110   0.92110   0.01267  Uiso   1.00
C94    C     0.69890   0.92810   0.92810   0.01267  Uiso   1.00
C95    C     0.81640   0.57890   0.57890   0.01267  Uiso   1.00
C96    C     0.05510   0.57190   0.57190   0.01267  Uiso   1.00
N1     N     0.06480   0.11580   0.73320   0.01267  Uiso   1.00
N2     N     0.94090   0.14540   0.76000   0.01267  Uiso   1.00
N3     N     0.41380   0.38420   0.76680   0.01267  Uiso   1.00
N4     N     0.34630   0.35460   0.74000   0.01267  Uiso   1.00
N5     N     0.29800   0.26680   0.61580   0.01267  Uiso   1.00
N6     N     0.20090   0.24000   0.64540   0.01267  Uiso   1.00
N7     N     0.68060   0.23320   0.88420   0.01267  Uiso   1.00
N8     N     0.58630   0.26000   0.85460   0.01267  Uiso   1.00
N9     N     0.58620   0.23320   0.61580   0.01267  Uiso   1.00
N10    N     0.65370   0.26000   0.64540   0.01267  Uiso   1.00
N11    N     0.93520   0.26680   0.88420   0.01267  Uiso   1.00
N12    N     0.05910   0.24000   0.85460   0.01267  Uiso   1.00
N13    N     0.31940   0.11580   0.76680   0.01267  Uiso   1.00
N14    N     0.41370   0.14540   0.74000   0.01267  Uiso   1.00
N15    N     0.70200   0.38420   0.73320   0.01267  Uiso   1.00
N16    N     0.79910   0.35460   0.76000   0.01267  Uiso   1.00
N17    N     0.93520   0.88420   0.26680   0.01267  Uiso   1.00
N18    N     0.05910   0.85460   0.24000   0.01267  Uiso   1.00
N19    N     0.58620   0.61580   0.23320   0.01267  Uiso   1.00
N20    N     0.65370   0.64540   0.26000   0.01267  Uiso   1.00
N21    N     0.70200   0.73320   0.38420   0.01267  Uiso   1.00
N22    N     0.79910   0.76000   0.35460   0.01267  Uiso   1.00
N23    N     0.31940   0.76680   0.11580   0.01267  Uiso   1.00
N24    N     0.41370   0.74000   0.14540   0.01267  Uiso   1.00
N25    N     0.41380   0.76680   0.38420   0.01267  Uiso   1.00
N26    N     0.34630   0.74000   0.35460   0.01267  Uiso   1.00
N27    N     0.06480   0.73320   0.11580   0.01267  Uiso   1.00
N28    N     0.94090   0.76000   0.14540   0.01267  Uiso   1.00
N29    N     0.68060   0.88420   0.23320   0.01267  Uiso   1.00
N30    N     0.58630   0.85460   0.26000   0.01267  Uiso   1.00
N31    N     0.29800   0.61580   0.26680   0.01267  Uiso   1.00
N32    N     0.20090   0.64540   0.24000   0.01267  Uiso   1.00
