data_LUSHUD_clean
_audit_creation_date              2014-07-02
_audit_creation_method            'Materials Studio'
_symmetry_space_group_name_H-M    'P1'
_symmetry_Int_Tables_number       1
_symmetry_cell_setting            triclinic
loop_
_symmetry_equiv_pos_as_xyz
  x,y,z
_cell_length_a                    12.5640
_cell_length_b                    12.6461
_cell_length_c                    12.6461
_cell_angle_alpha                 91.6371
_cell_angle_beta                  113.8700
_cell_angle_gamma                 113.8700
loop_
_atom_site_label
_atom_site_type_symbol
_atom_site_fract_x
_atom_site_fract_y
_atom_site_fract_z
_atom_site_U_iso_or_equiv
_atom_site_adp_type
_atom_site_occupancy
Mn1    Mn    0.25000   0.69610   0.30390   0.01267  Uiso   1.00
Mn2    Mn    0.75000   0.30390   0.69610   0.01267  Uiso   1.00
Mn3    Mn    0.00000   0.50000   0.00000   0.01267  Uiso   1.00
Mn4    Mn    0.50000   0.00000   0.50000   0.01267  Uiso   1.00
H1     H     0.50480   0.57720   0.34540   0.01267  Uiso   1.00
H2     H     0.60060   0.46710   0.45090   0.01267  Uiso   1.00
H3     H     0.27690   0.16760   0.24600   0.01267  Uiso   1.00
H4     H     0.18760   0.27710   0.13430   0.01267  Uiso   1.00
H5     H     0.13660   0.78510   0.96430   0.01267  Uiso   1.00
H6     H     0.09130   0.93910   0.90730   0.01267  Uiso   1.00
H7     H     0.95340   0.92620   0.14340   0.01267  Uiso   1.00
H8     H     0.00450   0.77460   0.19900   0.01267  Uiso   1.00
H9     H     0.99520   0.65460   0.42280   0.01267  Uiso   1.00
H10    H     0.89940   0.54910   0.53290   0.01267  Uiso   1.00
H11    H     0.22310   0.75400   0.83240   0.01267  Uiso   1.00
H12    H     0.31240   0.86570   0.72290   0.01267  Uiso   1.00
H13    H     0.36340   0.03570   0.21490   0.01267  Uiso   1.00
H14    H     0.40870   0.09270   0.06090   0.01267  Uiso   1.00
H15    H     0.54660   0.85660   0.07380   0.01267  Uiso   1.00
H16    H     0.49550   0.80100   0.22540   0.01267  Uiso   1.00
H17    H     0.49520   0.42280   0.65460   0.01267  Uiso   1.00
H18    H     0.39940   0.53290   0.54910   0.01267  Uiso   1.00
H19    H     0.72310   0.83240   0.75400   0.01267  Uiso   1.00
H20    H     0.81240   0.72290   0.86570   0.01267  Uiso   1.00
H21    H     0.86340   0.21490   0.03570   0.01267  Uiso   1.00
H22    H     0.90870   0.06090   0.09270   0.01267  Uiso   1.00
H23    H     0.04660   0.07380   0.85660   0.01267  Uiso   1.00
H24    H     0.99550   0.22540   0.80100   0.01267  Uiso   1.00
H25    H     0.00480   0.34540   0.57720   0.01267  Uiso   1.00
H26    H     0.10060   0.45090   0.46710   0.01267  Uiso   1.00
H27    H     0.77690   0.24600   0.16760   0.01267  Uiso   1.00
H28    H     0.68760   0.13430   0.27710   0.01267  Uiso   1.00
H29    H     0.63660   0.96430   0.78510   0.01267  Uiso   1.00
H30    H     0.59130   0.90730   0.93910   0.01267  Uiso   1.00
H31    H     0.45340   0.14340   0.92620   0.01267  Uiso   1.00
H32    H     0.50450   0.19900   0.77460   0.01267  Uiso   1.00
C1     C     0.26840   0.51040   0.16720   0.01267  Uiso   1.00
C2     C     0.33390   0.43895   0.22965   0.01267  Uiso   1.00
C3     C     0.45890   0.49470   0.32490   0.01267  Uiso   1.00
C4     C     0.51580   0.42870   0.38950   0.01267  Uiso   1.00
C5     C     0.44670   0.30550   0.36290   0.01267  Uiso   1.00
C6     C     0.32340   0.25010   0.26630   0.01267  Uiso   1.00
C7     C     0.26930   0.31590   0.20010   0.01267  Uiso   1.00
C8     C     0.50630   0.23640   0.44100   0.01267  Uiso   1.00
C9     C     0.10090   0.81520   0.00140   0.01267  Uiso   1.00
C10    C     0.07270   0.90690   0.96650   0.01267  Uiso   1.00
C11    C     0.01660   0.95190   0.01890   0.01267  Uiso   1.00
C12    C     0.99160   0.89950   0.10650   0.01267  Uiso   1.00
C13    C     0.02220   0.80850   0.14010   0.01267  Uiso   1.00
C14    C     0.23160   0.83280   0.48960   0.01267  Uiso   1.00
C15    C     0.16610   0.77035   0.56105   0.01267  Uiso   1.00
C16    C     0.04110   0.67510   0.50530   0.01267  Uiso   1.00
C17    C     0.98420   0.61050   0.57130   0.01267  Uiso   1.00
C18    C     0.05330   0.63710   0.69450   0.01267  Uiso   1.00
C19    C     0.17660   0.73370   0.74990   0.01267  Uiso   1.00
C20    C     0.23070   0.79990   0.68410   0.01267  Uiso   1.00
C21    C     0.99370   0.55900   0.76360   0.01267  Uiso   1.00
C22    C     0.39910   0.99860   0.18480   0.01267  Uiso   1.00
C23    C     0.42730   0.03350   0.09310   0.01267  Uiso   1.00
C24    C     0.48340   0.98110   0.04810   0.01267  Uiso   1.00
C25    C     0.50840   0.89350   0.10050   0.01267  Uiso   1.00
C26    C     0.47780   0.85990   0.19150   0.01267  Uiso   1.00
C27    C     0.73160   0.48960   0.83280   0.01267  Uiso   1.00
C28    C     0.66610   0.56105   0.77035   0.01267  Uiso   1.00
C29    C     0.54110   0.50530   0.67510   0.01267  Uiso   1.00
C30    C     0.48420   0.57130   0.61050   0.01267  Uiso   1.00
C31    C     0.55330   0.69450   0.63710   0.01267  Uiso   1.00
C32    C     0.67660   0.74990   0.73370   0.01267  Uiso   1.00
C33    C     0.73070   0.68410   0.79990   0.01267  Uiso   1.00
C34    C     0.49370   0.76360   0.55900   0.01267  Uiso   1.00
C35    C     0.89910   0.18480   0.99860   0.01267  Uiso   1.00
C36    C     0.92730   0.09310   0.03350   0.01267  Uiso   1.00
C37    C     0.98340   0.04810   0.98110   0.01267  Uiso   1.00
C38    C     0.00840   0.10050   0.89350   0.01267  Uiso   1.00
C39    C     0.97780   0.19150   0.85990   0.01267  Uiso   1.00
C40    C     0.76840   0.16720   0.51040   0.01267  Uiso   1.00
C41    C     0.83390   0.22965   0.43895   0.01267  Uiso   1.00
C42    C     0.95890   0.32490   0.49470   0.01267  Uiso   1.00
C43    C     0.01580   0.38950   0.42870   0.01267  Uiso   1.00
C44    C     0.94670   0.36290   0.30550   0.01267  Uiso   1.00
C45    C     0.82340   0.26630   0.25010   0.01267  Uiso   1.00
C46    C     0.76930   0.20010   0.31590   0.01267  Uiso   1.00
C47    C     0.00630   0.44100   0.23640   0.01267  Uiso   1.00
C48    C     0.60090   0.00140   0.81520   0.01267  Uiso   1.00
C49    C     0.57270   0.96650   0.90690   0.01267  Uiso   1.00
C50    C     0.51660   0.01890   0.95190   0.01267  Uiso   1.00
C51    C     0.49160   0.10650   0.89950   0.01267  Uiso   1.00
C52    C     0.52220   0.14010   0.80850   0.01267  Uiso   1.00
N1     N     0.07730   0.76938   0.08802   0.01267  Uiso   1.00
N2     N     0.42270   0.91198   0.23062   0.01267  Uiso   1.00
N3     N     0.92270   0.23062   0.91198   0.01267  Uiso   1.00
N4     N     0.57730   0.08802   0.76938   0.01267  Uiso   1.00
O1     O     0.32300   0.62002   0.21322   0.01267  Uiso   1.00
O2     O     0.16260   0.45760   0.07248   0.01267  Uiso   1.00
O3     O     0.61870   0.29552   0.52406   0.01267  Uiso   1.00
O4     O     0.43690   0.12459   0.41729   0.01267  Uiso   1.00
O5     O     0.10700   0.68209   0.12189   0.01267  Uiso   1.00
O6     O     0.17700   0.78678   0.37998   0.01267  Uiso   1.00
O7     O     0.33740   0.92752   0.54240   0.01267  Uiso   1.00
O8     O     0.88130   0.47594   0.70448   0.01267  Uiso   1.00
O9     O     0.06310   0.58271   0.87541   0.01267  Uiso   1.00
O10    O     0.39300   0.87811   0.31791   0.01267  Uiso   1.00
O11    O     0.67700   0.37998   0.78678   0.01267  Uiso   1.00
O12    O     0.83740   0.54240   0.92752   0.01267  Uiso   1.00
O13    O     0.38130   0.70448   0.47594   0.01267  Uiso   1.00
O14    O     0.56310   0.87541   0.58271   0.01267  Uiso   1.00
O15    O     0.89300   0.31791   0.87811   0.01267  Uiso   1.00
O16    O     0.82300   0.21322   0.62002   0.01267  Uiso   1.00
O17    O     0.66260   0.07248   0.45760   0.01267  Uiso   1.00
O18    O     0.11870   0.52406   0.29552   0.01267  Uiso   1.00
O19    O     0.93690   0.41729   0.12459   0.01267  Uiso   1.00
O20    O     0.60700   0.12189   0.68209   0.01267  Uiso   1.00
