data_LUSHOX02_clean
_audit_creation_date              2014-07-02
_audit_creation_method            'Materials Studio'
_symmetry_space_group_name_H-M    'P1'
_symmetry_Int_Tables_number       1
_symmetry_cell_setting            triclinic
loop_
_symmetry_equiv_pos_as_xyz
  x,y,z
_cell_length_a                    10.1898
_cell_length_b                    13.5792
_cell_length_c                    17.6223
_cell_angle_alpha                 90.7380
_cell_angle_beta                  90.0000
_cell_angle_gamma                 90.0000
loop_
_atom_site_label
_atom_site_type_symbol
_atom_site_fract_x
_atom_site_fract_y
_atom_site_fract_z
_atom_site_U_iso_or_equiv
_atom_site_adp_type
_atom_site_occupancy
Mn1    Mn    0.57970   0.38996   0.46572   0.01267  Uiso   1.00
Mn2    Mn    0.42994   0.15240   0.48031   0.01267  Uiso   1.00
Mn3    Mn    0.07970   0.61004   0.03428   0.01267  Uiso   1.00
Mn4    Mn    0.92994   0.84760   0.01969   0.01267  Uiso   1.00
Mn5    Mn    0.42030   0.61004   0.53428   0.01267  Uiso   1.00
Mn6    Mn    0.57006   0.84760   0.51969   0.01267  Uiso   1.00
Mn7    Mn    0.92030   0.38996   0.96572   0.01267  Uiso   1.00
Mn8    Mn    0.07006   0.15240   0.98031   0.01267  Uiso   1.00
H1     H     0.61500   0.23130   0.65050   0.01267  Uiso   1.00
H2     H     0.37200   0.21560   0.66620   0.01267  Uiso   1.00
H3     H     0.70900   0.30400   0.75670   0.01267  Uiso   1.00
H4     H     0.81000   0.04400   0.83340   0.01267  Uiso   1.00
H5     H     0.18600   0.48300   0.78740   0.01267  Uiso   1.00
H6     H     0.27100   0.19900   0.77970   0.01267  Uiso   1.00
H7     H     0.29900   0.50440   0.67250   0.01267  Uiso   1.00
H8     H     0.72100   0.97000   0.73160   0.01267  Uiso   1.00
H9     H     0.11500   0.76870   0.84950   0.01267  Uiso   1.00
H10    H     0.87200   0.78440   0.83380   0.01267  Uiso   1.00
H11    H     0.20900   0.69600   0.74330   0.01267  Uiso   1.00
H12    H     0.31000   0.95600   0.66660   0.01267  Uiso   1.00
H13    H     0.68600   0.51700   0.71260   0.01267  Uiso   1.00
H14    H     0.77100   0.80100   0.72030   0.01267  Uiso   1.00
H15    H     0.79900   0.49560   0.82750   0.01267  Uiso   1.00
H16    H     0.22100   0.03000   0.76840   0.01267  Uiso   1.00
H17    H     0.38500   0.76870   0.34950   0.01267  Uiso   1.00
H18    H     0.62800   0.78440   0.33380   0.01267  Uiso   1.00
H19    H     0.29100   0.69600   0.24330   0.01267  Uiso   1.00
H20    H     0.19000   0.95600   0.16660   0.01267  Uiso   1.00
H21    H     0.81400   0.51700   0.21260   0.01267  Uiso   1.00
H22    H     0.72900   0.80100   0.22030   0.01267  Uiso   1.00
H23    H     0.70100   0.49560   0.32750   0.01267  Uiso   1.00
H24    H     0.27900   0.03000   0.26840   0.01267  Uiso   1.00
H25    H     0.88500   0.23130   0.15050   0.01267  Uiso   1.00
H26    H     0.12800   0.21560   0.16620   0.01267  Uiso   1.00
H27    H     0.79100   0.30400   0.25670   0.01267  Uiso   1.00
H28    H     0.69000   0.04400   0.33340   0.01267  Uiso   1.00
H29    H     0.31400   0.48300   0.28740   0.01267  Uiso   1.00
H30    H     0.22900   0.19900   0.27970   0.01267  Uiso   1.00
H31    H     0.20100   0.50440   0.17250   0.01267  Uiso   1.00
H32    H     0.77900   0.97000   0.23160   0.01267  Uiso   1.00
C1     C     0.34630   0.35940   0.65631   0.01267  Uiso   1.00
C2     C     0.33770   0.26751   0.68813   0.01267  Uiso   1.00
C3     C     0.27550   0.25695   0.75733   0.01267  Uiso   1.00
C4     C     0.21930   0.33691   0.79360   0.01267  Uiso   1.00
C5     C     0.22830   0.42901   0.76130   0.01267  Uiso   1.00
C6     C     0.29330   0.44100   0.69387   0.01267  Uiso   1.00
C7     C     0.41356   0.37258   0.58240   0.01267  Uiso   1.00
C8     C     0.14660   0.32411   0.86682   0.01267  Uiso   1.00
C9     C     0.66170   0.09177   0.67893   0.01267  Uiso   1.00
C10    C     0.65670   0.19240   0.68793   0.01267  Uiso   1.00
C11    C     0.70930   0.23677   0.75215   0.01267  Uiso   1.00
C12    C     0.76760   0.18157   0.80769   0.01267  Uiso   1.00
C13    C     0.77500   0.08066   0.79807   0.01267  Uiso   1.00
C14    C     0.72160   0.03652   0.73429   0.01267  Uiso   1.00
C15    C     0.60180   0.04301   0.60974   0.01267  Uiso   1.00
C16    C     0.82370   0.23130   0.87682   0.01267  Uiso   1.00
C17    C     0.84630   0.64060   0.84369   0.01267  Uiso   1.00
C18    C     0.83770   0.73249   0.81187   0.01267  Uiso   1.00
C19    C     0.77550   0.74305   0.74267   0.01267  Uiso   1.00
C20    C     0.71930   0.66309   0.70640   0.01267  Uiso   1.00
C21    C     0.72830   0.57099   0.73870   0.01267  Uiso   1.00
C22    C     0.79330   0.55900   0.80613   0.01267  Uiso   1.00
C23    C     0.91356   0.62742   0.91760   0.01267  Uiso   1.00
C24    C     0.64660   0.67589   0.63318   0.01267  Uiso   1.00
C25    C     0.16170   0.90823   0.82107   0.01267  Uiso   1.00
C26    C     0.15670   0.80760   0.81207   0.01267  Uiso   1.00
C27    C     0.20930   0.76323   0.74785   0.01267  Uiso   1.00
C28    C     0.26760   0.81843   0.69231   0.01267  Uiso   1.00
C29    C     0.27500   0.91934   0.70193   0.01267  Uiso   1.00
C30    C     0.22160   0.96348   0.76571   0.01267  Uiso   1.00
C31    C     0.10180   0.95699   0.89026   0.01267  Uiso   1.00
C32    C     0.32370   0.76870   0.62318   0.01267  Uiso   1.00
C33    C     0.65370   0.64060   0.34369   0.01267  Uiso   1.00
C34    C     0.66230   0.73249   0.31187   0.01267  Uiso   1.00
C35    C     0.72450   0.74305   0.24267   0.01267  Uiso   1.00
C36    C     0.78070   0.66309   0.20640   0.01267  Uiso   1.00
C37    C     0.77170   0.57099   0.23870   0.01267  Uiso   1.00
C38    C     0.70670   0.55900   0.30613   0.01267  Uiso   1.00
C39    C     0.58644   0.62742   0.41760   0.01267  Uiso   1.00
C40    C     0.85340   0.67589   0.13318   0.01267  Uiso   1.00
C41    C     0.33830   0.90823   0.32107   0.01267  Uiso   1.00
C42    C     0.34330   0.80760   0.31207   0.01267  Uiso   1.00
C43    C     0.29070   0.76323   0.24785   0.01267  Uiso   1.00
C44    C     0.23240   0.81843   0.19231   0.01267  Uiso   1.00
C45    C     0.22500   0.91934   0.20193   0.01267  Uiso   1.00
C46    C     0.27840   0.96348   0.26571   0.01267  Uiso   1.00
C47    C     0.39820   0.95699   0.39026   0.01267  Uiso   1.00
C48    C     0.17630   0.76870   0.12318   0.01267  Uiso   1.00
C49    C     0.15370   0.35940   0.15631   0.01267  Uiso   1.00
C50    C     0.16230   0.26751   0.18813   0.01267  Uiso   1.00
C51    C     0.22450   0.25695   0.25733   0.01267  Uiso   1.00
C52    C     0.28070   0.33691   0.29360   0.01267  Uiso   1.00
C53    C     0.27170   0.42901   0.26130   0.01267  Uiso   1.00
C54    C     0.20670   0.44100   0.19387   0.01267  Uiso   1.00
C55    C     0.08644   0.37258   0.08240   0.01267  Uiso   1.00
C56    C     0.35340   0.32411   0.36682   0.01267  Uiso   1.00
C57    C     0.83830   0.09177   0.17893   0.01267  Uiso   1.00
C58    C     0.84330   0.19240   0.18793   0.01267  Uiso   1.00
C59    C     0.79070   0.23677   0.25215   0.01267  Uiso   1.00
C60    C     0.73240   0.18157   0.30769   0.01267  Uiso   1.00
C61    C     0.72500   0.08066   0.29807   0.01267  Uiso   1.00
C62    C     0.77840   0.03652   0.23429   0.01267  Uiso   1.00
C63    C     0.89820   0.04301   0.10974   0.01267  Uiso   1.00
C64    C     0.67630   0.23130   0.37682   0.01267  Uiso   1.00
O1     O     0.47534   0.30189   0.55181   0.01267  Uiso   1.00
O2     O     0.40978   0.45450   0.55148   0.01267  Uiso   1.00
O3     O     0.06651   0.39005   0.88335   0.01267  Uiso   1.00
O4     O     0.17256   0.25111   0.90503   0.01267  Uiso   1.00
O5     O     0.52100   0.09021   0.57356   0.01267  Uiso   1.00
O6     O     0.63750   0.95792   0.59482   0.01267  Uiso   1.00
O7     O     0.89175   0.18249   0.92112   0.01267  Uiso   1.00
O8     O     0.79610   0.32034   0.88695   0.01267  Uiso   1.00
O9     O     0.97534   0.69811   0.94819   0.01267  Uiso   1.00
O10    O     0.90978   0.54550   0.94852   0.01267  Uiso   1.00
O11    O     0.56651   0.60995   0.61665   0.01267  Uiso   1.00
O12    O     0.67256   0.74889   0.59497   0.01267  Uiso   1.00
O13    O     0.02100   0.90979   0.92644   0.01267  Uiso   1.00
O14    O     0.13750   0.04208   0.90518   0.01267  Uiso   1.00
O15    O     0.39175   0.81751   0.57888   0.01267  Uiso   1.00
O16    O     0.29610   0.67966   0.61305   0.01267  Uiso   1.00
O17    O     0.52466   0.69811   0.44819   0.01267  Uiso   1.00
O18    O     0.59022   0.54550   0.44852   0.01267  Uiso   1.00
O19    O     0.93349   0.60995   0.11665   0.01267  Uiso   1.00
O20    O     0.82744   0.74889   0.09497   0.01267  Uiso   1.00
O21    O     0.47900   0.90979   0.42644   0.01267  Uiso   1.00
O22    O     0.36250   0.04208   0.40518   0.01267  Uiso   1.00
O23    O     0.10825   0.81751   0.07888   0.01267  Uiso   1.00
O24    O     0.20390   0.67966   0.11305   0.01267  Uiso   1.00
O25    O     0.02466   0.30189   0.05181   0.01267  Uiso   1.00
O26    O     0.09022   0.45450   0.05148   0.01267  Uiso   1.00
O27    O     0.43349   0.39005   0.38335   0.01267  Uiso   1.00
O28    O     0.32744   0.25111   0.40503   0.01267  Uiso   1.00
O29    O     0.97900   0.09021   0.07356   0.01267  Uiso   1.00
O30    O     0.86250   0.95792   0.09482   0.01267  Uiso   1.00
O31    O     0.60825   0.18249   0.42112   0.01267  Uiso   1.00
O32    O     0.70390   0.32034   0.38695   0.01267  Uiso   1.00
