data_image0
_cell_length_a       13.3961
_cell_length_b       10.1579
_cell_length_c       17.6555
_cell_angle_alpha    90
_cell_angle_beta     90.079
_cell_angle_gamma    90

_symmetry_space_group_name_H-M    "P 1"
_symmetry_int_tables_number       1

loop_
  _symmetry_equiv_pos_as_xyz
  'x, y, z'

loop_
  _atom_site_label
  _atom_site_occupancy
  _atom_site_fract_x
  _atom_site_fract_y
  _atom_site_fract_z
  _atom_site_thermal_displace_type
  _atom_site_B_iso_or_equiv
  _atom_site_type_symbol
  Mn1      1.0000 0.84650  0.42418  0.01539  Biso   1.000  Mn
  Mn2      1.0000 0.61117  0.58167  0.03189  Biso   1.000  Mn
  C1       1.0000 0.62800  0.41150  0.91712  Biso   1.000  C
  C2       1.0000 0.63960  0.34760  0.84198  Biso   1.000  C
  C3       1.0000 0.56540  0.23010  0.73780  Biso   1.000  C
  H1       1.0000 0.50900  0.19020  0.71460  Biso   1.000  H
  C4       1.0000 0.65800  0.22370  0.70287  Biso   1.000  C
  C5       1.0000 0.74110  0.28130  0.73670  Biso   1.000  C
  H2       1.0000 0.80370  0.27950  0.71160  Biso   1.000  H
  C6       1.0000 0.91270  0.66300  0.81928  Biso   1.000  C
  C7       1.0000 0.67060  0.14960  0.63000  Biso   1.000  C
  C8       1.0000 0.76390  0.70870  0.74640  Biso   1.000  C
  H3       1.0000 0.69350  0.70330  0.74050  Biso   1.000  H
  C9       1.0000 0.82130  0.76850  0.69020  Biso   1.000  C
  C10      1.0000 0.92490  0.77660  0.69910  Biso   1.000  C
  H4       1.0000 0.96450  0.81820  0.66150  Biso   1.000  H
  C11      1.0000 0.77090  0.82390  0.62130  Biso   1.000  C
  C12      1.0000 0.55530  0.29420  0.80615  Biso   1.000  C
  H5       1.0000 0.49140  0.30220  0.82894  Biso   1.000  H
  C13      1.0000 0.96950  0.72350  0.76320  Biso   1.000  C
  H6       1.0000 0.04000  0.72850  0.76890  Biso   1.000  H
  C14      1.0000 0.73260  0.34140  0.80690  Biso   1.000  C
  H7       1.0000 0.78980  0.37810  0.83090  Biso   1.000  H
  C15      1.0000 0.80890  0.65660  0.81110  Biso   1.000  C
  H8       1.0000 0.76930  0.61700  0.84940  Biso   1.000  H
  O1       1.0000 0.91540  0.51480  0.92297  Biso   1.000  O
  O2       1.0000 0.70009  0.47660  0.94566  Biso   1.000  O
  O3       1.0000 0.54646  0.40240  0.95199  Biso   1.000  O
  O4       1.0000 0.60790  0.05960  0.61818  Biso   1.000  O
  O5       1.0000 0.74110  0.18170  0.58701  Biso   1.000  O
  O6       1.0000 0.81950  0.89830  0.57794  Biso   1.000  O
  O7       1.0000 0.68100  0.79050  0.60982  Biso   1.000  O
  O8       1.0000 0.04560  0.64930  0.90674  Biso   1.000  O
  C16      1.0000 0.96200  0.60400  0.88885  Biso   1.000  C
  Mn3      1.0000 0.15350  0.92418  0.48461  Biso   1.000  Mn
  Mn4      1.0000 0.38883  0.08167  0.46811  Biso   1.000  Mn
  C17      1.0000 0.37200  0.91150  0.58288  Biso   1.000  C
  C18      1.0000 0.36040  0.84760  0.65802  Biso   1.000  C
  C19      1.0000 0.43460  0.73010  0.76220  Biso   1.000  C
  H9       1.0000 0.49100  0.69020  0.78540  Biso   1.000  H
  C20      1.0000 0.34200  0.72370  0.79713  Biso   1.000  C
  C21      1.0000 0.25890  0.78130  0.76330  Biso   1.000  C
  H10      1.0000 0.19630  0.77950  0.78840  Biso   1.000  H
  C22      1.0000 0.08730  0.16300  0.68072  Biso   1.000  C
  C23      1.0000 0.32940  0.64960  0.87000  Biso   1.000  C
  C24      1.0000 0.23610  0.20870  0.75360  Biso   1.000  C
  H11      1.0000 0.30650  0.20330  0.75950  Biso   1.000  H
  C25      1.0000 0.17870  0.26850  0.80980  Biso   1.000  C
  C26      1.0000 0.07510  0.27660  0.80090  Biso   1.000  C
  H12      1.0000 0.03550  0.31820  0.83850  Biso   1.000  H
  C27      1.0000 0.22910  0.32390  0.87870  Biso   1.000  C
  C28      1.0000 0.44470  0.79420  0.69385  Biso   1.000  C
  H13      1.0000 0.50860  0.80220  0.67106  Biso   1.000  H
  C29      1.0000 0.03050  0.22350  0.73680  Biso   1.000  C
  H14      1.0000 0.96000  0.22850  0.73110  Biso   1.000  H
  C30      1.0000 0.26740  0.84140  0.69310  Biso   1.000  C
  H15      1.0000 0.21020  0.87810  0.66910  Biso   1.000  H
  C31      1.0000 0.19110  0.15660  0.68890  Biso   1.000  C
  H16      1.0000 0.23070  0.11700  0.65060  Biso   1.000  H
  O9       1.0000 0.08460  0.01480  0.57703  Biso   1.000  O
  O10      1.0000 0.29991  0.97660  0.55434  Biso   1.000  O
  O11      1.0000 0.45354  0.90240  0.54801  Biso   1.000  O
  O12      1.0000 0.39210  0.55960  0.88182  Biso   1.000  O
  O13      1.0000 0.25890  0.68170  0.91299  Biso   1.000  O
  O14      1.0000 0.18050  0.39830  0.92206  Biso   1.000  O
  O15      1.0000 0.31900  0.29050  0.89018  Biso   1.000  O
  O16      1.0000 0.95440  0.14930  0.59326  Biso   1.000  O
  C32      1.0000 0.03800  0.10400  0.61115  Biso   1.000  C
  Mn5      1.0000 0.15350  0.57582  0.98461  Biso   1.000  Mn
  Mn6      1.0000 0.38883  0.41833  0.96811  Biso   1.000  Mn
  C33      1.0000 0.37200  0.58850  0.08288  Biso   1.000  C
  C34      1.0000 0.36040  0.65240  0.15802  Biso   1.000  C
  C35      1.0000 0.43460  0.76990  0.26220  Biso   1.000  C
  H17      1.0000 0.49100  0.80980  0.28540  Biso   1.000  H
  C36      1.0000 0.34200  0.77630  0.29713  Biso   1.000  C
  C37      1.0000 0.25890  0.71870  0.26330  Biso   1.000  C
  H18      1.0000 0.19630  0.72050  0.28840  Biso   1.000  H
  C38      1.0000 0.08730  0.33700  0.18072  Biso   1.000  C
  C39      1.0000 0.32940  0.85040  0.37000  Biso   1.000  C
  C40      1.0000 0.23610  0.29130  0.25360  Biso   1.000  C
  H19      1.0000 0.30650  0.29670  0.25950  Biso   1.000  H
  C41      1.0000 0.17870  0.23150  0.30980  Biso   1.000  C
  C42      1.0000 0.07510  0.22340  0.30090  Biso   1.000  C
  H20      1.0000 0.03550  0.18180  0.33850  Biso   1.000  H
  C43      1.0000 0.22910  0.17610  0.37870  Biso   1.000  C
  C44      1.0000 0.44470  0.70580  0.19385  Biso   1.000  C
  H21      1.0000 0.50860  0.69780  0.17106  Biso   1.000  H
  C45      1.0000 0.03050  0.27650  0.23680  Biso   1.000  C
  H22      1.0000 0.96000  0.27150  0.23110  Biso   1.000  H
  C46      1.0000 0.26740  0.65860  0.19310  Biso   1.000  C
  H23      1.0000 0.21020  0.62190  0.16910  Biso   1.000  H
  C47      1.0000 0.19110  0.34340  0.18890  Biso   1.000  C
  H24      1.0000 0.23070  0.38300  0.15060  Biso   1.000  H
  O17      1.0000 0.08460  0.48520  0.07703  Biso   1.000  O
  O18      1.0000 0.29991  0.52340  0.05434  Biso   1.000  O
  O19      1.0000 0.45354  0.59760  0.04801  Biso   1.000  O
  O20      1.0000 0.39210  0.94040  0.38182  Biso   1.000  O
  O21      1.0000 0.25890  0.81830  0.41299  Biso   1.000  O
  O22      1.0000 0.18050  0.10170  0.42206  Biso   1.000  O
  O23      1.0000 0.31900  0.20950  0.39018  Biso   1.000  O
  O24      1.0000 0.95440  0.35070  0.09326  Biso   1.000  O
  C48      1.0000 0.03800  0.39600  0.11115  Biso   1.000  C
  Mn7      1.0000 0.84650  0.07582  0.51539  Biso   1.000  Mn
  Mn8      1.0000 0.61117  0.91833  0.53189  Biso   1.000  Mn
  C49      1.0000 0.62800  0.08850  0.41712  Biso   1.000  C
  C50      1.0000 0.63960  0.15240  0.34198  Biso   1.000  C
  C51      1.0000 0.56540  0.26990  0.23780  Biso   1.000  C
  H25      1.0000 0.50900  0.30980  0.21460  Biso   1.000  H
  C52      1.0000 0.65800  0.27630  0.20287  Biso   1.000  C
  C53      1.0000 0.74110  0.21870  0.23670  Biso   1.000  C
  H26      1.0000 0.80370  0.22050  0.21160  Biso   1.000  H
  C54      1.0000 0.91270  0.83700  0.31928  Biso   1.000  C
  C55      1.0000 0.67060  0.35040  0.13000  Biso   1.000  C
  C56      1.0000 0.76390  0.79130  0.24640  Biso   1.000  C
  H27      1.0000 0.69350  0.79670  0.24050  Biso   1.000  H
  C57      1.0000 0.82130  0.73150  0.19020  Biso   1.000  C
  C58      1.0000 0.92490  0.72340  0.19910  Biso   1.000  C
  H28      1.0000 0.96450  0.68180  0.16150  Biso   1.000  H
  C59      1.0000 0.77090  0.67610  0.12130  Biso   1.000  C
  C60      1.0000 0.55530  0.20580  0.30615  Biso   1.000  C
  H29      1.0000 0.49140  0.19780  0.32894  Biso   1.000  H
  C61      1.0000 0.96950  0.77650  0.26320  Biso   1.000  C
  H30      1.0000 0.04000  0.77150  0.26890  Biso   1.000  H
  C62      1.0000 0.73260  0.15860  0.30690  Biso   1.000  C
  H31      1.0000 0.78980  0.12190  0.33090  Biso   1.000  H
  C63      1.0000 0.80890  0.84340  0.31110  Biso   1.000  C
  H32      1.0000 0.76930  0.88300  0.34940  Biso   1.000  H
  O25      1.0000 0.91540  0.98520  0.42297  Biso   1.000  O
  O26      1.0000 0.70009  0.02340  0.44566  Biso   1.000  O
  O27      1.0000 0.54646  0.09760  0.45199  Biso   1.000  O
  O28      1.0000 0.60790  0.44040  0.11818  Biso   1.000  O
  O29      1.0000 0.74110  0.31830  0.08701  Biso   1.000  O
  O30      1.0000 0.81950  0.60170  0.07794  Biso   1.000  O
  O31      1.0000 0.68100  0.70950  0.10982  Biso   1.000  O
  O32      1.0000 0.04560  0.85070  0.40674  Biso   1.000  O
  C64      1.0000 0.96200  0.89600  0.38885  Biso   1.000  C
