data_image0
_cell_length_a       13.6353
_cell_length_b       10.2259
_cell_length_c       17.6925
_cell_angle_alpha    90
_cell_angle_beta     90.704
_cell_angle_gamma    90

_symmetry_space_group_name_H-M    "P 1"
_symmetry_int_tables_number       1

loop_
  _symmetry_equiv_pos_as_xyz
  'x, y, z'

loop_
  _atom_site_label
  _atom_site_occupancy
  _atom_site_fract_x
  _atom_site_fract_y
  _atom_site_fract_z
  _atom_site_thermal_displace_type
  _atom_site_B_iso_or_equiv
  _atom_site_type_symbol
  Mn1      1.0000 0.38998  0.92028  0.96582  Biso   1.000  Mn
  Mn2      1.0000 0.15231  0.07019  0.98044  Biso   1.000  Mn
  O1       1.0000 0.39003  0.06607  0.88339  Biso   1.000  O
  O2       1.0000 0.32015  0.79610  0.88709  Biso   1.000  O
  O3       1.0000 0.30207  0.47525  0.55193  Biso   1.000  O
  O4       1.0000 0.25122  0.17252  0.90529  Biso   1.000  O
  O5       1.0000 0.18200  0.89201  0.92125  Biso   1.000  O
  O6       1.0000 0.09025  0.52068  0.57364  Biso   1.000  O
  O7       1.0000 0.45454  0.41015  0.55139  Biso   1.000  O
  O8       1.0000 0.95763  0.63740  0.59482  Biso   1.000  O
  C1       1.0000 0.23073  0.82370  0.87702  Biso   1.000  C
  C2       1.0000 0.18104  0.76760  0.80777  Biso   1.000  C
  C3       1.0000 0.23636  0.70910  0.75228  Biso   1.000  C
  H1       1.0000 0.30420  0.70500  0.75800  Biso   1.000  H
  C4       1.0000 0.19228  0.65660  0.68834  Biso   1.000  C
  H2       1.0000 0.23060  0.61790  0.65140  Biso   1.000  H
  C5       1.0000 0.09124  0.66150  0.67908  Biso   1.000  C
  C6       1.0000 0.03637  0.72180  0.73425  Biso   1.000  C
  H3       1.0000 0.96860  0.72650  0.72840  Biso   1.000  H
  C7       1.0000 0.08052  0.77530  0.79817  Biso   1.000  C
  H4       1.0000 0.04250  0.81640  0.83450  Biso   1.000  H
  C8       1.0000 0.32429  0.14670  0.86665  Biso   1.000  C
  C9       1.0000 0.33688  0.21940  0.79365  Biso   1.000  C
  C10      1.0000 0.42910  0.22820  0.76131  Biso   1.000  C
  H5       1.0000 0.48300  0.19000  0.78530  Biso   1.000  H
  C11      1.0000 0.44082  0.29320  0.69383  Biso   1.000  C
  H6       1.0000 0.50290  0.30180  0.67330  Biso   1.000  H
  C12      1.0000 0.35942  0.34630  0.65630  Biso   1.000  C
  C13      1.0000 0.26732  0.33750  0.68817  Biso   1.000  C
  H7       1.0000 0.21290  0.37250  0.66330  Biso   1.000  H
  C14      1.0000 0.25711  0.27590  0.75761  Biso   1.000  C
  H8       1.0000 0.19580  0.27270  0.78010  Biso   1.000  H
  C15      1.0000 0.37261  0.41360  0.58246  Biso   1.000  C
  C16      1.0000 0.04282  0.60180  0.60990  Biso   1.000  C
  Mn3      1.0000 0.61002  0.42028  0.53418  Biso   1.000  Mn
  Mn4      1.0000 0.84769  0.57019  0.51956  Biso   1.000  Mn
  O9       1.0000 0.60997  0.56607  0.61661  Biso   1.000  O
  O10      1.0000 0.67985  0.29610  0.61291  Biso   1.000  O
  O11      1.0000 0.69793  0.97525  0.94807  Biso   1.000  O
  O12      1.0000 0.74878  0.67252  0.59471  Biso   1.000  O
  O13      1.0000 0.81800  0.39201  0.57875  Biso   1.000  O
  O14      1.0000 0.90975  0.02068  0.92636  Biso   1.000  O
  O15      1.0000 0.54546  0.91015  0.94861  Biso   1.000  O
  O16      1.0000 0.04237  0.13740  0.90518  Biso   1.000  O
  C17      1.0000 0.76927  0.32370  0.62298  Biso   1.000  C
  C18      1.0000 0.81896  0.26760  0.69223  Biso   1.000  C
  C19      1.0000 0.76364  0.20910  0.74772  Biso   1.000  C
  H9       1.0000 0.69580  0.20500  0.74200  Biso   1.000  H
  C20      1.0000 0.80772  0.15660  0.81166  Biso   1.000  C
  H10      1.0000 0.76940  0.11790  0.84860  Biso   1.000  H
  C21      1.0000 0.90876  0.16150  0.82092  Biso   1.000  C
  C22      1.0000 0.96363  0.22180  0.76575  Biso   1.000  C
  H11      1.0000 0.03140  0.22650  0.77160  Biso   1.000  H
  C23      1.0000 0.91948  0.27530  0.70183  Biso   1.000  C
  H12      1.0000 0.95750  0.31640  0.66550  Biso   1.000  H
  C24      1.0000 0.67571  0.64670  0.63335  Biso   1.000  C
  C25      1.0000 0.66312  0.71940  0.70635  Biso   1.000  C
  C26      1.0000 0.57090  0.72820  0.73869  Biso   1.000  C
  H13      1.0000 0.51700  0.69000  0.71470  Biso   1.000  H
  C27      1.0000 0.55918  0.79320  0.80617  Biso   1.000  C
  H14      1.0000 0.49710  0.80180  0.82670  Biso   1.000  H
  C28      1.0000 0.64058  0.84630  0.84370  Biso   1.000  C
  C29      1.0000 0.73268  0.83750  0.81183  Biso   1.000  C
  H15      1.0000 0.78710  0.87250  0.83670  Biso   1.000  H
  C30      1.0000 0.74289  0.77590  0.74239  Biso   1.000  C
  H16      1.0000 0.80420  0.77270  0.71990  Biso   1.000  H
  C31      1.0000 0.62739  0.91360  0.91754  Biso   1.000  C
  C32      1.0000 0.95718  0.10180  0.89010  Biso   1.000  C
  Mn5      1.0000 0.61002  0.07972  0.03418  Biso   1.000  Mn
  Mn6      1.0000 0.84769  0.92981  0.01956  Biso   1.000  Mn
  O17      1.0000 0.60997  0.93393  0.11661  Biso   1.000  O
  O18      1.0000 0.67985  0.20390  0.11291  Biso   1.000  O
  O19      1.0000 0.69793  0.52475  0.44807  Biso   1.000  O
  O20      1.0000 0.74878  0.82748  0.09471  Biso   1.000  O
  O21      1.0000 0.81800  0.10799  0.07875  Biso   1.000  O
  O22      1.0000 0.90975  0.47932  0.42636  Biso   1.000  O
  O23      1.0000 0.54546  0.58985  0.44861  Biso   1.000  O
  O24      1.0000 0.04237  0.36260  0.40518  Biso   1.000  O
  C33      1.0000 0.76927  0.17630  0.12298  Biso   1.000  C
  C34      1.0000 0.81896  0.23240  0.19223  Biso   1.000  C
  C35      1.0000 0.76364  0.29090  0.24772  Biso   1.000  C
  H17      1.0000 0.69580  0.29500  0.24200  Biso   1.000  H
  C36      1.0000 0.80772  0.34340  0.31166  Biso   1.000  C
  H18      1.0000 0.76940  0.38210  0.34860  Biso   1.000  H
  C37      1.0000 0.90876  0.33850  0.32092  Biso   1.000  C
  C38      1.0000 0.96363  0.27820  0.26575  Biso   1.000  C
  H19      1.0000 0.03140  0.27350  0.27160  Biso   1.000  H
  C39      1.0000 0.91948  0.22470  0.20183  Biso   1.000  C
  H20      1.0000 0.95750  0.18360  0.16550  Biso   1.000  H
  C40      1.0000 0.67571  0.85330  0.13335  Biso   1.000  C
  C41      1.0000 0.66312  0.78060  0.20635  Biso   1.000  C
  C42      1.0000 0.57090  0.77180  0.23869  Biso   1.000  C
  H21      1.0000 0.51700  0.81000  0.21470  Biso   1.000  H
  C43      1.0000 0.55918  0.70680  0.30617  Biso   1.000  C
  H22      1.0000 0.49710  0.69820  0.32670  Biso   1.000  H
  C44      1.0000 0.64058  0.65370  0.34370  Biso   1.000  C
  C45      1.0000 0.73268  0.66250  0.31183  Biso   1.000  C
  H23      1.0000 0.78710  0.62750  0.33670  Biso   1.000  H
  C46      1.0000 0.74289  0.72410  0.24239  Biso   1.000  C
  H24      1.0000 0.80420  0.72730  0.21990  Biso   1.000  H
  C47      1.0000 0.62739  0.58640  0.41754  Biso   1.000  C
  C48      1.0000 0.95718  0.39820  0.39010  Biso   1.000  C
  Mn7      1.0000 0.38998  0.57972  0.46582  Biso   1.000  Mn
  Mn8      1.0000 0.15231  0.42981  0.48044  Biso   1.000  Mn
  O25      1.0000 0.39003  0.43393  0.38339  Biso   1.000  O
  O26      1.0000 0.32015  0.70390  0.38709  Biso   1.000  O
  O27      1.0000 0.30207  0.02475  0.05193  Biso   1.000  O
  O28      1.0000 0.25122  0.32748  0.40529  Biso   1.000  O
  O29      1.0000 0.18200  0.60799  0.42125  Biso   1.000  O
  O30      1.0000 0.09025  0.97932  0.07364  Biso   1.000  O
  O31      1.0000 0.45454  0.08985  0.05139  Biso   1.000  O
  O32      1.0000 0.95763  0.86260  0.09482  Biso   1.000  O
  C49      1.0000 0.23073  0.67630  0.37702  Biso   1.000  C
  C50      1.0000 0.18104  0.73240  0.30777  Biso   1.000  C
  C51      1.0000 0.23636  0.79090  0.25228  Biso   1.000  C
  H25      1.0000 0.30420  0.79500  0.25800  Biso   1.000  H
  C52      1.0000 0.19228  0.84340  0.18834  Biso   1.000  C
  H26      1.0000 0.23060  0.88210  0.15140  Biso   1.000  H
  C53      1.0000 0.09124  0.83850  0.17908  Biso   1.000  C
  C54      1.0000 0.03637  0.77820  0.23425  Biso   1.000  C
  H27      1.0000 0.96860  0.77350  0.22840  Biso   1.000  H
  C55      1.0000 0.08052  0.72470  0.29817  Biso   1.000  C
  H28      1.0000 0.04250  0.68360  0.33450  Biso   1.000  H
  C56      1.0000 0.32429  0.35330  0.36665  Biso   1.000  C
  C57      1.0000 0.33688  0.28060  0.29365  Biso   1.000  C
  C58      1.0000 0.42910  0.27180  0.26131  Biso   1.000  C
  H29      1.0000 0.48300  0.31000  0.28530  Biso   1.000  H
  C59      1.0000 0.44082  0.20680  0.19383  Biso   1.000  C
  H30      1.0000 0.50290  0.19820  0.17330  Biso   1.000  H
  C60      1.0000 0.35942  0.15370  0.15630  Biso   1.000  C
  C61      1.0000 0.26732  0.16250  0.18817  Biso   1.000  C
  H31      1.0000 0.21290  0.12750  0.16330  Biso   1.000  H
  C62      1.0000 0.25711  0.22410  0.25761  Biso   1.000  C
  H32      1.0000 0.19580  0.22730  0.28010  Biso   1.000  H
  C63      1.0000 0.37261  0.08640  0.08246  Biso   1.000  C
  C64      1.0000 0.04282  0.89820  0.10990  Biso   1.000  C
