data_LUSJIT_clean
_audit_creation_date              2014-07-02
_audit_creation_method            'Materials Studio'
_symmetry_space_group_name_H-M    'P1'
_symmetry_Int_Tables_number       1
_symmetry_cell_setting            triclinic
loop_
_symmetry_equiv_pos_as_xyz
  x,y,z
_cell_length_a                    12.7405
_cell_length_b                    12.7405
_cell_length_c                    13.7595
_cell_angle_alpha                 66.3888
_cell_angle_beta                  65.3679
_cell_angle_gamma                 96.7371
loop_
_atom_site_label
_atom_site_type_symbol
_atom_site_fract_x
_atom_site_fract_y
_atom_site_fract_z
_atom_site_U_iso_or_equiv
_atom_site_adp_type
_atom_site_occupancy
Mn1    Mn    0.31145   0.06145   0.75000   0.01267  Uiso   1.00
Mn2    Mn    0.68855   0.93855   0.25000   0.01267  Uiso   1.00
Mn3    Mn    0.50000   0.00000   0.50000   0.01267  Uiso   1.00
Mn4    Mn    0.00000   0.00000   0.00000   0.01267  Uiso   1.00
H1     H     0.55350   0.39690   0.58120   0.01267  Uiso   1.00
H2     H     0.65170   0.60290   0.47980   0.01267  Uiso   1.00
H3     H     0.85560   0.59530   0.17250   0.01267  Uiso   1.00
H4     H     0.75270   0.39050   0.27180   0.01267  Uiso   1.00
H5     H     0.20170   0.76870   0.97840   0.01267  Uiso   1.00
H6     H     0.14790   0.56750   0.02860   0.01267  Uiso   1.00
H7     H     0.90490   0.61340   0.92230   0.01267  Uiso   1.00
H8     H     0.96060   0.81220   0.87480   0.01267  Uiso   1.00
H9     H     0.47810   0.13470   0.91880   0.01267  Uiso   1.00
H10    H     0.58270   0.13150   0.02020   0.01267  Uiso   1.00
H11    H     0.26780   0.02810   0.32750   0.01267  Uiso   1.00
H12    H     0.16230   0.02450   0.22820   0.01267  Uiso   1.00
H13    H     0.24710   0.18010   0.52160   0.01267  Uiso   1.00
H14    H     0.09610   0.17650   0.47140   0.01267  Uiso   1.00
H15    H     0.03570   0.82720   0.57770   0.01267  Uiso   1.00
H16    H     0.18700   0.83540   0.62520   0.01267  Uiso   1.00
H17    H     0.44650   0.60310   0.41880   0.01267  Uiso   1.00
H18    H     0.34830   0.39710   0.52020   0.01267  Uiso   1.00
H19    H     0.14440   0.40470   0.82750   0.01267  Uiso   1.00
H20    H     0.24730   0.60950   0.72820   0.01267  Uiso   1.00
H21    H     0.79830   0.23130   0.02160   0.01267  Uiso   1.00
H22    H     0.85210   0.43250   0.97140   0.01267  Uiso   1.00
H23    H     0.09510   0.38660   0.07770   0.01267  Uiso   1.00
H24    H     0.03940   0.18780   0.12520   0.01267  Uiso   1.00
H25    H     0.52190   0.86530   0.08120   0.01267  Uiso   1.00
H26    H     0.41730   0.86850   0.97980   0.01267  Uiso   1.00
H27    H     0.73220   0.97190   0.67250   0.01267  Uiso   1.00
H28    H     0.83770   0.97550   0.77180   0.01267  Uiso   1.00
H29    H     0.75290   0.81990   0.47840   0.01267  Uiso   1.00
H30    H     0.90390   0.82350   0.52860   0.01267  Uiso   1.00
H31    H     0.96430   0.17280   0.42230   0.01267  Uiso   1.00
H32    H     0.81300   0.16460   0.37480   0.01267  Uiso   1.00
C1     C     0.56860   0.23980   0.50140   0.01267  Uiso   1.00
C2     C     0.64140   0.37200   0.43700   0.01267  Uiso   1.00
C3     C     0.61340   0.43690   0.49810   0.01267  Uiso   1.00
C4     C     0.67290   0.56010   0.43760   0.01267  Uiso   1.00
C5     C     0.76500   0.62210   0.31350   0.01267  Uiso   1.00
C6     C     0.79340   0.55600   0.25480   0.01267  Uiso   1.00
C7     C     0.82430   0.75880   0.24570   0.01267  Uiso   1.00
C8     C     0.73240   0.43290   0.31450   0.01267  Uiso   1.00
C9     C     0.14130   0.73690   0.96660   0.01267  Uiso   1.00
C10    C     0.10810   0.61580   0.99730   0.01267  Uiso   1.00
C11    C     0.01820   0.56430   0.98310   0.01267  Uiso   1.00
C12    C     0.96560   0.64240   0.93520   0.01267  Uiso   1.00
C13    C     0.99960   0.76240   0.90560   0.01267  Uiso   1.00
C14    C     0.24120   0.07000   0.99860   0.01267  Uiso   1.00
C15    C     0.30900   0.07840   0.06300   0.01267  Uiso   1.00
C16    C     0.43500   0.11150   0.00190   0.01267  Uiso   1.00
C17    C     0.49770   0.11050   0.06240   0.01267  Uiso   1.00
C18    C     0.43560   0.07850   0.18650   0.01267  Uiso   1.00
C19    C     0.31080   0.04820   0.24520   0.01267  Uiso   1.00
C20    C     0.50450   0.07000   0.25430   0.01267  Uiso   1.00
C21    C     0.24740   0.04690   0.18550   0.01267  Uiso   1.00
C22    C     0.20350   0.10790   0.53340   0.01267  Uiso   1.00
C23    C     0.11310   0.10540   0.50270   0.01267  Uiso   1.00
C24    C     0.04740   0.00130   0.51690   0.01267  Uiso   1.00
C25    C     0.07760   0.90080   0.56480   0.01267  Uiso   1.00
C26    C     0.16800   0.90520   0.59440   0.01267  Uiso   1.00
C27    C     0.43140   0.76020   0.49860   0.01267  Uiso   1.00
C28    C     0.35860   0.62800   0.56300   0.01267  Uiso   1.00
C29    C     0.38660   0.56310   0.50190   0.01267  Uiso   1.00
C30    C     0.32710   0.43990   0.56240   0.01267  Uiso   1.00
C31    C     0.23500   0.37790   0.68650   0.01267  Uiso   1.00
C32    C     0.20660   0.44400   0.74520   0.01267  Uiso   1.00
C33    C     0.17570   0.24120   0.75430   0.01267  Uiso   1.00
C34    C     0.26760   0.56710   0.68550   0.01267  Uiso   1.00
C35    C     0.85870   0.26310   0.03340   0.01267  Uiso   1.00
C36    C     0.89190   0.38420   0.00270   0.01267  Uiso   1.00
C37    C     0.98180   0.43570   0.01690   0.01267  Uiso   1.00
C38    C     0.03440   0.35760   0.06480   0.01267  Uiso   1.00
C39    C     0.00040   0.23760   0.09440   0.01267  Uiso   1.00
C40    C     0.75880   0.93000   0.00140   0.01267  Uiso   1.00
C41    C     0.69100   0.92160   0.93700   0.01267  Uiso   1.00
C42    C     0.56500   0.88850   0.99810   0.01267  Uiso   1.00
C43    C     0.50230   0.88950   0.93760   0.01267  Uiso   1.00
C44    C     0.56440   0.92150   0.81350   0.01267  Uiso   1.00
C45    C     0.68920   0.95180   0.75480   0.01267  Uiso   1.00
C46    C     0.49550   0.93000   0.74570   0.01267  Uiso   1.00
C47    C     0.75260   0.95310   0.81450   0.01267  Uiso   1.00
C48    C     0.79650   0.89210   0.46660   0.01267  Uiso   1.00
C49    C     0.88690   0.89460   0.49730   0.01267  Uiso   1.00
C50    C     0.95260   0.99870   0.48310   0.01267  Uiso   1.00
C51    C     0.92240   0.09920   0.43520   0.01267  Uiso   1.00
C52    C     0.83200   0.09480   0.40560   0.01267  Uiso   1.00
N1     N     0.08650   0.80770   0.92000   0.01267  Uiso   1.00
N2     N     0.22770   0.00650   0.58000   0.01267  Uiso   1.00
N3     N     0.91350   0.19230   0.08000   0.01267  Uiso   1.00
N4     N     0.77230   0.99350   0.42000   0.01267  Uiso   1.00
O1     O     0.48840   0.19010   0.61490   0.01267  Uiso   1.00
O2     O     0.59070   0.18630   0.43900   0.01267  Uiso   1.00
O3     O     0.12050   0.92560   0.88670   0.01267  Uiso   1.00
O4     O     0.77780   0.81380   0.30140   0.01267  Uiso   1.00
O5     O     0.91560   0.80800   0.13900   0.01267  Uiso   1.00
O6     O     0.30500   0.10330   0.88510   0.01267  Uiso   1.00
O7     O     0.12530   0.02970   0.06100   0.01267  Uiso   1.00
O8     O     0.31230   0.00720   0.61330   0.01267  Uiso   1.00
O9     O     0.61520   0.07920   0.19860   0.01267  Uiso   1.00
O10    O     0.44700   0.05460   0.36100   0.01267  Uiso   1.00
O11    O     0.51160   0.80990   0.38510   0.01267  Uiso   1.00
O12    O     0.40930   0.81370   0.56100   0.01267  Uiso   1.00
O13    O     0.87950   0.07440   0.11330   0.01267  Uiso   1.00
O14    O     0.22220   0.18620   0.69860   0.01267  Uiso   1.00
O15    O     0.08440   0.19200   0.86100   0.01267  Uiso   1.00
O16    O     0.69500   0.89670   0.11490   0.01267  Uiso   1.00
O17    O     0.87470   0.97030   0.93900   0.01267  Uiso   1.00
O18    O     0.68770   0.99280   0.38670   0.01267  Uiso   1.00
O19    O     0.38480   0.92080   0.80140   0.01267  Uiso   1.00
O20    O     0.55300   0.94540   0.63900   0.01267  Uiso   1.00
