data_LUSJEP_clean
_audit_creation_date              2014-07-02
_audit_creation_method            'Materials Studio'
_symmetry_space_group_name_H-M    'P1'
_symmetry_Int_Tables_number       1
_symmetry_cell_setting            triclinic
loop_
_symmetry_equiv_pos_as_xyz
  x,y,z
_cell_length_a                    12.7112
_cell_length_b                    12.7112
_cell_length_c                    13.7568
_cell_angle_alpha                 67.8503
_cell_angle_beta                  65.1878
_cell_angle_gamma                 97.9203
loop_
_atom_site_label
_atom_site_type_symbol
_atom_site_fract_x
_atom_site_fract_y
_atom_site_fract_z
_atom_site_U_iso_or_equiv
_atom_site_adp_type
_atom_site_occupancy
Mn1    Mn    0.50000   0.00000   0.50000   0.01267  Uiso   1.00
Mn2    Mn    0.00000   0.00000   0.00000   0.01267  Uiso   1.00
Mn3    Mn    0.68731   0.93731   0.25000   0.01267  Uiso   1.00
Mn4    Mn    0.31269   0.06269   0.75000   0.01267  Uiso   1.00
H1     H     0.23720   0.61330   0.72350   0.01267  Uiso   1.00
H2     H     0.13430   0.40650   0.82420   0.01267  Uiso   1.00
H3     H     0.34780   0.39150   0.52450   0.01267  Uiso   1.00
H4     H     0.44620   0.59810   0.42190   0.01267  Uiso   1.00
H5     H     0.25000   0.17700   0.52440   0.01267  Uiso   1.00
H6     H     0.09990   0.17600   0.47370   0.01267  Uiso   1.00
H7     H     0.02850   0.82720   0.57950   0.01267  Uiso   1.00
H8     H     0.18450   0.83440   0.62230   0.01267  Uiso   1.00
H9     H     0.83680   0.96070   0.77650   0.01267  Uiso   1.00
H10    H     0.73070   0.95850   0.67580   0.01267  Uiso   1.00
H11    H     0.41600   0.87230   0.97550   0.01267  Uiso   1.00
H12    H     0.52000   0.86810   0.07810   0.01267  Uiso   1.00
H13    H     0.20140   0.77440   0.97560   0.01267  Uiso   1.00
H14    H     0.14970   0.57360   0.02630   0.01267  Uiso   1.00
H15    H     0.90670   0.60800   0.92050   0.01267  Uiso   1.00
H16    H     0.95670   0.80680   0.87770   0.01267  Uiso   1.00
H17    H     0.76280   0.38670   0.27650   0.01267  Uiso   1.00
H18    H     0.86570   0.59350   0.17580   0.01267  Uiso   1.00
H19    H     0.65220   0.60850   0.47550   0.01267  Uiso   1.00
H20    H     0.55380   0.40190   0.57810   0.01267  Uiso   1.00
H21    H     0.75000   0.82300   0.47560   0.01267  Uiso   1.00
H22    H     0.90010   0.82400   0.52630   0.01267  Uiso   1.00
H23    H     0.97150   0.17280   0.42050   0.01267  Uiso   1.00
H24    H     0.81550   0.16560   0.37770   0.01267  Uiso   1.00
H25    H     0.16320   0.03930   0.22350   0.01267  Uiso   1.00
H26    H     0.26930   0.04150   0.32420   0.01267  Uiso   1.00
H27    H     0.58400   0.12770   0.02450   0.01267  Uiso   1.00
H28    H     0.48000   0.13190   0.92190   0.01267  Uiso   1.00
H29    H     0.79860   0.22560   0.02440   0.01267  Uiso   1.00
H30    H     0.85030   0.42640   0.97370   0.01267  Uiso   1.00
H31    H     0.09330   0.39200   0.07950   0.01267  Uiso   1.00
H32    H     0.04330   0.19320   0.12230   0.01267  Uiso   1.00
C1     C     0.42900   0.76020   0.49680   0.01267  Uiso   1.00
C2     C     0.35500   0.62690   0.56250   0.01267  Uiso   1.00
C3     C     0.26040   0.56890   0.68270   0.01267  Uiso   1.00
C4     C     0.19920   0.44440   0.74340   0.01267  Uiso   1.00
C5     C     0.23220   0.37650   0.68690   0.01267  Uiso   1.00
C6     C     0.32510   0.43580   0.56550   0.01267  Uiso   1.00
C7     C     0.38470   0.55970   0.50420   0.01267  Uiso   1.00
C8     C     0.17460   0.23960   0.75580   0.01267  Uiso   1.00
C9     C     0.20470   0.10510   0.53560   0.01267  Uiso   1.00
C10    C     0.11500   0.10470   0.50450   0.01267  Uiso   1.00
C11    C     0.04760   0.00110   0.51790   0.01267  Uiso   1.00
C12    C     0.07390   0.90050   0.56560   0.01267  Uiso   1.00
C13    C     0.16580   0.90400   0.59400   0.01267  Uiso   1.00
C14    C     0.75700   0.92580   0.00320   0.01267  Uiso   1.00
C15    C     0.68940   0.91750   0.93750   0.01267  Uiso   1.00
C16    C     0.75160   0.94310   0.81730   0.01267  Uiso   1.00
C17    C     0.68780   0.94260   0.75660   0.01267  Uiso   1.00
C18    C     0.56340   0.91910   0.81310   0.01267  Uiso   1.00
C19    C     0.50130   0.89060   0.93450   0.01267  Uiso   1.00
C20    C     0.56390   0.88890   0.99580   0.01267  Uiso   1.00
C21    C     0.49540   0.93040   0.74420   0.01267  Uiso   1.00
C22    C     0.14070   0.74030   0.96440   0.01267  Uiso   1.00
C23    C     0.10920   0.61950   0.99550   0.01267  Uiso   1.00
C24    C     0.01900   0.56550   0.98210   0.01267  Uiso   1.00
C25    C     0.96610   0.63950   0.93440   0.01267  Uiso   1.00
C26    C     0.99800   0.75980   0.90600   0.01267  Uiso   1.00
C27    C     0.57100   0.23980   0.50320   0.01267  Uiso   1.00
C28    C     0.64500   0.37310   0.43750   0.01267  Uiso   1.00
C29    C     0.73960   0.43110   0.31730   0.01267  Uiso   1.00
C30    C     0.80080   0.55560   0.25660   0.01267  Uiso   1.00
C31    C     0.76780   0.62350   0.31310   0.01267  Uiso   1.00
C32    C     0.67490   0.56420   0.43450   0.01267  Uiso   1.00
C33    C     0.61530   0.44030   0.49580   0.01267  Uiso   1.00
C34    C     0.82540   0.76040   0.24420   0.01267  Uiso   1.00
C35    C     0.79530   0.89490   0.46440   0.01267  Uiso   1.00
C36    C     0.88500   0.89530   0.49550   0.01267  Uiso   1.00
C37    C     0.95240   0.99890   0.48210   0.01267  Uiso   1.00
C38    C     0.92610   0.09950   0.43440   0.01267  Uiso   1.00
C39    C     0.83420   0.09600   0.40600   0.01267  Uiso   1.00
C40    C     0.24300   0.07420   0.99680   0.01267  Uiso   1.00
C41    C     0.31060   0.08250   0.06250   0.01267  Uiso   1.00
C42    C     0.24840   0.05690   0.18270   0.01267  Uiso   1.00
C43    C     0.31220   0.05740   0.24340   0.01267  Uiso   1.00
C44    C     0.43660   0.08090   0.18690   0.01267  Uiso   1.00
C45    C     0.49870   0.10940   0.06550   0.01267  Uiso   1.00
C46    C     0.43610   0.11110   0.00420   0.01267  Uiso   1.00
C47    C     0.50460   0.06960   0.25580   0.01267  Uiso   1.00
C48    C     0.85930   0.25970   0.03560   0.01267  Uiso   1.00
C49    C     0.89080   0.38050   0.00450   0.01267  Uiso   1.00
C50    C     0.98100   0.43450   0.01790   0.01267  Uiso   1.00
C51    C     0.03390   0.36050   0.06560   0.01267  Uiso   1.00
C52    C     0.00200   0.24020   0.09400   0.01267  Uiso   1.00
N1     N     0.22730   0.00540   0.58110   0.01267  Uiso   1.00
N2     N     0.08650   0.80840   0.91890   0.01267  Uiso   1.00
N3     N     0.77270   0.99460   0.41890   0.01267  Uiso   1.00
N4     N     0.91350   0.19160   0.08110   0.01267  Uiso   1.00
O1     O     0.40710   0.81460   0.55950   0.01267  Uiso   1.00
O2     O     0.50800   0.80730   0.38530   0.01267  Uiso   1.00
O3     O     0.08430   0.19080   0.86270   0.01267  Uiso   1.00
O4     O     0.22332   0.18422   0.70090   0.01267  Uiso   1.00
O5     O     0.31240   0.00580   0.61380   0.01267  Uiso   1.00
O6     O     0.87410   0.96660   0.94050   0.01267  Uiso   1.00
O7     O     0.69260   0.89330   0.11470   0.01267  Uiso   1.00
O8     O     0.55350   0.94700   0.63730   0.01267  Uiso   1.00
O9     O     0.38512   0.92422   0.79910   0.01267  Uiso   1.00
O10    O     0.11960   0.92620   0.88620   0.01267  Uiso   1.00
O11    O     0.59290   0.18540   0.44050   0.01267  Uiso   1.00
O12    O     0.49200   0.19270   0.61470   0.01267  Uiso   1.00
O13    O     0.91570   0.80920   0.13730   0.01267  Uiso   1.00
O14    O     0.77668   0.81578   0.29910   0.01267  Uiso   1.00
O15    O     0.68760   0.99420   0.38620   0.01267  Uiso   1.00
O16    O     0.12590   0.03340   0.05950   0.01267  Uiso   1.00
O17    O     0.30740   0.10670   0.88530   0.01267  Uiso   1.00
O18    O     0.44650   0.05300   0.36270   0.01267  Uiso   1.00
O19    O     0.61488   0.07578   0.20090   0.01267  Uiso   1.00
O20    O     0.88040   0.07380   0.11380   0.01267  Uiso   1.00
