data_LUSJOZ_clean
_audit_creation_date              2014-07-02
_audit_creation_method            'Materials Studio'
_symmetry_space_group_name_H-M    'P1'
_symmetry_Int_Tables_number       1
_symmetry_cell_setting            triclinic
loop_
_symmetry_equiv_pos_as_xyz
  x,y,z
_cell_length_a                    12.7287
_cell_length_b                    12.7287
_cell_length_c                    13.8050
_cell_angle_alpha                 67.7930
_cell_angle_beta                  65.5436
_cell_angle_gamma                 98.1105
loop_
_atom_site_label
_atom_site_type_symbol
_atom_site_fract_x
_atom_site_fract_y
_atom_site_fract_z
_atom_site_U_iso_or_equiv
_atom_site_adp_type
_atom_site_occupancy
Mn1    Mn    1.00000   0.50000   0.50000   0.01267  Uiso   1.00
Mn2    Mn    0.50000   0.50000   0.00000   0.01267  Uiso   1.00
Mn3    Mn    0.18662   0.43662   0.25000   0.01267  Uiso   1.00
Mn4    Mn    0.81338   0.56338   0.75000   0.01267  Uiso   1.00
H1     H     0.73770   0.11320   0.72270   0.01267  Uiso   1.00
H2     H     0.63550   0.90870   0.82340   0.01267  Uiso   1.00
H3     H     0.84820   0.88910   0.52750   0.01267  Uiso   1.00
H4     H     0.94380   0.09570   0.42310   0.01267  Uiso   1.00
H5     H     0.75380   0.67940   0.52080   0.01267  Uiso   1.00
H6     H     0.60430   0.67950   0.46920   0.01267  Uiso   1.00
H7     H     0.52900   0.32550   0.58170   0.01267  Uiso   1.00
H8     H     0.68290   0.33540   0.62490   0.01267  Uiso   1.00
H9     H     0.33590   0.46040   0.77730   0.01267  Uiso   1.00
H10    H     0.23210   0.45890   0.67660   0.01267  Uiso   1.00
H11    H     0.91660   0.37570   0.97250   0.01267  Uiso   1.00
H12    H     0.01880   0.36690   0.07690   0.01267  Uiso   1.00
H13    H     0.70020   0.27460   0.97920   0.01267  Uiso   1.00
H14    H     0.64870   0.07350   0.03080   0.01267  Uiso   1.00
H15    H     0.40720   0.11070   0.91830   0.01267  Uiso   1.00
H16    H     0.46030   0.30780   0.87510   0.01267  Uiso   1.00
H17    H     0.26230   0.88680   0.27730   0.01267  Uiso   1.00
H18    H     0.36450   0.09130   0.17660   0.01267  Uiso   1.00
H19    H     0.15180   0.11090   0.47250   0.01267  Uiso   1.00
H20    H     0.05620   0.90430   0.57690   0.01267  Uiso   1.00
H21    H     0.24620   0.32060   0.47920   0.01267  Uiso   1.00
H22    H     0.39570   0.32050   0.53080   0.01267  Uiso   1.00
H23    H     0.47100   0.67450   0.41830   0.01267  Uiso   1.00
H24    H     0.31710   0.66460   0.37510   0.01267  Uiso   1.00
H25    H     0.66410   0.53960   0.22270   0.01267  Uiso   1.00
H26    H     0.76790   0.54110   0.32340   0.01267  Uiso   1.00
H27    H     0.08340   0.62430   0.02750   0.01267  Uiso   1.00
H28    H     0.98120   0.63310   0.92310   0.01267  Uiso   1.00
H29    H     0.29980   0.72540   0.02080   0.01267  Uiso   1.00
H30    H     0.35130   0.92650   0.96920   0.01267  Uiso   1.00
H31    H     0.59280   0.88930   0.08170   0.01267  Uiso   1.00
H32    H     0.53970   0.69220   0.12490   0.01267  Uiso   1.00
C1     C     0.92900   0.25940   0.49640   0.01267  Uiso   1.00
C2     C     0.85610   0.12700   0.56190   0.01267  Uiso   1.00
C3     C     0.76070   0.06840   0.68270   0.01267  Uiso   1.00
C4     C     0.70000   0.94560   0.74320   0.01267  Uiso   1.00
C5     C     0.73250   0.87480   0.68790   0.01267  Uiso   1.00
C6     C     0.82500   0.93370   0.56750   0.01267  Uiso   1.00
C7     C     0.88400   0.05790   0.50510   0.01267  Uiso   1.00
C8     C     0.67430   0.73990   0.75700   0.01267  Uiso   1.00
C9     C     0.70730   0.60710   0.53340   0.01267  Uiso   1.00
C10    C     0.61800   0.60760   0.50140   0.01267  Uiso   1.00
C11    C     0.54790   0.50200   0.51690   0.01267  Uiso   1.00
C12    C     0.57420   0.39960   0.56700   0.01267  Uiso   1.00
C13    C     0.66490   0.40500   0.59510   0.01267  Uiso   1.00
C14    C     0.25580   0.42540   0.00360   0.01267  Uiso   1.00
C15    C     0.18890   0.41800   0.93810   0.01267  Uiso   1.00
C16    C     0.25110   0.44340   0.81730   0.01267  Uiso   1.00
C17    C     0.18880   0.44320   0.75680   0.01267  Uiso   1.00
C18    C     0.06270   0.42040   0.81210   0.01267  Uiso   1.00
C19    C     0.00120   0.39250   0.93250   0.01267  Uiso   1.00
C20    C     0.06300   0.38910   0.99490   0.01267  Uiso   1.00
C21    C     0.99690   0.43130   0.74300   0.01267  Uiso   1.00
C22    C     0.64050   0.24070   0.96660   0.01267  Uiso   1.00
C23    C     0.60900   0.11940   0.99860   0.01267  Uiso   1.00
C24    C     0.51890   0.06480   0.98310   0.01267  Uiso   1.00
C25    C     0.46660   0.14120   0.93300   0.01267  Uiso   1.00
C26    C     0.50010   0.26000   0.90490   0.01267  Uiso   1.00
C27    C     0.07100   0.74060   0.50360   0.01267  Uiso   1.00
C28    C     0.14390   0.87300   0.43810   0.01267  Uiso   1.00
C29    C     0.23930   0.93160   0.31730   0.01267  Uiso   1.00
C30    C     0.30000   0.05440   0.25680   0.01267  Uiso   1.00
C31    C     0.26750   0.12520   0.31210   0.01267  Uiso   1.00
C32    C     0.17500   0.06630   0.43250   0.01267  Uiso   1.00
C33    C     0.11600   0.94210   0.49490   0.01267  Uiso   1.00
C34    C     0.32570   0.26010   0.24300   0.01267  Uiso   1.00
C35    C     0.29270   0.39290   0.46660   0.01267  Uiso   1.00
C36    C     0.38200   0.39240   0.49860   0.01267  Uiso   1.00
C37    C     0.45210   0.49800   0.48310   0.01267  Uiso   1.00
C38    C     0.42580   0.60040   0.43300   0.01267  Uiso   1.00
C39    C     0.33510   0.59500   0.40490   0.01267  Uiso   1.00
C40    C     0.74420   0.57460   0.99640   0.01267  Uiso   1.00
C41    C     0.81110   0.58200   0.06190   0.01267  Uiso   1.00
C42    C     0.74890   0.55660   0.18270   0.01267  Uiso   1.00
C43    C     0.81120   0.55680   0.24320   0.01267  Uiso   1.00
C44    C     0.93730   0.57960   0.18790   0.01267  Uiso   1.00
C45    C     0.99880   0.60750   0.06750   0.01267  Uiso   1.00
C46    C     0.93700   0.61090   0.00510   0.01267  Uiso   1.00
C47    C     0.00310   0.56870   0.25700   0.01267  Uiso   1.00
C48    C     0.35950   0.75930   0.03340   0.01267  Uiso   1.00
C49    C     0.39100   0.88060   0.00140   0.01267  Uiso   1.00
C50    C     0.48110   0.93520   0.01690   0.01267  Uiso   1.00
C51    C     0.53340   0.85880   0.06700   0.01267  Uiso   1.00
C52    C     0.49990   0.74000   0.09510   0.01267  Uiso   1.00
N1     N     0.72900   0.50800   0.58080   0.01267  Uiso   1.00
N2     N     0.58880   0.30980   0.91920   0.01267  Uiso   1.00
N3     N     0.27100   0.49200   0.41920   0.01267  Uiso   1.00
N4     N     0.41120   0.69020   0.08080   0.01267  Uiso   1.00
O1     O     0.90750   0.31580   0.55730   0.01267  Uiso   1.00
O2     O     0.00840   0.30620   0.38560   0.01267  Uiso   1.00
O3     O     0.58280   0.69150   0.86270   0.01267  Uiso   1.00
O4     O     0.72100   0.68290   0.70350   0.01267  Uiso   1.00
O5     O     0.81350   0.50930   0.61240   0.01267  Uiso   1.00
O6     O     0.37310   0.46480   0.94270   0.01267  Uiso   1.00
O7     O     0.19180   0.39400   0.11440   0.01267  Uiso   1.00
O8     O     0.05420   0.44550   0.63730   0.01267  Uiso   1.00
O9     O     0.88640   0.42450   0.79650   0.01267  Uiso   1.00
O10    O     0.62170   0.42590   0.88760   0.01267  Uiso   1.00
O11    O     0.09250   0.68420   0.44270   0.01267  Uiso   1.00
O12    O     0.99160   0.69380   0.61440   0.01267  Uiso   1.00
O13    O     0.41720   0.30850   0.13730   0.01267  Uiso   1.00
O14    O     0.27900   0.31710   0.29650   0.01267  Uiso   1.00
O15    O     0.18650   0.49070   0.38760   0.01267  Uiso   1.00
O16    O     0.62690   0.53520   0.05730   0.01267  Uiso   1.00
O17    O     0.80820   0.60600   0.88560   0.01267  Uiso   1.00
O18    O     0.94580   0.55450   0.36270   0.01267  Uiso   1.00
O19    O     0.11360   0.57550   0.20350   0.01267  Uiso   1.00
O20    O     0.37830   0.57410   0.11240   0.01267  Uiso   1.00
