data_image0
_cell_length_a       18.4284
_cell_length_b       18.4284
_cell_length_c       40.081
_cell_angle_alpha    90
_cell_angle_beta     90
_cell_angle_gamma    120

_symmetry_space_group_name_H-M    "P 1"
_symmetry_int_tables_number       1

loop_
  _symmetry_equiv_pos_as_xyz
  'x, y, z'

loop_
  _atom_site_label
  _atom_site_occupancy
  _atom_site_fract_x
  _atom_site_fract_y
  _atom_site_fract_z
  _atom_site_thermal_displace_type
  _atom_site_B_iso_or_equiv
  _atom_site_type_symbol
  O1       1.0000 0.97240  0.56120  0.04305  Biso   1.000  O
  O2       1.0000 0.89150  0.52000  0.99807  Biso   1.000  O
  C1       1.0000 0.87460  0.61960  0.07318  Biso   1.000  C
  H1       1.0000 0.92450  0.63200  0.08370  Biso   1.000  H
  C2       1.0000 0.85500  0.57860  0.04223  Biso   1.000  C
  C3       1.0000 0.90970  0.55040  0.02686  Biso   1.000  C
  O3       1.0000 0.63907  0.89453  0.37638  Biso   1.000  O
  O4       1.0000 0.55817  0.85333  0.33140  Biso   1.000  O
  C4       1.0000 0.54127  0.95293  0.40651  Biso   1.000  C
  H2       1.0000 0.59117  0.96533  0.41703  Biso   1.000  H
  C5       1.0000 0.52167  0.91193  0.37556  Biso   1.000  C
  C6       1.0000 0.57637  0.88373  0.36019  Biso   1.000  C
  O5       1.0000 0.30573  0.22787  0.70972  Biso   1.000  O
  O6       1.0000 0.22483  0.18667  0.66474  Biso   1.000  O
  C7       1.0000 0.20793  0.28627  0.73985  Biso   1.000  C
  H3       1.0000 0.25783  0.29867  0.75037  Biso   1.000  H
  C8       1.0000 0.18833  0.24527  0.70890  Biso   1.000  C
  C9       1.0000 0.24303  0.21707  0.69353  Biso   1.000  C
  O7       1.0000 0.43880  0.41120  0.04305  Biso   1.000  O
  O8       1.0000 0.48000  0.37150  0.99807  Biso   1.000  O
  C10      1.0000 0.38040  0.25500  0.07318  Biso   1.000  C
  H4       1.0000 0.36800  0.29250  0.08370  Biso   1.000  H
  C11      1.0000 0.42140  0.27640  0.04223  Biso   1.000  C
  C12      1.0000 0.44960  0.35930  0.02686  Biso   1.000  C
  O9       1.0000 0.10547  0.74453  0.37638  Biso   1.000  O
  O10      1.0000 0.14667  0.70483  0.33140  Biso   1.000  O
  C13      1.0000 0.04707  0.58833  0.40651  Biso   1.000  C
  H5       1.0000 0.03467  0.62583  0.41703  Biso   1.000  H
  C14      1.0000 0.08807  0.60973  0.37556  Biso   1.000  C
  C15      1.0000 0.11627  0.69263  0.36019  Biso   1.000  C
  O11      1.0000 0.77213  0.07787  0.70972  Biso   1.000  O
  O12      1.0000 0.81333  0.03817  0.66474  Biso   1.000  O
  C16      1.0000 0.71373  0.92167  0.73985  Biso   1.000  C
  H6       1.0000 0.70133  0.95917  0.75037  Biso   1.000  H
  C17      1.0000 0.75473  0.94307  0.70890  Biso   1.000  C
  C18      1.0000 0.78293  0.02597  0.69353  Biso   1.000  C
  O13      1.0000 0.58880  0.02760  0.04305  Biso   1.000  O
  O14      1.0000 0.62850  0.10850  0.99807  Biso   1.000  O
  C19      1.0000 0.74500  0.12540  0.07318  Biso   1.000  C
  H7       1.0000 0.70750  0.07550  0.08370  Biso   1.000  H
  C20      1.0000 0.72360  0.14500  0.04223  Biso   1.000  C
  C21      1.0000 0.64070  0.09030  0.02686  Biso   1.000  C
  O15      1.0000 0.25547  0.36093  0.37638  Biso   1.000  O
  O16      1.0000 0.29517  0.44183  0.33140  Biso   1.000  O
  C22      1.0000 0.41167  0.45873  0.40651  Biso   1.000  C
  H8       1.0000 0.37417  0.40883  0.41703  Biso   1.000  H
  C23      1.0000 0.39027  0.47833  0.37556  Biso   1.000  C
  C24      1.0000 0.30737  0.42363  0.36019  Biso   1.000  C
  O17      1.0000 0.92213  0.69427  0.70972  Biso   1.000  O
  O18      1.0000 0.96183  0.77517  0.66474  Biso   1.000  O
  C25      1.0000 0.07833  0.79207  0.73985  Biso   1.000  C
  H9       1.0000 0.04083  0.74217  0.75037  Biso   1.000  H
  C26      1.0000 0.05693  0.81167  0.70890  Biso   1.000  C
  C27      1.0000 0.97403  0.75697  0.69353  Biso   1.000  C
  O19      1.0000 0.56120  0.97240  0.95695  Biso   1.000  O
  O20      1.0000 0.52000  0.89150  0.00193  Biso   1.000  O
  C28      1.0000 0.61960  0.87460  0.92682  Biso   1.000  C
  H10      1.0000 0.63200  0.92450  0.91630  Biso   1.000  H
  C29      1.0000 0.57860  0.85500  0.95777  Biso   1.000  C
  C30      1.0000 0.55040  0.90970  0.97314  Biso   1.000  C
  O21      1.0000 0.22787  0.30573  0.29028  Biso   1.000  O
  O22      1.0000 0.18667  0.22483  0.33526  Biso   1.000  O
  C31      1.0000 0.28627  0.20793  0.26015  Biso   1.000  C
  H11      1.0000 0.29867  0.25783  0.24963  Biso   1.000  H
  C32      1.0000 0.24527  0.18833  0.29110  Biso   1.000  C
  C33      1.0000 0.21707  0.24303  0.30647  Biso   1.000  C
  O23      1.0000 0.89453  0.63907  0.62362  Biso   1.000  O
  O24      1.0000 0.85333  0.55817  0.66860  Biso   1.000  O
  C34      1.0000 0.95293  0.54127  0.59349  Biso   1.000  C
  H12      1.0000 0.96533  0.59117  0.58297  Biso   1.000  H
  C35      1.0000 0.91193  0.52167  0.62444  Biso   1.000  C
  C36      1.0000 0.88373  0.57637  0.63981  Biso   1.000  C
  O25      1.0000 0.41120  0.43880  0.95695  Biso   1.000  O
  O26      1.0000 0.37150  0.48000  0.00193  Biso   1.000  O
  C37      1.0000 0.25500  0.38040  0.92682  Biso   1.000  C
  H13      1.0000 0.29250  0.36800  0.91630  Biso   1.000  H
  C38      1.0000 0.27640  0.42140  0.95777  Biso   1.000  C
  C39      1.0000 0.35930  0.44960  0.97314  Biso   1.000  C
  O27      1.0000 0.07787  0.77213  0.29028  Biso   1.000  O
  O28      1.0000 0.03817  0.81333  0.33526  Biso   1.000  O
  C40      1.0000 0.92167  0.71373  0.26015  Biso   1.000  C
  H14      1.0000 0.95917  0.70133  0.24963  Biso   1.000  H
  C41      1.0000 0.94307  0.75473  0.29110  Biso   1.000  C
  C42      1.0000 0.02597  0.78293  0.30647  Biso   1.000  C
  O29      1.0000 0.74453  0.10547  0.62362  Biso   1.000  O
  O30      1.0000 0.70483  0.14667  0.66860  Biso   1.000  O
  C43      1.0000 0.58833  0.04707  0.59349  Biso   1.000  C
  H15      1.0000 0.62583  0.03467  0.58297  Biso   1.000  H
  C44      1.0000 0.60973  0.08807  0.62444  Biso   1.000  C
  C45      1.0000 0.69263  0.11627  0.63981  Biso   1.000  C
  O31      1.0000 0.02760  0.58880  0.95695  Biso   1.000  O
  O32      1.0000 0.10850  0.62850  0.00193  Biso   1.000  O
  C46      1.0000 0.12540  0.74500  0.92682  Biso   1.000  C
  H16      1.0000 0.07550  0.70750  0.91630  Biso   1.000  H
  C47      1.0000 0.14500  0.72360  0.95777  Biso   1.000  C
  C48      1.0000 0.09030  0.64070  0.97314  Biso   1.000  C
  O33      1.0000 0.69427  0.92213  0.29028  Biso   1.000  O
  O34      1.0000 0.77517  0.96183  0.33526  Biso   1.000  O
  C49      1.0000 0.79207  0.07833  0.26015  Biso   1.000  C
  H17      1.0000 0.74217  0.04083  0.24963  Biso   1.000  H
  C50      1.0000 0.81167  0.05693  0.29110  Biso   1.000  C
  C51      1.0000 0.75697  0.97403  0.30647  Biso   1.000  C
  O35      1.0000 0.36093  0.25547  0.62362  Biso   1.000  O
  O36      1.0000 0.44183  0.29517  0.66860  Biso   1.000  O
  C52      1.0000 0.45873  0.41167  0.59349  Biso   1.000  C
  H18      1.0000 0.40883  0.37417  0.58297  Biso   1.000  H
  C53      1.0000 0.47833  0.39027  0.62444  Biso   1.000  C
  C54      1.0000 0.42363  0.30737  0.63981  Biso   1.000  C
  O37      1.0000 0.02760  0.43880  0.95695  Biso   1.000  O
  O38      1.0000 0.10850  0.48000  0.00193  Biso   1.000  O
  C55      1.0000 0.12540  0.38040  0.92682  Biso   1.000  C
  H19      1.0000 0.07550  0.36800  0.91630  Biso   1.000  H
  C56      1.0000 0.14500  0.42140  0.95777  Biso   1.000  C
  C57      1.0000 0.09030  0.44960  0.97314  Biso   1.000  C
  O39      1.0000 0.69427  0.77213  0.29028  Biso   1.000  O
  O40      1.0000 0.77517  0.81333  0.33526  Biso   1.000  O
  C58      1.0000 0.79207  0.71373  0.26015  Biso   1.000  C
  H20      1.0000 0.74217  0.70133  0.24963  Biso   1.000  H
  C59      1.0000 0.81167  0.75473  0.29110  Biso   1.000  C
  C60      1.0000 0.75697  0.78293  0.30647  Biso   1.000  C
  O41      1.0000 0.36093  0.10547  0.62362  Biso   1.000  O
  O42      1.0000 0.44183  0.14667  0.66860  Biso   1.000  O
  C61      1.0000 0.45873  0.04707  0.59349  Biso   1.000  C
  H21      1.0000 0.40883  0.03467  0.58297  Biso   1.000  H
  C62      1.0000 0.47833  0.08807  0.62444  Biso   1.000  C
  C63      1.0000 0.42363  0.11627  0.63981  Biso   1.000  C
  O43      1.0000 0.56120  0.58880  0.95695  Biso   1.000  O
  O44      1.0000 0.52000  0.62850  0.00193  Biso   1.000  O
  C64      1.0000 0.61960  0.74500  0.92682  Biso   1.000  C
  H22      1.0000 0.63200  0.70750  0.91630  Biso   1.000  H
  C65      1.0000 0.57860  0.72360  0.95777  Biso   1.000  C
  C66      1.0000 0.55040  0.64070  0.97314  Biso   1.000  C
  O45      1.0000 0.22787  0.92213  0.29028  Biso   1.000  O
  O46      1.0000 0.18667  0.96183  0.33526  Biso   1.000  O
  C67      1.0000 0.28627  0.07833  0.26015  Biso   1.000  C
  H23      1.0000 0.29867  0.04083  0.24963  Biso   1.000  H
  C68      1.0000 0.24527  0.05693  0.29110  Biso   1.000  C
  C69      1.0000 0.21707  0.97403  0.30647  Biso   1.000  C
  O47      1.0000 0.89453  0.25547  0.62362  Biso   1.000  O
  O48      1.0000 0.85333  0.29517  0.66860  Biso   1.000  O
  C70      1.0000 0.95293  0.41167  0.59349  Biso   1.000  C
  H24      1.0000 0.96533  0.37417  0.58297  Biso   1.000  H
  C71      1.0000 0.91193  0.39027  0.62444  Biso   1.000  C
  C72      1.0000 0.88373  0.30737  0.63981  Biso   1.000  C
  O49      1.0000 0.41120  0.97240  0.95695  Biso   1.000  O
  O50      1.0000 0.37150  0.89150  0.00193  Biso   1.000  O
  C73      1.0000 0.25500  0.87460  0.92682  Biso   1.000  C
  H25      1.0000 0.29250  0.92450  0.91630  Biso   1.000  H
  C74      1.0000 0.27640  0.85500  0.95777  Biso   1.000  C
  C75      1.0000 0.35930  0.90970  0.97314  Biso   1.000  C
  O51      1.0000 0.07787  0.30573  0.29028  Biso   1.000  O
  O52      1.0000 0.03817  0.22483  0.33526  Biso   1.000  O
  C76      1.0000 0.92167  0.20793  0.26015  Biso   1.000  C
  H26      1.0000 0.95917  0.25783  0.24963  Biso   1.000  H
  C77      1.0000 0.94307  0.18833  0.29110  Biso   1.000  C
  C78      1.0000 0.02597  0.24303  0.30647  Biso   1.000  C
  O53      1.0000 0.74453  0.63907  0.62362  Biso   1.000  O
  O54      1.0000 0.70483  0.55817  0.66860  Biso   1.000  O
  C79      1.0000 0.58833  0.54127  0.59349  Biso   1.000  C
  H27      1.0000 0.62583  0.59117  0.58297  Biso   1.000  H
  C80      1.0000 0.60973  0.52167  0.62444  Biso   1.000  C
  C81      1.0000 0.69263  0.57637  0.63981  Biso   1.000  C
  O55      1.0000 0.43880  0.02760  0.04305  Biso   1.000  O
  O56      1.0000 0.48000  0.10850  0.99807  Biso   1.000  O
  C82      1.0000 0.38040  0.12540  0.07318  Biso   1.000  C
  H28      1.0000 0.36800  0.07550  0.08370  Biso   1.000  H
  C83      1.0000 0.42140  0.14500  0.04223  Biso   1.000  C
  C84      1.0000 0.44960  0.09030  0.02686  Biso   1.000  C
  O57      1.0000 0.10547  0.36093  0.37638  Biso   1.000  O
  O58      1.0000 0.14667  0.44183  0.33140  Biso   1.000  O
  C85      1.0000 0.04707  0.45873  0.40651  Biso   1.000  C
  H29      1.0000 0.03467  0.40883  0.41703  Biso   1.000  H
  C86      1.0000 0.08807  0.47833  0.37556  Biso   1.000  C
  C87      1.0000 0.11627  0.42363  0.36019  Biso   1.000  C
  O59      1.0000 0.77213  0.69427  0.70972  Biso   1.000  O
  O60      1.0000 0.81333  0.77517  0.66474  Biso   1.000  O
  C88      1.0000 0.71373  0.79207  0.73985  Biso   1.000  C
  H30      1.0000 0.70133  0.74217  0.75037  Biso   1.000  H
  C89      1.0000 0.75473  0.81167  0.70890  Biso   1.000  C
  C90      1.0000 0.78293  0.75697  0.69353  Biso   1.000  C
  O61      1.0000 0.58880  0.56120  0.04305  Biso   1.000  O
  O62      1.0000 0.62850  0.52000  0.99807  Biso   1.000  O
  C91      1.0000 0.74500  0.61960  0.07318  Biso   1.000  C
  H31      1.0000 0.70750  0.63200  0.08370  Biso   1.000  H
  C92      1.0000 0.72360  0.57860  0.04223  Biso   1.000  C
  C93      1.0000 0.64070  0.55040  0.02686  Biso   1.000  C
  O63      1.0000 0.25547  0.89453  0.37638  Biso   1.000  O
  O64      1.0000 0.29517  0.85333  0.33140  Biso   1.000  O
  C94      1.0000 0.41167  0.95293  0.40651  Biso   1.000  C
  H32      1.0000 0.37417  0.96533  0.41703  Biso   1.000  H
  C95      1.0000 0.39027  0.91193  0.37556  Biso   1.000  C
  C96      1.0000 0.30737  0.88373  0.36019  Biso   1.000  C
  O65      1.0000 0.92213  0.22787  0.70972  Biso   1.000  O
  O66      1.0000 0.96183  0.18667  0.66474  Biso   1.000  O
  C97      1.0000 0.07833  0.28627  0.73985  Biso   1.000  C
  H33      1.0000 0.04083  0.29867  0.75037  Biso   1.000  H
  C98      1.0000 0.05693  0.24527  0.70890  Biso   1.000  C
  C99      1.0000 0.97403  0.21707  0.69353  Biso   1.000  C
  O67      1.0000 0.97240  0.41120  0.04305  Biso   1.000  O
  O68      1.0000 0.89150  0.37150  0.99807  Biso   1.000  O
  C100     1.0000 0.87460  0.25500  0.07318  Biso   1.000  C
  H34      1.0000 0.92450  0.29250  0.08370  Biso   1.000  H
  C101     1.0000 0.85500  0.27640  0.04223  Biso   1.000  C
  C102     1.0000 0.90970  0.35930  0.02686  Biso   1.000  C
  O69      1.0000 0.63907  0.74453  0.37638  Biso   1.000  O
  O70      1.0000 0.55817  0.70483  0.33140  Biso   1.000  O
  C103     1.0000 0.54127  0.58833  0.40651  Biso   1.000  C
  H35      1.0000 0.59117  0.62583  0.41703  Biso   1.000  H
  C104     1.0000 0.52167  0.60973  0.37556  Biso   1.000  C
  C105     1.0000 0.57637  0.69263  0.36019  Biso   1.000  C
  O71      1.0000 0.30573  0.07787  0.70972  Biso   1.000  O
  O72      1.0000 0.22483  0.03817  0.66474  Biso   1.000  O
  C106     1.0000 0.20793  0.92167  0.73985  Biso   1.000  C
  H36      1.0000 0.25783  0.95917  0.75037  Biso   1.000  H
  C107     1.0000 0.18833  0.94307  0.70890  Biso   1.000  C
  C108     1.0000 0.24303  0.02597  0.69353  Biso   1.000  C
  Cu1      1.0000 0.04881  0.52441  0.02667  Biso   1.000  Cu
  Cu2      1.0000 0.71548  0.85774  0.36000  Biso   1.000  Cu
  Cu3      1.0000 0.38214  0.19107  0.69334  Biso   1.000  Cu
  Cu4      1.0000 0.47559  0.52441  0.02667  Biso   1.000  Cu
  Cu5      1.0000 0.14226  0.85774  0.36000  Biso   1.000  Cu
  Cu6      1.0000 0.80893  0.19107  0.69334  Biso   1.000  Cu
  Cu7      1.0000 0.47559  0.95119  0.02667  Biso   1.000  Cu
  Cu8      1.0000 0.14226  0.28452  0.36000  Biso   1.000  Cu
  Cu9      1.0000 0.80893  0.61786  0.69334  Biso   1.000  Cu
  Cu10     1.0000 0.52441  0.04881  0.97333  Biso   1.000  Cu
  Cu11     1.0000 0.19107  0.38214  0.30666  Biso   1.000  Cu
  Cu12     1.0000 0.85774  0.71548  0.64000  Biso   1.000  Cu
  Cu13     1.0000 0.52441  0.47559  0.97333  Biso   1.000  Cu
  Cu14     1.0000 0.19107  0.80893  0.30666  Biso   1.000  Cu
  Cu15     1.0000 0.85774  0.14226  0.64000  Biso   1.000  Cu
  Cu16     1.0000 0.95119  0.47560  0.97333  Biso   1.000  Cu
  Cu17     1.0000 0.61786  0.80893  0.30666  Biso   1.000  Cu
  Cu18     1.0000 0.28452  0.14226  0.64000  Biso   1.000  Cu
  C109     1.0000 0.82285  0.64570  0.15140  Biso   1.000  C
  C110     1.0000 0.84325  0.68650  0.12160  Biso   1.000  C
  C111     1.0000 0.88575  0.77150  0.12080  Biso   1.000  C
  H37      1.0000 0.90020  0.80040  0.10070  Biso   1.000  H
  C112     1.0000 0.90775  0.81550  0.15210  Biso   1.000  C
  H38      1.0000 0.93690  0.87380  0.15220  Biso   1.000  H
  C113     1.0000 0.77955  0.55910  0.02741  Biso   1.000  C
  H39      1.0000 0.76600  0.53200  0.00690  Biso   1.000  H
  C114     1.0000 0.77965  0.55930  0.15210  Biso   1.000  C
  H40      1.0000 0.76475  0.52950  0.13220  Biso   1.000  H
  C115     1.0000 0.82090  0.64180  0.08820  Biso   1.000  C
  C116     1.0000 0.48952  0.97903  0.48473  Biso   1.000  C
  C117     1.0000 0.50992  0.01983  0.45493  Biso   1.000  C
  C118     1.0000 0.55242  0.10483  0.45413  Biso   1.000  C
  H41      1.0000 0.56687  0.13373  0.43403  Biso   1.000  H
  C119     1.0000 0.57442  0.14883  0.48543  Biso   1.000  C
  H42      1.0000 0.60357  0.20713  0.48553  Biso   1.000  H
  C120     1.0000 0.44622  0.89243  0.36074  Biso   1.000  C
  H43      1.0000 0.43267  0.86533  0.34023  Biso   1.000  H
  C121     1.0000 0.44632  0.89263  0.48543  Biso   1.000  C
  H44      1.0000 0.43142  0.86283  0.46553  Biso   1.000  H
  C122     1.0000 0.48757  0.97513  0.42153  Biso   1.000  C
  C123     1.0000 0.15618  0.31237  0.81807  Biso   1.000  C
  C124     1.0000 0.17658  0.35317  0.78827  Biso   1.000  C
  C125     1.0000 0.21908  0.43817  0.78747  Biso   1.000  C
  H45      1.0000 0.23353  0.46707  0.76737  Biso   1.000  H
  C126     1.0000 0.24108  0.48217  0.81877  Biso   1.000  C
  H46      1.0000 0.27023  0.54047  0.81887  Biso   1.000  H
  C127     1.0000 0.11288  0.22577  0.69408  Biso   1.000  C
  H47      1.0000 0.09933  0.19867  0.67357  Biso   1.000  H
  C128     1.0000 0.11298  0.22597  0.81877  Biso   1.000  C
  H48      1.0000 0.09808  0.19617  0.79887  Biso   1.000  H
  C129     1.0000 0.15423  0.30847  0.75487  Biso   1.000  C
  C130     1.0000 0.35430  0.17715  0.15140  Biso   1.000  C
  C131     1.0000 0.31350  0.15675  0.12160  Biso   1.000  C
  C132     1.0000 0.22850  0.11425  0.12080  Biso   1.000  C
  H49      1.0000 0.19960  0.09980  0.10070  Biso   1.000  H
  C133     1.0000 0.18450  0.09225  0.15210  Biso   1.000  C
  H50      1.0000 0.12620  0.06310  0.15220  Biso   1.000  H
  C134     1.0000 0.44090  0.22045  0.02741  Biso   1.000  C
  H51      1.0000 0.46800  0.23400  0.00690  Biso   1.000  H
  C135     1.0000 0.44070  0.22035  0.15210  Biso   1.000  C
  H52      1.0000 0.47050  0.23525  0.13220  Biso   1.000  H
  C136     1.0000 0.35820  0.17910  0.08820  Biso   1.000  C
  C137     1.0000 0.02097  0.51048  0.48473  Biso   1.000  C
  C138     1.0000 0.98017  0.49008  0.45493  Biso   1.000  C
  C139     1.0000 0.89517  0.44758  0.45413  Biso   1.000  C
  H53      1.0000 0.86627  0.43313  0.43403  Biso   1.000  H
  C140     1.0000 0.85117  0.42558  0.48543  Biso   1.000  C
  H54      1.0000 0.79287  0.39643  0.48553  Biso   1.000  H
  C141     1.0000 0.10757  0.55378  0.36074  Biso   1.000  C
  H55      1.0000 0.13467  0.56733  0.34023  Biso   1.000  H
  C142     1.0000 0.10737  0.55368  0.48543  Biso   1.000  C
  H56      1.0000 0.13717  0.56858  0.46553  Biso   1.000  H
  C143     1.0000 0.02487  0.51243  0.42153  Biso   1.000  C
  C144     1.0000 0.68763  0.84382  0.81807  Biso   1.000  C
  C145     1.0000 0.64683  0.82342  0.78827  Biso   1.000  C
  C146     1.0000 0.56183  0.78092  0.78747  Biso   1.000  C
  H57      1.0000 0.53293  0.76647  0.76737  Biso   1.000  H
  C147     1.0000 0.51783  0.75892  0.81877  Biso   1.000  C
  H58      1.0000 0.45953  0.72977  0.81887  Biso   1.000  H
  C148     1.0000 0.77423  0.88712  0.69408  Biso   1.000  C
  H59      1.0000 0.80133  0.90067  0.67357  Biso   1.000  H
  C149     1.0000 0.77403  0.88702  0.81877  Biso   1.000  C
  H60      1.0000 0.80383  0.90192  0.79887  Biso   1.000  H
  C150     1.0000 0.69153  0.84577  0.75487  Biso   1.000  C
  C151     1.0000 0.82285  0.17715  0.15140  Biso   1.000  C
  C152     1.0000 0.84325  0.15675  0.12160  Biso   1.000  C
  C153     1.0000 0.88575  0.11425  0.12080  Biso   1.000  C
  H61      1.0000 0.90020  0.09980  0.10070  Biso   1.000  H
  C154     1.0000 0.90775  0.09225  0.15210  Biso   1.000  C
  H62      1.0000 0.93690  0.06310  0.15220  Biso   1.000  H
  C155     1.0000 0.77955  0.22045  0.02741  Biso   1.000  C
  H63      1.0000 0.76600  0.23400  0.00690  Biso   1.000  H
  C156     1.0000 0.77965  0.22035  0.15210  Biso   1.000  C
  H64      1.0000 0.76475  0.23525  0.13220  Biso   1.000  H
  C157     1.0000 0.82090  0.17910  0.08820  Biso   1.000  C
  C158     1.0000 0.48952  0.51048  0.48473  Biso   1.000  C
  C159     1.0000 0.50992  0.49008  0.45493  Biso   1.000  C
  C160     1.0000 0.55242  0.44758  0.45413  Biso   1.000  C
  H65      1.0000 0.56687  0.43313  0.43403  Biso   1.000  H
  C161     1.0000 0.57442  0.42558  0.48543  Biso   1.000  C
  H66      1.0000 0.60357  0.39643  0.48553  Biso   1.000  H
  C162     1.0000 0.44622  0.55378  0.36074  Biso   1.000  C
  H67      1.0000 0.43267  0.56733  0.34023  Biso   1.000  H
  C163     1.0000 0.44632  0.55368  0.48543  Biso   1.000  C
  H68      1.0000 0.43142  0.56858  0.46553  Biso   1.000  H
  C164     1.0000 0.48757  0.51243  0.42153  Biso   1.000  C
  C165     1.0000 0.15618  0.84382  0.81807  Biso   1.000  C
  C166     1.0000 0.17658  0.82342  0.78827  Biso   1.000  C
  C167     1.0000 0.21908  0.78092  0.78747  Biso   1.000  C
  H69      1.0000 0.23353  0.76647  0.76737  Biso   1.000  H
  C168     1.0000 0.24108  0.75892  0.81877  Biso   1.000  C
  H70      1.0000 0.27023  0.72977  0.81887  Biso   1.000  H
  C169     1.0000 0.11288  0.88712  0.69408  Biso   1.000  C
  H71      1.0000 0.09933  0.90067  0.67357  Biso   1.000  H
  C170     1.0000 0.11298  0.88702  0.81877  Biso   1.000  C
  H72      1.0000 0.09808  0.90192  0.79887  Biso   1.000  H
  C171     1.0000 0.15423  0.84577  0.75487  Biso   1.000  C
  C172     1.0000 0.64570  0.82285  0.84860  Biso   1.000  C
  C173     1.0000 0.68650  0.84325  0.87840  Biso   1.000  C
  C174     1.0000 0.77150  0.88575  0.87920  Biso   1.000  C
  H73      1.0000 0.80040  0.90020  0.89930  Biso   1.000  H
  C175     1.0000 0.81550  0.90775  0.84790  Biso   1.000  C
  H74      1.0000 0.87380  0.93690  0.84780  Biso   1.000  H
  C176     1.0000 0.55910  0.77955  0.97259  Biso   1.000  C
  H75      1.0000 0.53200  0.76600  0.99310  Biso   1.000  H
  C177     1.0000 0.55930  0.77965  0.84790  Biso   1.000  C
  H76      1.0000 0.52950  0.76475  0.86780  Biso   1.000  H
  C178     1.0000 0.64180  0.82090  0.91180  Biso   1.000  C
  C179     1.0000 0.31237  0.15618  0.18193  Biso   1.000  C
  C180     1.0000 0.35317  0.17658  0.21173  Biso   1.000  C
  C181     1.0000 0.43817  0.21908  0.21253  Biso   1.000  C
  H77      1.0000 0.46707  0.23353  0.23263  Biso   1.000  H
  C182     1.0000 0.48217  0.24108  0.18123  Biso   1.000  C
  H78      1.0000 0.54047  0.27023  0.18113  Biso   1.000  H
  C183     1.0000 0.22577  0.11288  0.30592  Biso   1.000  C
  H79      1.0000 0.19867  0.09933  0.32643  Biso   1.000  H
  C184     1.0000 0.22597  0.11298  0.18123  Biso   1.000  C
  H80      1.0000 0.19617  0.09808  0.20113  Biso   1.000  H
  C185     1.0000 0.30847  0.15423  0.24513  Biso   1.000  C
  C186     1.0000 0.97903  0.48952  0.51527  Biso   1.000  C
  C187     1.0000 0.01983  0.50992  0.54507  Biso   1.000  C
  C188     1.0000 0.10483  0.55242  0.54587  Biso   1.000  C
  H81      1.0000 0.13373  0.56687  0.56597  Biso   1.000  H
  C189     1.0000 0.14883  0.57442  0.51457  Biso   1.000  C
  H82      1.0000 0.20713  0.60357  0.51447  Biso   1.000  H
  C190     1.0000 0.89243  0.44622  0.63926  Biso   1.000  C
  H83      1.0000 0.86533  0.43267  0.65977  Biso   1.000  H
  C191     1.0000 0.89263  0.44632  0.51457  Biso   1.000  C
  H84      1.0000 0.86283  0.43142  0.53447  Biso   1.000  H
  C192     1.0000 0.97513  0.48757  0.57847  Biso   1.000  C
  C193     1.0000 0.17715  0.35430  0.84860  Biso   1.000  C
  C194     1.0000 0.15675  0.31350  0.87840  Biso   1.000  C
  C195     1.0000 0.11425  0.22850  0.87920  Biso   1.000  C
  H85      1.0000 0.09980  0.19960  0.89930  Biso   1.000  H
  C196     1.0000 0.09225  0.18450  0.84790  Biso   1.000  C
  H86      1.0000 0.06310  0.12620  0.84780  Biso   1.000  H
  C197     1.0000 0.22045  0.44090  0.97259  Biso   1.000  C
  H87      1.0000 0.23400  0.46800  0.99310  Biso   1.000  H
  C198     1.0000 0.22035  0.44070  0.84790  Biso   1.000  C
  H88      1.0000 0.23525  0.47050  0.86780  Biso   1.000  H
  C199     1.0000 0.17910  0.35820  0.91180  Biso   1.000  C
  C200     1.0000 0.84382  0.68763  0.18193  Biso   1.000  C
  C201     1.0000 0.82342  0.64683  0.21173  Biso   1.000  C
  C202     1.0000 0.78092  0.56183  0.21253  Biso   1.000  C
  H89      1.0000 0.76647  0.53293  0.23263  Biso   1.000  H
  C203     1.0000 0.75892  0.51783  0.18123  Biso   1.000  C
  H90      1.0000 0.72977  0.45953  0.18113  Biso   1.000  H
  C204     1.0000 0.88712  0.77423  0.30592  Biso   1.000  C
  H91      1.0000 0.90067  0.80133  0.32643  Biso   1.000  H
  C205     1.0000 0.88702  0.77403  0.18123  Biso   1.000  C
  H92      1.0000 0.90192  0.80383  0.20113  Biso   1.000  H
  C206     1.0000 0.84577  0.69153  0.24513  Biso   1.000  C
  C207     1.0000 0.51048  0.02097  0.51527  Biso   1.000  C
  C208     1.0000 0.49008  0.98017  0.54507  Biso   1.000  C
  C209     1.0000 0.44758  0.89517  0.54587  Biso   1.000  C
  H93      1.0000 0.43313  0.86627  0.56597  Biso   1.000  H
  C210     1.0000 0.42558  0.85117  0.51457  Biso   1.000  C
  H94      1.0000 0.39643  0.79287  0.51447  Biso   1.000  H
  C211     1.0000 0.55378  0.10757  0.63926  Biso   1.000  C
  H95      1.0000 0.56733  0.13467  0.65977  Biso   1.000  H
  C212     1.0000 0.55368  0.10737  0.51457  Biso   1.000  C
  H96      1.0000 0.56858  0.13717  0.53447  Biso   1.000  H
  C213     1.0000 0.51243  0.02487  0.57847  Biso   1.000  C
  C214     1.0000 0.17715  0.82285  0.84860  Biso   1.000  C
  C215     1.0000 0.15675  0.84325  0.87840  Biso   1.000  C
  C216     1.0000 0.11425  0.88575  0.87920  Biso   1.000  C
  H97      1.0000 0.09980  0.90020  0.89930  Biso   1.000  H
  C217     1.0000 0.09225  0.90775  0.84790  Biso   1.000  C
  H98      1.0000 0.06310  0.93690  0.84780  Biso   1.000  H
  C218     1.0000 0.22045  0.77955  0.97259  Biso   1.000  C
  H99      1.0000 0.23400  0.76600  0.99310  Biso   1.000  H
  C219     1.0000 0.22035  0.77965  0.84790  Biso   1.000  C
  H100     1.0000 0.23525  0.76475  0.86780  Biso   1.000  H
  C220     1.0000 0.17910  0.82090  0.91180  Biso   1.000  C
  C221     1.0000 0.84382  0.15618  0.18193  Biso   1.000  C
  C222     1.0000 0.82342  0.17658  0.21173  Biso   1.000  C
  C223     1.0000 0.78092  0.21908  0.21253  Biso   1.000  C
  H101     1.0000 0.76647  0.23353  0.23263  Biso   1.000  H
  C224     1.0000 0.75892  0.24108  0.18123  Biso   1.000  C
  H102     1.0000 0.72977  0.27023  0.18113  Biso   1.000  H
  C225     1.0000 0.88712  0.11288  0.30592  Biso   1.000  C
  H103     1.0000 0.90067  0.09933  0.32643  Biso   1.000  H
  C226     1.0000 0.88702  0.11298  0.18123  Biso   1.000  C
  H104     1.0000 0.90192  0.09808  0.20113  Biso   1.000  H
  C227     1.0000 0.84577  0.15423  0.24513  Biso   1.000  C
  C228     1.0000 0.51048  0.48952  0.51527  Biso   1.000  C
  C229     1.0000 0.49008  0.50992  0.54507  Biso   1.000  C
  C230     1.0000 0.44758  0.55242  0.54587  Biso   1.000  C
  H105     1.0000 0.43313  0.56687  0.56597  Biso   1.000  H
  C231     1.0000 0.42558  0.57442  0.51457  Biso   1.000  C
  H106     1.0000 0.39643  0.60357  0.51447  Biso   1.000  H
  C232     1.0000 0.55378  0.44622  0.63926  Biso   1.000  C
  H107     1.0000 0.56733  0.43267  0.65977  Biso   1.000  H
  C233     1.0000 0.55368  0.44632  0.51457  Biso   1.000  C
  H108     1.0000 0.56858  0.43142  0.53447  Biso   1.000  H
  C234     1.0000 0.51243  0.48757  0.57847  Biso   1.000  C
