data_image0
_cell_length_a       11.2883
_cell_length_b       11.2883
_cell_length_c       12.8419
_cell_angle_alpha    90
_cell_angle_beta     90
_cell_angle_gamma    90

_symmetry_space_group_name_H-M    "P 1"
_symmetry_int_tables_number       1

loop_
  _symmetry_equiv_pos_as_xyz
  'x, y, z'

loop_
  _atom_site_label
  _atom_site_occupancy
  _atom_site_fract_x
  _atom_site_fract_y
  _atom_site_fract_z
  _atom_site_thermal_displace_type
  _atom_site_B_iso_or_equiv
  _atom_site_type_symbol
  N1       1.0000 0.22048  0.10293  0.39292  Biso   1.000  N
  C1       1.0000 0.14579  0.06440  0.34277  Biso   1.000  C
  N2       1.0000 0.72048  0.60293  0.89292  Biso   1.000  N
  C2       1.0000 0.64579  0.56440  0.84277  Biso   1.000  C
  N3       1.0000 0.77952  0.89707  0.39292  Biso   1.000  N
  C3       1.0000 0.85421  0.93560  0.34277  Biso   1.000  C
  N4       1.0000 0.27952  0.39707  0.89292  Biso   1.000  N
  C4       1.0000 0.35421  0.43560  0.84277  Biso   1.000  C
  N5       1.0000 0.89707  0.22048  0.39292  Biso   1.000  N
  C5       1.0000 0.93560  0.14579  0.34277  Biso   1.000  C
  N6       1.0000 0.39707  0.72048  0.89292  Biso   1.000  N
  C6       1.0000 0.43560  0.64579  0.84277  Biso   1.000  C
  N7       1.0000 0.10293  0.77952  0.39292  Biso   1.000  N
  C7       1.0000 0.06440  0.85421  0.34277  Biso   1.000  C
  N8       1.0000 0.60293  0.27952  0.89292  Biso   1.000  N
  C8       1.0000 0.56440  0.35421  0.84277  Biso   1.000  C
  N9       1.0000 0.77952  0.10293  0.10708  Biso   1.000  N
  C9       1.0000 0.85421  0.06440  0.15723  Biso   1.000  C
  N10      1.0000 0.27952  0.60293  0.60708  Biso   1.000  N
  C10      1.0000 0.35421  0.56440  0.65723  Biso   1.000  C
  N11      1.0000 0.22048  0.89707  0.10708  Biso   1.000  N
  C11      1.0000 0.14579  0.93560  0.15723  Biso   1.000  C
  N12      1.0000 0.72048  0.39707  0.60708  Biso   1.000  N
  C12      1.0000 0.64579  0.43560  0.65723  Biso   1.000  C
  N13      1.0000 0.10293  0.22048  0.10708  Biso   1.000  N
  C13      1.0000 0.06440  0.14579  0.15723  Biso   1.000  C
  N14      1.0000 0.60293  0.72048  0.60708  Biso   1.000  N
  C14      1.0000 0.56440  0.64579  0.65723  Biso   1.000  C
  N15      1.0000 0.89707  0.77952  0.10708  Biso   1.000  N
  C15      1.0000 0.93560  0.85421  0.15723  Biso   1.000  C
  N16      1.0000 0.39707  0.27952  0.60708  Biso   1.000  N
  C16      1.0000 0.43560  0.35421  0.65723  Biso   1.000  C
  N17      1.0000 0.77952  0.89707  0.60708  Biso   1.000  N
  C17      1.0000 0.85421  0.93560  0.65723  Biso   1.000  C
  N18      1.0000 0.27952  0.39707  0.10708  Biso   1.000  N
  C18      1.0000 0.35421  0.43560  0.15723  Biso   1.000  C
  N19      1.0000 0.22048  0.10293  0.60708  Biso   1.000  N
  C19      1.0000 0.14579  0.06440  0.65723  Biso   1.000  C
  N20      1.0000 0.72048  0.60293  0.10708  Biso   1.000  N
  C20      1.0000 0.64579  0.56440  0.15723  Biso   1.000  C
  N21      1.0000 0.10293  0.77952  0.60708  Biso   1.000  N
  C21      1.0000 0.06440  0.85421  0.65723  Biso   1.000  C
  N22      1.0000 0.60293  0.27952  0.10708  Biso   1.000  N
  C22      1.0000 0.56440  0.35421  0.15723  Biso   1.000  C
  N23      1.0000 0.89707  0.22048  0.60708  Biso   1.000  N
  C23      1.0000 0.93560  0.14579  0.65723  Biso   1.000  C
  N24      1.0000 0.39707  0.72048  0.10708  Biso   1.000  N
  C24      1.0000 0.43560  0.64579  0.15723  Biso   1.000  C
  N25      1.0000 0.22048  0.89707  0.89292  Biso   1.000  N
  C25      1.0000 0.14579  0.93560  0.84277  Biso   1.000  C
  N26      1.0000 0.72048  0.39707  0.39292  Biso   1.000  N
  C26      1.0000 0.64579  0.43560  0.34277  Biso   1.000  C
  N27      1.0000 0.77952  0.10293  0.89292  Biso   1.000  N
  C27      1.0000 0.85421  0.06440  0.84277  Biso   1.000  C
  N28      1.0000 0.27952  0.60293  0.39292  Biso   1.000  N
  C28      1.0000 0.35421  0.56440  0.34277  Biso   1.000  C
  N29      1.0000 0.89707  0.77952  0.89292  Biso   1.000  N
  C29      1.0000 0.93560  0.85421  0.84277  Biso   1.000  C
  N30      1.0000 0.39707  0.27952  0.39292  Biso   1.000  N
  C30      1.0000 0.43560  0.35421  0.34277  Biso   1.000  C
  N31      1.0000 0.10293  0.22048  0.89292  Biso   1.000  N
  C31      1.0000 0.06440  0.14579  0.84277  Biso   1.000  C
  N32      1.0000 0.60293  0.72048  0.39292  Biso   1.000  N
  C32      1.0000 0.56440  0.64579  0.34277  Biso   1.000  C
  Mo1      1.0000 0.00000  0.00000  0.25000  Biso   1.000  Mo
  Mo2      1.0000 0.50000  0.50000  0.75000  Biso   1.000  Mo
  Mo3      1.0000 0.00000  0.00000  0.75000  Biso   1.000  Mo
  Mo4      1.0000 0.50000  0.50000  0.25000  Biso   1.000  Mo
  Cu1      1.0000 0.31273  0.18727  0.50000  Biso   1.000  Cu
  Cu2      1.0000 0.68727  0.81273  0.50000  Biso   1.000  Cu
  Cu3      1.0000 0.81273  0.31273  0.50000  Biso   1.000  Cu
  Cu4      1.0000 0.18727  0.68727  0.50000  Biso   1.000  Cu
  Cu5      1.0000 0.68727  0.18727  0.00000  Biso   1.000  Cu
  Cu6      1.0000 0.31273  0.81273  0.00000  Biso   1.000  Cu
  Cu7      1.0000 0.18727  0.31273  0.00000  Biso   1.000  Cu
  Cu8      1.0000 0.81273  0.68727  0.00000  Biso   1.000  Cu
