data_image0
_cell_length_a       24.795
_cell_length_b       13.651
_cell_length_c       14.936
_cell_angle_alpha    90
_cell_angle_beta     97.077
_cell_angle_gamma    90

_symmetry_space_group_name_H-M    "P 1"
_symmetry_int_tables_number       1

loop_
  _symmetry_equiv_pos_as_xyz
  'x, y, z'

loop_
  _atom_site_label
  _atom_site_occupancy
  _atom_site_fract_x
  _atom_site_fract_y
  _atom_site_fract_z
  _atom_site_thermal_displace_type
  _atom_site_B_iso_or_equiv
  _atom_site_type_symbol
  La1      1.0000 0.83091  0.21018  0.53028  Biso   1.000  La
  C1       1.0000 0.07000  0.72170  0.54160  Biso   1.000  C
  C2       1.0000 0.01970  0.68880  0.58140  Biso   1.000  C
  C3       1.0000 0.98630  0.75470  0.61740  Biso   1.000  C
  H1       1.0000 0.99620  0.82020  0.62330  Biso   1.000  H
  C4       1.0000 0.93720  0.72300  0.64510  Biso   1.000  C
  H2       1.0000 0.91410  0.76840  0.66690  Biso   1.000  H
  C5       1.0000 0.92270  0.62520  0.64050  Biso   1.000  C
  C6       1.0000 0.95760  0.56070  0.60710  Biso   1.000  C
  H3       1.0000 0.94830  0.49470  0.60320  Biso   1.000  H
  C7       1.0000 0.00630  0.59060  0.57870  Biso   1.000  C
  H4       1.0000 0.02970  0.54480  0.55810  Biso   1.000  H
  C8       1.0000 0.86840  0.59460  0.66540  Biso   1.000  C
  C9       1.0000 0.84580  0.64050  0.73560  Biso   1.000  C
  H5       1.0000 0.86650  0.68590  0.77140  Biso   1.000  H
  C10      1.0000 0.79310  0.62040  0.75370  Biso   1.000  C
  C11      1.0000 0.76280  0.55200  0.70130  Biso   1.000  C
  H6       1.0000 0.72720  0.53940  0.71160  Biso   1.000  H
  C12      1.0000 0.78480  0.50180  0.63340  Biso   1.000  C
  C13      1.0000 0.83770  0.52160  0.61640  Biso   1.000  C
  H7       1.0000 0.85280  0.48640  0.57230  Biso   1.000  H
  C14      1.0000 0.74990  0.42850  0.57660  Biso   1.000  C
  C15      1.0000 0.77160  0.67180  0.83150  Biso   1.000  C
  O1       1.0000 0.08265  0.81150  0.54700  Biso   1.000  O
  O2       1.0000 0.09742  0.66130  0.50380  Biso   1.000  O
  O3       1.0000 0.77297  0.35790  0.54160  Biso   1.000  O
  O4       1.0000 0.70008  0.43950  0.56600  Biso   1.000  O
  O5       1.0000 0.72369  0.65000  0.84780  Biso   1.000  O
  O6       1.0000 0.80241  0.73150  0.87540  Biso   1.000  O
  O7       1.0000 0.88150  0.06250  0.60790  Biso   1.000  O
  H8       1.0000 0.85560  0.02100  0.56380  Biso   1.000  H
  H9       1.0000 0.90720  0.10140  0.61960  Biso   1.000  H
  La2      1.0000 0.33091  0.71018  0.53028  Biso   1.000  La
  C16      1.0000 0.57000  0.22170  0.54160  Biso   1.000  C
  C17      1.0000 0.51970  0.18880  0.58140  Biso   1.000  C
  C18      1.0000 0.48630  0.25470  0.61740  Biso   1.000  C
  H10      1.0000 0.49620  0.32020  0.62330  Biso   1.000  H
  C19      1.0000 0.43720  0.22300  0.64510  Biso   1.000  C
  H11      1.0000 0.41410  0.26840  0.66690  Biso   1.000  H
  C20      1.0000 0.42270  0.12520  0.64050  Biso   1.000  C
  C21      1.0000 0.45760  0.06070  0.60710  Biso   1.000  C
  H12      1.0000 0.44830  0.99470  0.60320  Biso   1.000  H
  C22      1.0000 0.50630  0.09060  0.57870  Biso   1.000  C
  H13      1.0000 0.52970  0.04480  0.55810  Biso   1.000  H
  C23      1.0000 0.36840  0.09460  0.66540  Biso   1.000  C
  C24      1.0000 0.34580  0.14050  0.73560  Biso   1.000  C
  H14      1.0000 0.36650  0.18590  0.77140  Biso   1.000  H
  C25      1.0000 0.29310  0.12040  0.75370  Biso   1.000  C
  C26      1.0000 0.26280  0.05200  0.70130  Biso   1.000  C
  H15      1.0000 0.22720  0.03940  0.71160  Biso   1.000  H
  C27      1.0000 0.28480  0.00180  0.63340  Biso   1.000  C
  C28      1.0000 0.33770  0.02160  0.61640  Biso   1.000  C
  H16      1.0000 0.35280  0.98640  0.57230  Biso   1.000  H
  C29      1.0000 0.24990  0.92850  0.57660  Biso   1.000  C
  C30      1.0000 0.27160  0.17180  0.83150  Biso   1.000  C
  O8       1.0000 0.58265  0.31150  0.54700  Biso   1.000  O
  O9       1.0000 0.59742  0.16130  0.50380  Biso   1.000  O
  O10      1.0000 0.27297  0.85790  0.54160  Biso   1.000  O
  O11      1.0000 0.20008  0.93950  0.56600  Biso   1.000  O
  O12      1.0000 0.22369  0.15000  0.84780  Biso   1.000  O
  O13      1.0000 0.30241  0.23150  0.87540  Biso   1.000  O
  O14      1.0000 0.38150  0.56250  0.60790  Biso   1.000  O
  H17      1.0000 0.35560  0.52100  0.56380  Biso   1.000  H
  H18      1.0000 0.40720  0.60140  0.61960  Biso   1.000  H
  La3      1.0000 0.16909  0.21018  0.96972  Biso   1.000  La
  C31      1.0000 0.93000  0.72170  0.95840  Biso   1.000  C
  C32      1.0000 0.98030  0.68880  0.91860  Biso   1.000  C
  C33      1.0000 0.01370  0.75470  0.88260  Biso   1.000  C
  H19      1.0000 0.00380  0.82020  0.87670  Biso   1.000  H
  C34      1.0000 0.06280  0.72300  0.85490  Biso   1.000  C
  H20      1.0000 0.08590  0.76840  0.83310  Biso   1.000  H
  C35      1.0000 0.07730  0.62520  0.85950  Biso   1.000  C
  C36      1.0000 0.04240  0.56070  0.89290  Biso   1.000  C
  H21      1.0000 0.05170  0.49470  0.89680  Biso   1.000  H
  C37      1.0000 0.99370  0.59060  0.92130  Biso   1.000  C
  H22      1.0000 0.97030  0.54480  0.94190  Biso   1.000  H
  C38      1.0000 0.13160  0.59460  0.83460  Biso   1.000  C
  C39      1.0000 0.15420  0.64050  0.76440  Biso   1.000  C
  H23      1.0000 0.13350  0.68590  0.72860  Biso   1.000  H
  C40      1.0000 0.20690  0.62040  0.74630  Biso   1.000  C
  C41      1.0000 0.23720  0.55200  0.79870  Biso   1.000  C
  H24      1.0000 0.27280  0.53940  0.78840  Biso   1.000  H
  C42      1.0000 0.21520  0.50180  0.86660  Biso   1.000  C
  C43      1.0000 0.16230  0.52160  0.88360  Biso   1.000  C
  H25      1.0000 0.14720  0.48640  0.92770  Biso   1.000  H
  C44      1.0000 0.25010  0.42850  0.92340  Biso   1.000  C
  C45      1.0000 0.22840  0.67180  0.66850  Biso   1.000  C
  O15      1.0000 0.91735  0.81150  0.95300  Biso   1.000  O
  O16      1.0000 0.90258  0.66130  0.99620  Biso   1.000  O
  O17      1.0000 0.22703  0.35790  0.95840  Biso   1.000  O
  O18      1.0000 0.29992  0.43950  0.93400  Biso   1.000  O
  O19      1.0000 0.27631  0.65000  0.65220  Biso   1.000  O
  O20      1.0000 0.19759  0.73150  0.62460  Biso   1.000  O
  O21      1.0000 0.11850  0.06250  0.89210  Biso   1.000  O
  H26      1.0000 0.14440  0.02100  0.93620  Biso   1.000  H
  H27      1.0000 0.09280  0.10140  0.88040  Biso   1.000  H
  La4      1.0000 0.66909  0.71018  0.96972  Biso   1.000  La
  C46      1.0000 0.43000  0.22170  0.95840  Biso   1.000  C
  C47      1.0000 0.48030  0.18880  0.91860  Biso   1.000  C
  C48      1.0000 0.51370  0.25470  0.88260  Biso   1.000  C
  H28      1.0000 0.50380  0.32020  0.87670  Biso   1.000  H
  C49      1.0000 0.56280  0.22300  0.85490  Biso   1.000  C
  H29      1.0000 0.58590  0.26840  0.83310  Biso   1.000  H
  C50      1.0000 0.57730  0.12520  0.85950  Biso   1.000  C
  C51      1.0000 0.54240  0.06070  0.89290  Biso   1.000  C
  H30      1.0000 0.55170  0.99470  0.89680  Biso   1.000  H
  C52      1.0000 0.49370  0.09060  0.92130  Biso   1.000  C
  H31      1.0000 0.47030  0.04480  0.94190  Biso   1.000  H
  C53      1.0000 0.63160  0.09460  0.83460  Biso   1.000  C
  C54      1.0000 0.65420  0.14050  0.76440  Biso   1.000  C
  H32      1.0000 0.63350  0.18590  0.72860  Biso   1.000  H
  C55      1.0000 0.70690  0.12040  0.74630  Biso   1.000  C
  C56      1.0000 0.73720  0.05200  0.79870  Biso   1.000  C
  H33      1.0000 0.77280  0.03940  0.78840  Biso   1.000  H
  C57      1.0000 0.71520  0.00180  0.86660  Biso   1.000  C
  C58      1.0000 0.66230  0.02160  0.88360  Biso   1.000  C
  H34      1.0000 0.64720  0.98640  0.92770  Biso   1.000  H
  C59      1.0000 0.75010  0.92850  0.92340  Biso   1.000  C
  C60      1.0000 0.72840  0.17180  0.66850  Biso   1.000  C
  O22      1.0000 0.41735  0.31150  0.95300  Biso   1.000  O
  O23      1.0000 0.40258  0.16130  0.99620  Biso   1.000  O
  O24      1.0000 0.72703  0.85790  0.95840  Biso   1.000  O
  O25      1.0000 0.79992  0.93950  0.93400  Biso   1.000  O
  O26      1.0000 0.77631  0.15000  0.65220  Biso   1.000  O
  O27      1.0000 0.69759  0.23150  0.62460  Biso   1.000  O
  O28      1.0000 0.61850  0.56250  0.89210  Biso   1.000  O
  H35      1.0000 0.64440  0.52100  0.93620  Biso   1.000  H
  H36      1.0000 0.59280  0.60140  0.88040  Biso   1.000  H
  La5      1.0000 0.16909  0.78982  0.46972  Biso   1.000  La
  C61      1.0000 0.93000  0.27830  0.45840  Biso   1.000  C
  C62      1.0000 0.98030  0.31120  0.41860  Biso   1.000  C
  C63      1.0000 0.01370  0.24530  0.38260  Biso   1.000  C
  H37      1.0000 0.00380  0.17980  0.37670  Biso   1.000  H
  C64      1.0000 0.06280  0.27700  0.35490  Biso   1.000  C
  H38      1.0000 0.08590  0.23160  0.33310  Biso   1.000  H
  C65      1.0000 0.07730  0.37480  0.35950  Biso   1.000  C
  C66      1.0000 0.04240  0.43930  0.39290  Biso   1.000  C
  H39      1.0000 0.05170  0.50530  0.39680  Biso   1.000  H
  C67      1.0000 0.99370  0.40940  0.42130  Biso   1.000  C
  H40      1.0000 0.97030  0.45520  0.44190  Biso   1.000  H
  C68      1.0000 0.13160  0.40540  0.33460  Biso   1.000  C
  C69      1.0000 0.15420  0.35950  0.26440  Biso   1.000  C
  H41      1.0000 0.13350  0.31410  0.22860  Biso   1.000  H
  C70      1.0000 0.20690  0.37960  0.24630  Biso   1.000  C
  C71      1.0000 0.23720  0.44800  0.29870  Biso   1.000  C
  H42      1.0000 0.27280  0.46060  0.28840  Biso   1.000  H
  C72      1.0000 0.21520  0.49820  0.36660  Biso   1.000  C
  C73      1.0000 0.16230  0.47840  0.38360  Biso   1.000  C
  H43      1.0000 0.14720  0.51360  0.42770  Biso   1.000  H
  C74      1.0000 0.25010  0.57150  0.42340  Biso   1.000  C
  C75      1.0000 0.22840  0.32820  0.16850  Biso   1.000  C
  O29      1.0000 0.91735  0.18850  0.45300  Biso   1.000  O
  O30      1.0000 0.90258  0.33870  0.49620  Biso   1.000  O
  O31      1.0000 0.22703  0.64210  0.45840  Biso   1.000  O
  O32      1.0000 0.29992  0.56050  0.43400  Biso   1.000  O
  O33      1.0000 0.27631  0.35000  0.15220  Biso   1.000  O
  O34      1.0000 0.19759  0.26850  0.12460  Biso   1.000  O
  O35      1.0000 0.11850  0.93750  0.39210  Biso   1.000  O
  H44      1.0000 0.14440  0.97900  0.43620  Biso   1.000  H
  H45      1.0000 0.09280  0.89860  0.38040  Biso   1.000  H
  La6      1.0000 0.66909  0.28982  0.46972  Biso   1.000  La
  C76      1.0000 0.43000  0.77830  0.45840  Biso   1.000  C
  C77      1.0000 0.48030  0.81120  0.41860  Biso   1.000  C
  C78      1.0000 0.51370  0.74530  0.38260  Biso   1.000  C
  H46      1.0000 0.50380  0.67980  0.37670  Biso   1.000  H
  C79      1.0000 0.56280  0.77700  0.35490  Biso   1.000  C
  H47      1.0000 0.58590  0.73160  0.33310  Biso   1.000  H
  C80      1.0000 0.57730  0.87480  0.35950  Biso   1.000  C
  C81      1.0000 0.54240  0.93930  0.39290  Biso   1.000  C
  H48      1.0000 0.55170  0.00530  0.39680  Biso   1.000  H
  C82      1.0000 0.49370  0.90940  0.42130  Biso   1.000  C
  H49      1.0000 0.47030  0.95520  0.44190  Biso   1.000  H
  C83      1.0000 0.63160  0.90540  0.33460  Biso   1.000  C
  C84      1.0000 0.65420  0.85950  0.26440  Biso   1.000  C
  H50      1.0000 0.63350  0.81410  0.22860  Biso   1.000  H
  C85      1.0000 0.70690  0.87960  0.24630  Biso   1.000  C
  C86      1.0000 0.73720  0.94800  0.29870  Biso   1.000  C
  H51      1.0000 0.77280  0.96060  0.28840  Biso   1.000  H
  C87      1.0000 0.71520  0.99820  0.36660  Biso   1.000  C
  C88      1.0000 0.66230  0.97840  0.38360  Biso   1.000  C
  H52      1.0000 0.64720  0.01360  0.42770  Biso   1.000  H
  C89      1.0000 0.75010  0.07150  0.42340  Biso   1.000  C
  C90      1.0000 0.72840  0.82820  0.16850  Biso   1.000  C
  O36      1.0000 0.41735  0.68850  0.45300  Biso   1.000  O
  O37      1.0000 0.40258  0.83870  0.49620  Biso   1.000  O
  O38      1.0000 0.72703  0.14210  0.45840  Biso   1.000  O
  O39      1.0000 0.79992  0.06050  0.43400  Biso   1.000  O
  O40      1.0000 0.77631  0.85000  0.15220  Biso   1.000  O
  O41      1.0000 0.69759  0.76850  0.12460  Biso   1.000  O
  O42      1.0000 0.61850  0.43750  0.39210  Biso   1.000  O
  H53      1.0000 0.64440  0.47900  0.43620  Biso   1.000  H
  H54      1.0000 0.59280  0.39860  0.38040  Biso   1.000  H
  La7      1.0000 0.83091  0.78982  0.03028  Biso   1.000  La
  C91      1.0000 0.07000  0.27830  0.04160  Biso   1.000  C
  C92      1.0000 0.01970  0.31120  0.08140  Biso   1.000  C
  C93      1.0000 0.98630  0.24530  0.11740  Biso   1.000  C
  H55      1.0000 0.99620  0.17980  0.12330  Biso   1.000  H
  C94      1.0000 0.93720  0.27700  0.14510  Biso   1.000  C
  H56      1.0000 0.91410  0.23160  0.16690  Biso   1.000  H
  C95      1.0000 0.92270  0.37480  0.14050  Biso   1.000  C
  C96      1.0000 0.95760  0.43930  0.10710  Biso   1.000  C
  H57      1.0000 0.94830  0.50530  0.10320  Biso   1.000  H
  C97      1.0000 0.00630  0.40940  0.07870  Biso   1.000  C
  H58      1.0000 0.02970  0.45520  0.05810  Biso   1.000  H
  C98      1.0000 0.86840  0.40540  0.16540  Biso   1.000  C
  C99      1.0000 0.84580  0.35950  0.23560  Biso   1.000  C
  H59      1.0000 0.86650  0.31410  0.27140  Biso   1.000  H
  C100     1.0000 0.79310  0.37960  0.25370  Biso   1.000  C
  C101     1.0000 0.76280  0.44800  0.20130  Biso   1.000  C
  H60      1.0000 0.72720  0.46060  0.21160  Biso   1.000  H
  C102     1.0000 0.78480  0.49820  0.13340  Biso   1.000  C
  C103     1.0000 0.83770  0.47840  0.11640  Biso   1.000  C
  H61      1.0000 0.85280  0.51360  0.07230  Biso   1.000  H
  C104     1.0000 0.74990  0.57150  0.07660  Biso   1.000  C
  C105     1.0000 0.77160  0.32820  0.33150  Biso   1.000  C
  O43      1.0000 0.08265  0.18850  0.04700  Biso   1.000  O
  O44      1.0000 0.09742  0.33870  0.00380  Biso   1.000  O
  O45      1.0000 0.77297  0.64210  0.04160  Biso   1.000  O
  O46      1.0000 0.70008  0.56050  0.06600  Biso   1.000  O
  O47      1.0000 0.72369  0.35000  0.34780  Biso   1.000  O
  O48      1.0000 0.80241  0.26850  0.37540  Biso   1.000  O
  O49      1.0000 0.88150  0.93750  0.10790  Biso   1.000  O
  H62      1.0000 0.85560  0.97900  0.06380  Biso   1.000  H
  H63      1.0000 0.90720  0.89860  0.11960  Biso   1.000  H
  La8      1.0000 0.33091  0.28982  0.03028  Biso   1.000  La
  C106     1.0000 0.57000  0.77830  0.04160  Biso   1.000  C
  C107     1.0000 0.51970  0.81120  0.08140  Biso   1.000  C
  C108     1.0000 0.48630  0.74530  0.11740  Biso   1.000  C
  H64      1.0000 0.49620  0.67980  0.12330  Biso   1.000  H
  C109     1.0000 0.43720  0.77700  0.14510  Biso   1.000  C
  H65      1.0000 0.41410  0.73160  0.16690  Biso   1.000  H
  C110     1.0000 0.42270  0.87480  0.14050  Biso   1.000  C
  C111     1.0000 0.45760  0.93930  0.10710  Biso   1.000  C
  H66      1.0000 0.44830  0.00530  0.10320  Biso   1.000  H
  C112     1.0000 0.50630  0.90940  0.07870  Biso   1.000  C
  H67      1.0000 0.52970  0.95520  0.05810  Biso   1.000  H
  C113     1.0000 0.36840  0.90540  0.16540  Biso   1.000  C
  C114     1.0000 0.34580  0.85950  0.23560  Biso   1.000  C
  H68      1.0000 0.36650  0.81410  0.27140  Biso   1.000  H
  C115     1.0000 0.29310  0.87960  0.25370  Biso   1.000  C
  C116     1.0000 0.26280  0.94800  0.20130  Biso   1.000  C
  H69      1.0000 0.22720  0.96060  0.21160  Biso   1.000  H
  C117     1.0000 0.28480  0.99820  0.13340  Biso   1.000  C
  C118     1.0000 0.33770  0.97840  0.11640  Biso   1.000  C
  H70      1.0000 0.35280  0.01360  0.07230  Biso   1.000  H
  C119     1.0000 0.24990  0.07150  0.07660  Biso   1.000  C
  C120     1.0000 0.27160  0.82820  0.33150  Biso   1.000  C
  O50      1.0000 0.58265  0.68850  0.04700  Biso   1.000  O
  O51      1.0000 0.59742  0.83870  0.00380  Biso   1.000  O
  O52      1.0000 0.27297  0.14210  0.04160  Biso   1.000  O
  O53      1.0000 0.20008  0.06050  0.06600  Biso   1.000  O
  O54      1.0000 0.22369  0.85000  0.34780  Biso   1.000  O
  O55      1.0000 0.30241  0.76850  0.37540  Biso   1.000  O
  O56      1.0000 0.38150  0.43750  0.10790  Biso   1.000  O
  H71      1.0000 0.35560  0.47900  0.06380  Biso   1.000  H
  H72      1.0000 0.40720  0.39860  0.11960  Biso   1.000  H
