data_image0
_cell_length_a       24.591
_cell_length_b       13.804
_cell_length_c       14.752
_cell_angle_alpha    90
_cell_angle_beta     97.135
_cell_angle_gamma    90

_symmetry_space_group_name_H-M    "P 1"
_symmetry_int_tables_number       1

loop_
  _symmetry_equiv_pos_as_xyz
  'x, y, z'

loop_
  _atom_site_label
  _atom_site_occupancy
  _atom_site_fract_x
  _atom_site_fract_y
  _atom_site_fract_z
  _atom_site_thermal_displace_type
  _atom_site_B_iso_or_equiv
  _atom_site_type_symbol
  Ce1      1.0000 0.16906  0.21131  0.47052  Biso   1.000  Ce
  O1       1.0000 0.08331  0.19207  0.54770  Biso   1.000  O
  O2       1.0000 0.09818  0.33939  0.50276  Biso   1.000  O
  O3       1.0000 0.27416  0.14510  0.54327  Biso   1.000  O
  O4       1.0000 0.19978  0.06529  0.56730  Biso   1.000  O
  O5       1.0000 0.22329  0.14813  0.34954  Biso   1.000  O
  O6       1.0000 0.19820  0.27110  0.62413  Biso   1.000  O
  C1       1.0000 0.24966  0.42460  0.42165  Biso   1.000  C
  C2       1.0000 0.21510  0.49800  0.36530  Biso   1.000  C
  C3       1.0000 0.16221  0.51850  0.38220  Biso   1.000  C
  C4       1.0000 0.23778  0.54840  0.29690  Biso   1.000  C
  C5       1.0000 0.13181  0.59110  0.33360  Biso   1.000  C
  H1       1.0000 0.14680  0.48350  0.42650  Biso   1.000  H
  C6       1.0000 0.20689  0.61600  0.24430  Biso   1.000  C
  H2       1.0000 0.27380  0.53640  0.28690  Biso   1.000  H
  C7       1.0000 0.07719  0.62250  0.35870  Biso   1.000  C
  C8       1.0000 0.15436  0.63760  0.26360  Biso   1.000  C
  C9       1.0000 0.22888  0.66880  0.16650  Biso   1.000  C
  C10      1.0000 0.04164  0.55740  0.39110  Biso   1.000  C
  C11      1.0000 0.06245  0.71900  0.35450  Biso   1.000  C
  H3       1.0000 0.13390  0.68430  0.22900  Biso   1.000  H
  H4       1.0000 0.05020  0.49180  0.39350  Biso   1.000  H
  C12      1.0000 0.99300  0.58930  0.42020  Biso   1.000  C
  H5       1.0000 0.08560  0.76380  0.33200  Biso   1.000  H
  C13      1.0000 0.01392  0.75040  0.38310  Biso   1.000  C
  C14      1.0000 0.97938  0.68580  0.41830  Biso   1.000  C
  H6       1.0000 0.96930  0.54450  0.44120  Biso   1.000  H
  H7       1.0000 0.00460  0.81560  0.37850  Biso   1.000  H
  C15      1.0000 0.92922  0.71930  0.45780  Biso   1.000  C
  Ce2      1.0000 0.66906  0.71131  0.47052  Biso   1.000  Ce
  O7       1.0000 0.58331  0.69207  0.54770  Biso   1.000  O
  O8       1.0000 0.59818  0.83939  0.50276  Biso   1.000  O
  O9       1.0000 0.77416  0.64510  0.54327  Biso   1.000  O
  O10      1.0000 0.69978  0.56529  0.56730  Biso   1.000  O
  O11      1.0000 0.72329  0.64813  0.34954  Biso   1.000  O
  O12      1.0000 0.69820  0.77110  0.62413  Biso   1.000  O
  C16      1.0000 0.74966  0.92460  0.42165  Biso   1.000  C
  C17      1.0000 0.71510  0.99800  0.36530  Biso   1.000  C
  C18      1.0000 0.66221  0.01850  0.38220  Biso   1.000  C
  C19      1.0000 0.73778  0.04840  0.29690  Biso   1.000  C
  C20      1.0000 0.63181  0.09110  0.33360  Biso   1.000  C
  H8       1.0000 0.64680  0.98350  0.42650  Biso   1.000  H
  C21      1.0000 0.70689  0.11600  0.24430  Biso   1.000  C
  H9       1.0000 0.77380  0.03640  0.28690  Biso   1.000  H
  C22      1.0000 0.57719  0.12250  0.35870  Biso   1.000  C
  C23      1.0000 0.65436  0.13760  0.26360  Biso   1.000  C
  C24      1.0000 0.72888  0.16880  0.16650  Biso   1.000  C
  C25      1.0000 0.54164  0.05740  0.39110  Biso   1.000  C
  C26      1.0000 0.56245  0.21900  0.35450  Biso   1.000  C
  H10      1.0000 0.63390  0.18430  0.22900  Biso   1.000  H
  H11      1.0000 0.55020  0.99180  0.39350  Biso   1.000  H
  C27      1.0000 0.49300  0.08930  0.42020  Biso   1.000  C
  H12      1.0000 0.58560  0.26380  0.33200  Biso   1.000  H
  C28      1.0000 0.51392  0.25040  0.38310  Biso   1.000  C
  C29      1.0000 0.47938  0.18580  0.41830  Biso   1.000  C
  H13      1.0000 0.46930  0.04450  0.44120  Biso   1.000  H
  H14      1.0000 0.50460  0.31560  0.37850  Biso   1.000  H
  C30      1.0000 0.42922  0.21930  0.45780  Biso   1.000  C
  Ce3      1.0000 0.83094  0.21131  0.02948  Biso   1.000  Ce
  O13      1.0000 0.91669  0.19207  0.95230  Biso   1.000  O
  O14      1.0000 0.90182  0.33939  0.99724  Biso   1.000  O
  O15      1.0000 0.72584  0.14510  0.95673  Biso   1.000  O
  O16      1.0000 0.80022  0.06529  0.93270  Biso   1.000  O
  O17      1.0000 0.77671  0.14813  0.15046  Biso   1.000  O
  O18      1.0000 0.80180  0.27110  0.87587  Biso   1.000  O
  C31      1.0000 0.75034  0.42460  0.07835  Biso   1.000  C
  C32      1.0000 0.78490  0.49800  0.13470  Biso   1.000  C
  C33      1.0000 0.83779  0.51850  0.11780  Biso   1.000  C
  C34      1.0000 0.76222  0.54840  0.20310  Biso   1.000  C
  C35      1.0000 0.86819  0.59110  0.16640  Biso   1.000  C
  H15      1.0000 0.85320  0.48350  0.07350  Biso   1.000  H
  C36      1.0000 0.79311  0.61600  0.25570  Biso   1.000  C
  H16      1.0000 0.72620  0.53640  0.21310  Biso   1.000  H
  C37      1.0000 0.92281  0.62250  0.14130  Biso   1.000  C
  C38      1.0000 0.84564  0.63760  0.23640  Biso   1.000  C
  C39      1.0000 0.77112  0.66880  0.33350  Biso   1.000  C
  C40      1.0000 0.95836  0.55740  0.10890  Biso   1.000  C
  C41      1.0000 0.93755  0.71900  0.14550  Biso   1.000  C
  H17      1.0000 0.86610  0.68430  0.27100  Biso   1.000  H
  H18      1.0000 0.94980  0.49180  0.10650  Biso   1.000  H
  C42      1.0000 0.00700  0.58930  0.07980  Biso   1.000  C
  H19      1.0000 0.91440  0.76380  0.16800  Biso   1.000  H
  C43      1.0000 0.98608  0.75040  0.11690  Biso   1.000  C
  C44      1.0000 0.02062  0.68580  0.08170  Biso   1.000  C
  H20      1.0000 0.03070  0.54450  0.05880  Biso   1.000  H
  H21      1.0000 0.99540  0.81560  0.12150  Biso   1.000  H
  C45      1.0000 0.07078  0.71930  0.04220  Biso   1.000  C
  Ce4      1.0000 0.33094  0.71131  0.02948  Biso   1.000  Ce
  O19      1.0000 0.41669  0.69207  0.95230  Biso   1.000  O
  O20      1.0000 0.40182  0.83939  0.99724  Biso   1.000  O
  O21      1.0000 0.22584  0.64510  0.95673  Biso   1.000  O
  O22      1.0000 0.30022  0.56529  0.93270  Biso   1.000  O
  O23      1.0000 0.27671  0.64813  0.15046  Biso   1.000  O
  O24      1.0000 0.30180  0.77110  0.87587  Biso   1.000  O
  C46      1.0000 0.25034  0.92460  0.07835  Biso   1.000  C
  C47      1.0000 0.28490  0.99800  0.13470  Biso   1.000  C
  C48      1.0000 0.33779  0.01850  0.11780  Biso   1.000  C
  C49      1.0000 0.26222  0.04840  0.20310  Biso   1.000  C
  C50      1.0000 0.36819  0.09110  0.16640  Biso   1.000  C
  H22      1.0000 0.35320  0.98350  0.07350  Biso   1.000  H
  C51      1.0000 0.29311  0.11600  0.25570  Biso   1.000  C
  H23      1.0000 0.22620  0.03640  0.21310  Biso   1.000  H
  C52      1.0000 0.42281  0.12250  0.14130  Biso   1.000  C
  C53      1.0000 0.34564  0.13760  0.23640  Biso   1.000  C
  C54      1.0000 0.27112  0.16880  0.33350  Biso   1.000  C
  C55      1.0000 0.45836  0.05740  0.10890  Biso   1.000  C
  C56      1.0000 0.43755  0.21900  0.14550  Biso   1.000  C
  H24      1.0000 0.36610  0.18430  0.27100  Biso   1.000  H
  H25      1.0000 0.44980  0.99180  0.10650  Biso   1.000  H
  C57      1.0000 0.50700  0.08930  0.07980  Biso   1.000  C
  H26      1.0000 0.41440  0.26380  0.16800  Biso   1.000  H
  C58      1.0000 0.48608  0.25040  0.11690  Biso   1.000  C
  C59      1.0000 0.52062  0.18580  0.08170  Biso   1.000  C
  H27      1.0000 0.53070  0.04450  0.05880  Biso   1.000  H
  H28      1.0000 0.49540  0.31560  0.12150  Biso   1.000  H
  C60      1.0000 0.57078  0.21930  0.04220  Biso   1.000  C
  Ce5      1.0000 0.83094  0.78869  0.52948  Biso   1.000  Ce
  O25      1.0000 0.91669  0.80793  0.45230  Biso   1.000  O
  O26      1.0000 0.90182  0.66061  0.49724  Biso   1.000  O
  O27      1.0000 0.72584  0.85490  0.45673  Biso   1.000  O
  O28      1.0000 0.80022  0.93471  0.43270  Biso   1.000  O
  O29      1.0000 0.77671  0.85187  0.65046  Biso   1.000  O
  O30      1.0000 0.80180  0.72890  0.37587  Biso   1.000  O
  C61      1.0000 0.75034  0.57540  0.57835  Biso   1.000  C
  C62      1.0000 0.78490  0.50200  0.63470  Biso   1.000  C
  C63      1.0000 0.83779  0.48150  0.61780  Biso   1.000  C
  C64      1.0000 0.76222  0.45160  0.70310  Biso   1.000  C
  C65      1.0000 0.86819  0.40890  0.66640  Biso   1.000  C
  H29      1.0000 0.85320  0.51650  0.57350  Biso   1.000  H
  C66      1.0000 0.79311  0.38400  0.75570  Biso   1.000  C
  H30      1.0000 0.72620  0.46360  0.71310  Biso   1.000  H
  C67      1.0000 0.92281  0.37750  0.64130  Biso   1.000  C
  C68      1.0000 0.84564  0.36240  0.73640  Biso   1.000  C
  C69      1.0000 0.77112  0.33120  0.83350  Biso   1.000  C
  C70      1.0000 0.95836  0.44260  0.60890  Biso   1.000  C
  C71      1.0000 0.93755  0.28100  0.64550  Biso   1.000  C
  H31      1.0000 0.86610  0.31570  0.77100  Biso   1.000  H
  H32      1.0000 0.94980  0.50820  0.60650  Biso   1.000  H
  C72      1.0000 0.00700  0.41070  0.57980  Biso   1.000  C
  H33      1.0000 0.91440  0.23620  0.66800  Biso   1.000  H
  C73      1.0000 0.98608  0.24960  0.61690  Biso   1.000  C
  C74      1.0000 0.02062  0.31420  0.58170  Biso   1.000  C
  H34      1.0000 0.03070  0.45550  0.55880  Biso   1.000  H
  H35      1.0000 0.99540  0.18440  0.62150  Biso   1.000  H
  C75      1.0000 0.07078  0.28070  0.54220  Biso   1.000  C
  Ce6      1.0000 0.33094  0.28869  0.52948  Biso   1.000  Ce
  O31      1.0000 0.41669  0.30793  0.45230  Biso   1.000  O
  O32      1.0000 0.40182  0.16061  0.49724  Biso   1.000  O
  O33      1.0000 0.22584  0.35490  0.45673  Biso   1.000  O
  O34      1.0000 0.30022  0.43471  0.43270  Biso   1.000  O
  O35      1.0000 0.27671  0.35187  0.65046  Biso   1.000  O
  O36      1.0000 0.30180  0.22890  0.37587  Biso   1.000  O
  C76      1.0000 0.25034  0.07540  0.57835  Biso   1.000  C
  C77      1.0000 0.28490  0.00200  0.63470  Biso   1.000  C
  C78      1.0000 0.33779  0.98150  0.61780  Biso   1.000  C
  C79      1.0000 0.26222  0.95160  0.70310  Biso   1.000  C
  C80      1.0000 0.36819  0.90890  0.66640  Biso   1.000  C
  H36      1.0000 0.35320  0.01650  0.57350  Biso   1.000  H
  C81      1.0000 0.29311  0.88400  0.75570  Biso   1.000  C
  H37      1.0000 0.22620  0.96360  0.71310  Biso   1.000  H
  C82      1.0000 0.42281  0.87750  0.64130  Biso   1.000  C
  C83      1.0000 0.34564  0.86240  0.73640  Biso   1.000  C
  C84      1.0000 0.27112  0.83120  0.83350  Biso   1.000  C
  C85      1.0000 0.45836  0.94260  0.60890  Biso   1.000  C
  C86      1.0000 0.43755  0.78100  0.64550  Biso   1.000  C
  H38      1.0000 0.36610  0.81570  0.77100  Biso   1.000  H
  H39      1.0000 0.44980  0.00820  0.60650  Biso   1.000  H
  C87      1.0000 0.50700  0.91070  0.57980  Biso   1.000  C
  H40      1.0000 0.41440  0.73620  0.66800  Biso   1.000  H
  C88      1.0000 0.48608  0.74960  0.61690  Biso   1.000  C
  C89      1.0000 0.52062  0.81420  0.58170  Biso   1.000  C
  H41      1.0000 0.53070  0.95550  0.55880  Biso   1.000  H
  H42      1.0000 0.49540  0.68440  0.62150  Biso   1.000  H
  C90      1.0000 0.57078  0.78070  0.54220  Biso   1.000  C
  Ce7      1.0000 0.16906  0.78869  0.97052  Biso   1.000  Ce
  O37      1.0000 0.08331  0.80793  0.04770  Biso   1.000  O
  O38      1.0000 0.09818  0.66061  0.00276  Biso   1.000  O
  O39      1.0000 0.27416  0.85490  0.04327  Biso   1.000  O
  O40      1.0000 0.19978  0.93471  0.06730  Biso   1.000  O
  O41      1.0000 0.22329  0.85187  0.84954  Biso   1.000  O
  O42      1.0000 0.19820  0.72890  0.12413  Biso   1.000  O
  C91      1.0000 0.24966  0.57540  0.92165  Biso   1.000  C
  C92      1.0000 0.21510  0.50200  0.86530  Biso   1.000  C
  C93      1.0000 0.16221  0.48150  0.88220  Biso   1.000  C
  C94      1.0000 0.23778  0.45160  0.79690  Biso   1.000  C
  C95      1.0000 0.13181  0.40890  0.83360  Biso   1.000  C
  H43      1.0000 0.14680  0.51650  0.92650  Biso   1.000  H
  C96      1.0000 0.20689  0.38400  0.74430  Biso   1.000  C
  H44      1.0000 0.27380  0.46360  0.78690  Biso   1.000  H
  C97      1.0000 0.07719  0.37750  0.85870  Biso   1.000  C
  C98      1.0000 0.15436  0.36240  0.76360  Biso   1.000  C
  C99      1.0000 0.22888  0.33120  0.66650  Biso   1.000  C
  C100     1.0000 0.04164  0.44260  0.89110  Biso   1.000  C
  C101     1.0000 0.06245  0.28100  0.85450  Biso   1.000  C
  H45      1.0000 0.13390  0.31570  0.72900  Biso   1.000  H
  H46      1.0000 0.05020  0.50820  0.89350  Biso   1.000  H
  C102     1.0000 0.99300  0.41070  0.92020  Biso   1.000  C
  H47      1.0000 0.08560  0.23620  0.83200  Biso   1.000  H
  C103     1.0000 0.01392  0.24960  0.88310  Biso   1.000  C
  C104     1.0000 0.97938  0.31420  0.91830  Biso   1.000  C
  H48      1.0000 0.96930  0.45550  0.94120  Biso   1.000  H
  H49      1.0000 0.00460  0.18440  0.87850  Biso   1.000  H
  C105     1.0000 0.92922  0.28070  0.95780  Biso   1.000  C
  Ce8      1.0000 0.66906  0.28869  0.97052  Biso   1.000  Ce
  O43      1.0000 0.58331  0.30793  0.04770  Biso   1.000  O
  O44      1.0000 0.59818  0.16061  0.00276  Biso   1.000  O
  O45      1.0000 0.77416  0.35490  0.04327  Biso   1.000  O
  O46      1.0000 0.69978  0.43471  0.06730  Biso   1.000  O
  O47      1.0000 0.72329  0.35187  0.84954  Biso   1.000  O
  O48      1.0000 0.69820  0.22890  0.12413  Biso   1.000  O
  C106     1.0000 0.74966  0.07540  0.92165  Biso   1.000  C
  C107     1.0000 0.71510  0.00200  0.86530  Biso   1.000  C
  C108     1.0000 0.66221  0.98150  0.88220  Biso   1.000  C
  C109     1.0000 0.73778  0.95160  0.79690  Biso   1.000  C
  C110     1.0000 0.63181  0.90890  0.83360  Biso   1.000  C
  H50      1.0000 0.64680  0.01650  0.92650  Biso   1.000  H
  C111     1.0000 0.70689  0.88400  0.74430  Biso   1.000  C
  H51      1.0000 0.77380  0.96360  0.78690  Biso   1.000  H
  C112     1.0000 0.57719  0.87750  0.85870  Biso   1.000  C
  C113     1.0000 0.65436  0.86240  0.76360  Biso   1.000  C
  C114     1.0000 0.72888  0.83120  0.66650  Biso   1.000  C
  C115     1.0000 0.54164  0.94260  0.89110  Biso   1.000  C
  C116     1.0000 0.56245  0.78100  0.85450  Biso   1.000  C
  H52      1.0000 0.63390  0.81570  0.72900  Biso   1.000  H
  H53      1.0000 0.55020  0.00820  0.89350  Biso   1.000  H
  C117     1.0000 0.49300  0.91070  0.92020  Biso   1.000  C
  H54      1.0000 0.58560  0.73620  0.83200  Biso   1.000  H
  C118     1.0000 0.51392  0.74960  0.88310  Biso   1.000  C
  C119     1.0000 0.47938  0.81420  0.91830  Biso   1.000  C
  H55      1.0000 0.46930  0.95550  0.94120  Biso   1.000  H
  H56      1.0000 0.50460  0.68440  0.87850  Biso   1.000  H
  C120     1.0000 0.42922  0.78070  0.95780  Biso   1.000  C
