data_image0
_cell_length_a       25.928
_cell_length_b       25.928
_cell_length_c       25.928
_cell_angle_alpha    90
_cell_angle_beta     90
_cell_angle_gamma    90

_symmetry_space_group_name_H-M    "P 1"
_symmetry_int_tables_number       1

loop_
  _symmetry_equiv_pos_as_xyz
  'x, y, z'

loop_
  _atom_site_label
  _atom_site_occupancy
  _atom_site_fract_x
  _atom_site_fract_y
  _atom_site_fract_z
  _atom_site_thermal_displace_type
  _atom_site_B_iso_or_equiv
  _atom_site_type_symbol
  C1       1.0000 0.02720  0.15150  0.32920  Biso   1.000  C
  C2       1.0000 0.06640  0.16490  0.29130  Biso   1.000  C
  O1       1.0000 0.11115  0.14889  0.29957  Biso   1.000  O
  O2       1.0000 0.05564  0.19320  0.25310  Biso   1.000  O
  N1       1.0000 0.04360  0.13150  0.37504  Biso   1.000  N
  C3       1.0000 0.02720  0.65150  0.82920  Biso   1.000  C
  C4       1.0000 0.06640  0.66490  0.79130  Biso   1.000  C
  O3       1.0000 0.11115  0.64889  0.79957  Biso   1.000  O
  O4       1.0000 0.05564  0.69320  0.75310  Biso   1.000  O
  N2       1.0000 0.04360  0.63150  0.87504  Biso   1.000  N
  C5       1.0000 0.52720  0.15150  0.82920  Biso   1.000  C
  C6       1.0000 0.56640  0.16490  0.79130  Biso   1.000  C
  O5       1.0000 0.61115  0.14889  0.79957  Biso   1.000  O
  O6       1.0000 0.55564  0.19320  0.75310  Biso   1.000  O
  N3       1.0000 0.54360  0.13150  0.87504  Biso   1.000  N
  C7       1.0000 0.52720  0.65150  0.32920  Biso   1.000  C
  C8       1.0000 0.56640  0.66490  0.29130  Biso   1.000  C
  O7       1.0000 0.61115  0.64889  0.29957  Biso   1.000  O
  O8       1.0000 0.55564  0.69320  0.25310  Biso   1.000  O
  N4       1.0000 0.54360  0.63150  0.37504  Biso   1.000  N
  C9       1.0000 0.97280  0.84850  0.32920  Biso   1.000  C
  C10      1.0000 0.93360  0.83510  0.29130  Biso   1.000  C
  O9       1.0000 0.88885  0.85111  0.29957  Biso   1.000  O
  O10      1.0000 0.94436  0.80680  0.25310  Biso   1.000  O
  N5       1.0000 0.95640  0.86850  0.37504  Biso   1.000  N
  C11      1.0000 0.97280  0.34850  0.82920  Biso   1.000  C
  C12      1.0000 0.93360  0.33510  0.79130  Biso   1.000  C
  O11      1.0000 0.88885  0.35111  0.79957  Biso   1.000  O
  O12      1.0000 0.94436  0.30680  0.75310  Biso   1.000  O
  N6       1.0000 0.95640  0.36850  0.87504  Biso   1.000  N
  C13      1.0000 0.47280  0.84850  0.82920  Biso   1.000  C
  C14      1.0000 0.43360  0.83510  0.79130  Biso   1.000  C
  O13      1.0000 0.38885  0.85111  0.79957  Biso   1.000  O
  O14      1.0000 0.44436  0.80680  0.75310  Biso   1.000  O
  N7       1.0000 0.45640  0.86850  0.87504  Biso   1.000  N
  C15      1.0000 0.47280  0.34850  0.32920  Biso   1.000  C
  C16      1.0000 0.43360  0.33510  0.29130  Biso   1.000  C
  O15      1.0000 0.38885  0.35111  0.29957  Biso   1.000  O
  O16      1.0000 0.44436  0.30680  0.25310  Biso   1.000  O
  N8       1.0000 0.45640  0.36850  0.37504  Biso   1.000  N
  C17      1.0000 0.97280  0.15150  0.67080  Biso   1.000  C
  C18      1.0000 0.93360  0.16490  0.70870  Biso   1.000  C
  O17      1.0000 0.88885  0.14889  0.70043  Biso   1.000  O
  O18      1.0000 0.94436  0.19320  0.74690  Biso   1.000  O
  N9       1.0000 0.95640  0.13150  0.62496  Biso   1.000  N
  C19      1.0000 0.97280  0.65150  0.17080  Biso   1.000  C
  C20      1.0000 0.93360  0.66490  0.20870  Biso   1.000  C
  O19      1.0000 0.88885  0.64889  0.20043  Biso   1.000  O
  O20      1.0000 0.94436  0.69320  0.24690  Biso   1.000  O
  N10      1.0000 0.95640  0.63150  0.12496  Biso   1.000  N
  C21      1.0000 0.47280  0.15150  0.17080  Biso   1.000  C
  C22      1.0000 0.43360  0.16490  0.20870  Biso   1.000  C
  O21      1.0000 0.38885  0.14889  0.20043  Biso   1.000  O
  O22      1.0000 0.44436  0.19320  0.24690  Biso   1.000  O
  N11      1.0000 0.45640  0.13150  0.12496  Biso   1.000  N
  C23      1.0000 0.47280  0.65150  0.67080  Biso   1.000  C
  C24      1.0000 0.43360  0.66490  0.70870  Biso   1.000  C
  O23      1.0000 0.38885  0.64889  0.70043  Biso   1.000  O
  O24      1.0000 0.44436  0.69320  0.74690  Biso   1.000  O
  N12      1.0000 0.45640  0.63150  0.62496  Biso   1.000  N
  C25      1.0000 0.02720  0.84850  0.67080  Biso   1.000  C
  C26      1.0000 0.06640  0.83510  0.70870  Biso   1.000  C
  O25      1.0000 0.11115  0.85111  0.70043  Biso   1.000  O
  O26      1.0000 0.05564  0.80680  0.74690  Biso   1.000  O
  N13      1.0000 0.04360  0.86850  0.62496  Biso   1.000  N
  C27      1.0000 0.02720  0.34850  0.17080  Biso   1.000  C
  C28      1.0000 0.06640  0.33510  0.20870  Biso   1.000  C
  O27      1.0000 0.11115  0.35111  0.20043  Biso   1.000  O
  O28      1.0000 0.05564  0.30680  0.24690  Biso   1.000  O
  N14      1.0000 0.04360  0.36850  0.12496  Biso   1.000  N
  C29      1.0000 0.52720  0.84850  0.17080  Biso   1.000  C
  C30      1.0000 0.56640  0.83510  0.20870  Biso   1.000  C
  O29      1.0000 0.61115  0.85111  0.20043  Biso   1.000  O
  O30      1.0000 0.55564  0.80680  0.24690  Biso   1.000  O
  N15      1.0000 0.54360  0.86850  0.12496  Biso   1.000  N
  C31      1.0000 0.52720  0.34850  0.67080  Biso   1.000  C
  C32      1.0000 0.56640  0.33510  0.70870  Biso   1.000  C
  O31      1.0000 0.61115  0.35111  0.70043  Biso   1.000  O
  O32      1.0000 0.55564  0.30680  0.74690  Biso   1.000  O
  N16      1.0000 0.54360  0.36850  0.62496  Biso   1.000  N
  C33      1.0000 0.32920  0.02720  0.15150  Biso   1.000  C
  C34      1.0000 0.29130  0.06640  0.16490  Biso   1.000  C
  O33      1.0000 0.29957  0.11115  0.14889  Biso   1.000  O
  O34      1.0000 0.25310  0.05564  0.19320  Biso   1.000  O
  N17      1.0000 0.37504  0.04360  0.13150  Biso   1.000  N
  C35      1.0000 0.32920  0.52720  0.65150  Biso   1.000  C
  C36      1.0000 0.29130  0.56640  0.66490  Biso   1.000  C
  O35      1.0000 0.29957  0.61115  0.64889  Biso   1.000  O
  O36      1.0000 0.25310  0.55564  0.69320  Biso   1.000  O
  N18      1.0000 0.37504  0.54360  0.63150  Biso   1.000  N
  C37      1.0000 0.82920  0.02720  0.65150  Biso   1.000  C
  C38      1.0000 0.79130  0.06640  0.66490  Biso   1.000  C
  O37      1.0000 0.79957  0.11115  0.64889  Biso   1.000  O
  O38      1.0000 0.75310  0.05564  0.69320  Biso   1.000  O
  N19      1.0000 0.87504  0.04360  0.63150  Biso   1.000  N
  C39      1.0000 0.82920  0.52720  0.15150  Biso   1.000  C
  C40      1.0000 0.79130  0.56640  0.16490  Biso   1.000  C
  O39      1.0000 0.79957  0.61115  0.14889  Biso   1.000  O
  O40      1.0000 0.75310  0.55564  0.19320  Biso   1.000  O
  N20      1.0000 0.87504  0.54360  0.13150  Biso   1.000  N
  C41      1.0000 0.32920  0.97280  0.84850  Biso   1.000  C
  C42      1.0000 0.29130  0.93360  0.83510  Biso   1.000  C
  O41      1.0000 0.29957  0.88885  0.85111  Biso   1.000  O
  O42      1.0000 0.25310  0.94436  0.80680  Biso   1.000  O
  N21      1.0000 0.37504  0.95640  0.86850  Biso   1.000  N
  C43      1.0000 0.32920  0.47280  0.34850  Biso   1.000  C
  C44      1.0000 0.29130  0.43360  0.33510  Biso   1.000  C
  O43      1.0000 0.29957  0.38885  0.35111  Biso   1.000  O
  O44      1.0000 0.25310  0.44436  0.30680  Biso   1.000  O
  N22      1.0000 0.37504  0.45640  0.36850  Biso   1.000  N
  C45      1.0000 0.82920  0.97280  0.34850  Biso   1.000  C
  C46      1.0000 0.79130  0.93360  0.33510  Biso   1.000  C
  O45      1.0000 0.79957  0.88885  0.35111  Biso   1.000  O
  O46      1.0000 0.75310  0.94436  0.30680  Biso   1.000  O
  N23      1.0000 0.87504  0.95640  0.36850  Biso   1.000  N
  C47      1.0000 0.82920  0.47280  0.84850  Biso   1.000  C
  C48      1.0000 0.79130  0.43360  0.83510  Biso   1.000  C
  O47      1.0000 0.79957  0.38885  0.85111  Biso   1.000  O
  O48      1.0000 0.75310  0.44436  0.80680  Biso   1.000  O
  N24      1.0000 0.87504  0.45640  0.86850  Biso   1.000  N
  C49      1.0000 0.67080  0.97280  0.15150  Biso   1.000  C
  C50      1.0000 0.70870  0.93360  0.16490  Biso   1.000  C
  O49      1.0000 0.70043  0.88885  0.14889  Biso   1.000  O
  O50      1.0000 0.74690  0.94436  0.19320  Biso   1.000  O
  N25      1.0000 0.62496  0.95640  0.13150  Biso   1.000  N
  C51      1.0000 0.67080  0.47280  0.65150  Biso   1.000  C
  C52      1.0000 0.70870  0.43360  0.66490  Biso   1.000  C
  O51      1.0000 0.70043  0.38885  0.64889  Biso   1.000  O
  O52      1.0000 0.74690  0.44436  0.69320  Biso   1.000  O
  N26      1.0000 0.62496  0.45640  0.63150  Biso   1.000  N
  C53      1.0000 0.17080  0.97280  0.65150  Biso   1.000  C
  C54      1.0000 0.20870  0.93360  0.66490  Biso   1.000  C
  O53      1.0000 0.20043  0.88885  0.64889  Biso   1.000  O
  O54      1.0000 0.24690  0.94436  0.69320  Biso   1.000  O
  N27      1.0000 0.12496  0.95640  0.63150  Biso   1.000  N
  C55      1.0000 0.17080  0.47280  0.15150  Biso   1.000  C
  C56      1.0000 0.20870  0.43360  0.16490  Biso   1.000  C
  O55      1.0000 0.20043  0.38885  0.14889  Biso   1.000  O
  O56      1.0000 0.24690  0.44436  0.19320  Biso   1.000  O
  N28      1.0000 0.12496  0.45640  0.13150  Biso   1.000  N
  C57      1.0000 0.67080  0.02720  0.84850  Biso   1.000  C
  C58      1.0000 0.70870  0.06640  0.83510  Biso   1.000  C
  O57      1.0000 0.70043  0.11115  0.85111  Biso   1.000  O
  O58      1.0000 0.74690  0.05564  0.80680  Biso   1.000  O
  N29      1.0000 0.62496  0.04360  0.86850  Biso   1.000  N
  C59      1.0000 0.67080  0.52720  0.34850  Biso   1.000  C
  C60      1.0000 0.70870  0.56640  0.33510  Biso   1.000  C
  O59      1.0000 0.70043  0.61115  0.35111  Biso   1.000  O
  O60      1.0000 0.74690  0.55564  0.30680  Biso   1.000  O
  N30      1.0000 0.62496  0.54360  0.36850  Biso   1.000  N
  C61      1.0000 0.17080  0.02720  0.34850  Biso   1.000  C
  C62      1.0000 0.20870  0.06640  0.33510  Biso   1.000  C
  O61      1.0000 0.20043  0.11115  0.35111  Biso   1.000  O
  O62      1.0000 0.24690  0.05564  0.30680  Biso   1.000  O
  N31      1.0000 0.12496  0.04360  0.36850  Biso   1.000  N
  C63      1.0000 0.17080  0.52720  0.84850  Biso   1.000  C
  C64      1.0000 0.20870  0.56640  0.83510  Biso   1.000  C
  O63      1.0000 0.20043  0.61115  0.85111  Biso   1.000  O
  O64      1.0000 0.24690  0.55564  0.80680  Biso   1.000  O
  N32      1.0000 0.12496  0.54360  0.86850  Biso   1.000  N
  C65      1.0000 0.15150  0.32920  0.02720  Biso   1.000  C
  C66      1.0000 0.16490  0.29130  0.06640  Biso   1.000  C
  O65      1.0000 0.14889  0.29957  0.11115  Biso   1.000  O
  O66      1.0000 0.19320  0.25310  0.05564  Biso   1.000  O
  N33      1.0000 0.13150  0.37504  0.04360  Biso   1.000  N
  C67      1.0000 0.15150  0.82920  0.52720  Biso   1.000  C
  C68      1.0000 0.16490  0.79130  0.56640  Biso   1.000  C
  O67      1.0000 0.14889  0.79957  0.61115  Biso   1.000  O
  O68      1.0000 0.19320  0.75310  0.55564  Biso   1.000  O
  N34      1.0000 0.13150  0.87504  0.54360  Biso   1.000  N
  C69      1.0000 0.65150  0.32920  0.52720  Biso   1.000  C
  C70      1.0000 0.66490  0.29130  0.56640  Biso   1.000  C
  O69      1.0000 0.64889  0.29957  0.61115  Biso   1.000  O
  O70      1.0000 0.69320  0.25310  0.55564  Biso   1.000  O
  N35      1.0000 0.63150  0.37504  0.54360  Biso   1.000  N
  C71      1.0000 0.65150  0.82920  0.02720  Biso   1.000  C
  C72      1.0000 0.66490  0.79130  0.06640  Biso   1.000  C
  O71      1.0000 0.64889  0.79957  0.11115  Biso   1.000  O
  O72      1.0000 0.69320  0.75310  0.05564  Biso   1.000  O
  N36      1.0000 0.63150  0.87504  0.04360  Biso   1.000  N
  C73      1.0000 0.84850  0.32920  0.97280  Biso   1.000  C
  C74      1.0000 0.83510  0.29130  0.93360  Biso   1.000  C
  O73      1.0000 0.85111  0.29957  0.88885  Biso   1.000  O
  O74      1.0000 0.80680  0.25310  0.94436  Biso   1.000  O
  N37      1.0000 0.86850  0.37504  0.95640  Biso   1.000  N
  C75      1.0000 0.84850  0.82920  0.47280  Biso   1.000  C
  C76      1.0000 0.83510  0.79130  0.43360  Biso   1.000  C
  O75      1.0000 0.85111  0.79957  0.38885  Biso   1.000  O
  O76      1.0000 0.80680  0.75310  0.44436  Biso   1.000  O
  N38      1.0000 0.86850  0.87504  0.45640  Biso   1.000  N
  C77      1.0000 0.34850  0.32920  0.47280  Biso   1.000  C
  C78      1.0000 0.33510  0.29130  0.43360  Biso   1.000  C
  O77      1.0000 0.35111  0.29957  0.38885  Biso   1.000  O
  O78      1.0000 0.30680  0.25310  0.44436  Biso   1.000  O
  N39      1.0000 0.36850  0.37504  0.45640  Biso   1.000  N
  C79      1.0000 0.34850  0.82920  0.97280  Biso   1.000  C
  C80      1.0000 0.33510  0.79130  0.93360  Biso   1.000  C
  O79      1.0000 0.35111  0.79957  0.88885  Biso   1.000  O
  O80      1.0000 0.30680  0.75310  0.94436  Biso   1.000  O
  N40      1.0000 0.36850  0.87504  0.95640  Biso   1.000  N
  C81      1.0000 0.15150  0.67080  0.97280  Biso   1.000  C
  C82      1.0000 0.16490  0.70870  0.93360  Biso   1.000  C
  O81      1.0000 0.14889  0.70043  0.88885  Biso   1.000  O
  O82      1.0000 0.19320  0.74690  0.94436  Biso   1.000  O
  N41      1.0000 0.13150  0.62496  0.95640  Biso   1.000  N
  C83      1.0000 0.15150  0.17080  0.47280  Biso   1.000  C
  C84      1.0000 0.16490  0.20870  0.43360  Biso   1.000  C
  O83      1.0000 0.14889  0.20043  0.38885  Biso   1.000  O
  O84      1.0000 0.19320  0.24690  0.44436  Biso   1.000  O
  N42      1.0000 0.13150  0.12496  0.45640  Biso   1.000  N
  C85      1.0000 0.65150  0.67080  0.47280  Biso   1.000  C
  C86      1.0000 0.66490  0.70870  0.43360  Biso   1.000  C
  O85      1.0000 0.64889  0.70043  0.38885  Biso   1.000  O
  O86      1.0000 0.69320  0.74690  0.44436  Biso   1.000  O
  N43      1.0000 0.63150  0.62496  0.45640  Biso   1.000  N
  C87      1.0000 0.65150  0.17080  0.97280  Biso   1.000  C
  C88      1.0000 0.66490  0.20870  0.93360  Biso   1.000  C
  O87      1.0000 0.64889  0.20043  0.88885  Biso   1.000  O
  O88      1.0000 0.69320  0.24690  0.94436  Biso   1.000  O
  N44      1.0000 0.63150  0.12496  0.95640  Biso   1.000  N
  C89      1.0000 0.84850  0.67080  0.02720  Biso   1.000  C
  C90      1.0000 0.83510  0.70870  0.06640  Biso   1.000  C
  O89      1.0000 0.85111  0.70043  0.11115  Biso   1.000  O
  O90      1.0000 0.80680  0.74690  0.05564  Biso   1.000  O
  N45      1.0000 0.86850  0.62496  0.04360  Biso   1.000  N
  C91      1.0000 0.84850  0.17080  0.52720  Biso   1.000  C
  C92      1.0000 0.83510  0.20870  0.56640  Biso   1.000  C
  O91      1.0000 0.85111  0.20043  0.61115  Biso   1.000  O
  O92      1.0000 0.80680  0.24690  0.55564  Biso   1.000  O
  N46      1.0000 0.86850  0.12496  0.54360  Biso   1.000  N
  C93      1.0000 0.34850  0.67080  0.52720  Biso   1.000  C
  C94      1.0000 0.33510  0.70870  0.56640  Biso   1.000  C
  O93      1.0000 0.35111  0.70043  0.61115  Biso   1.000  O
  O94      1.0000 0.30680  0.74690  0.55564  Biso   1.000  O
  N47      1.0000 0.36850  0.62496  0.54360  Biso   1.000  N
  C95      1.0000 0.34850  0.17080  0.02720  Biso   1.000  C
  C96      1.0000 0.33510  0.20870  0.06640  Biso   1.000  C
  O95      1.0000 0.35111  0.20043  0.11115  Biso   1.000  O
  O96      1.0000 0.30680  0.24690  0.05564  Biso   1.000  O
  N48      1.0000 0.36850  0.12496  0.04360  Biso   1.000  N
  C97      1.0000 0.97280  0.84850  0.67080  Biso   1.000  C
  C98      1.0000 0.93360  0.83510  0.70870  Biso   1.000  C
  O97      1.0000 0.88885  0.85111  0.70043  Biso   1.000  O
  O98      1.0000 0.94436  0.80680  0.74690  Biso   1.000  O
  N49      1.0000 0.95640  0.86850  0.62496  Biso   1.000  N
  C99      1.0000 0.97280  0.34850  0.17080  Biso   1.000  C
  C100     1.0000 0.93360  0.33510  0.20870  Biso   1.000  C
  O99      1.0000 0.88885  0.35111  0.20043  Biso   1.000  O
  O100     1.0000 0.94436  0.30680  0.24690  Biso   1.000  O
  N50      1.0000 0.95640  0.36850  0.12496  Biso   1.000  N
  C101     1.0000 0.47280  0.84850  0.17080  Biso   1.000  C
  C102     1.0000 0.43360  0.83510  0.20870  Biso   1.000  C
  O101     1.0000 0.38885  0.85111  0.20043  Biso   1.000  O
  O102     1.0000 0.44436  0.80680  0.24690  Biso   1.000  O
  N51      1.0000 0.45640  0.86850  0.12496  Biso   1.000  N
  C103     1.0000 0.47280  0.34850  0.67080  Biso   1.000  C
  C104     1.0000 0.43360  0.33510  0.70870  Biso   1.000  C
  O103     1.0000 0.38885  0.35111  0.70043  Biso   1.000  O
  O104     1.0000 0.44436  0.30680  0.74690  Biso   1.000  O
  N52      1.0000 0.45640  0.36850  0.62496  Biso   1.000  N
  C105     1.0000 0.02720  0.15150  0.67080  Biso   1.000  C
  C106     1.0000 0.06640  0.16490  0.70870  Biso   1.000  C
  O105     1.0000 0.11115  0.14889  0.70043  Biso   1.000  O
  O106     1.0000 0.05564  0.19320  0.74690  Biso   1.000  O
  N53      1.0000 0.04360  0.13150  0.62496  Biso   1.000  N
  C107     1.0000 0.02720  0.65150  0.17080  Biso   1.000  C
  C108     1.0000 0.06640  0.66490  0.20870  Biso   1.000  C
  O107     1.0000 0.11115  0.64889  0.20043  Biso   1.000  O
  O108     1.0000 0.05564  0.69320  0.24690  Biso   1.000  O
  N54      1.0000 0.04360  0.63150  0.12496  Biso   1.000  N
  C109     1.0000 0.52720  0.15150  0.17080  Biso   1.000  C
  C110     1.0000 0.56640  0.16490  0.20870  Biso   1.000  C
  O109     1.0000 0.61115  0.14889  0.20043  Biso   1.000  O
  O110     1.0000 0.55564  0.19320  0.24690  Biso   1.000  O
  N55      1.0000 0.54360  0.13150  0.12496  Biso   1.000  N
  C111     1.0000 0.52720  0.65150  0.67080  Biso   1.000  C
  C112     1.0000 0.56640  0.66490  0.70870  Biso   1.000  C
  O111     1.0000 0.61115  0.64889  0.70043  Biso   1.000  O
  O112     1.0000 0.55564  0.69320  0.74690  Biso   1.000  O
  N56      1.0000 0.54360  0.63150  0.62496  Biso   1.000  N
  C113     1.0000 0.02720  0.84850  0.32920  Biso   1.000  C
  C114     1.0000 0.06640  0.83510  0.29130  Biso   1.000  C
  O113     1.0000 0.11115  0.85111  0.29957  Biso   1.000  O
  O114     1.0000 0.05564  0.80680  0.25310  Biso   1.000  O
  N57      1.0000 0.04360  0.86850  0.37504  Biso   1.000  N
  C115     1.0000 0.02720  0.34850  0.82920  Biso   1.000  C
  C116     1.0000 0.06640  0.33510  0.79130  Biso   1.000  C
  O115     1.0000 0.11115  0.35111  0.79957  Biso   1.000  O
  O116     1.0000 0.05564  0.30680  0.75310  Biso   1.000  O
  N58      1.0000 0.04360  0.36850  0.87504  Biso   1.000  N
  C117     1.0000 0.52720  0.84850  0.82920  Biso   1.000  C
  C118     1.0000 0.56640  0.83510  0.79130  Biso   1.000  C
  O117     1.0000 0.61115  0.85111  0.79957  Biso   1.000  O
  O118     1.0000 0.55564  0.80680  0.75310  Biso   1.000  O
  N59      1.0000 0.54360  0.86850  0.87504  Biso   1.000  N
  C119     1.0000 0.52720  0.34850  0.32920  Biso   1.000  C
  C120     1.0000 0.56640  0.33510  0.29130  Biso   1.000  C
  O119     1.0000 0.61115  0.35111  0.29957  Biso   1.000  O
  O120     1.0000 0.55564  0.30680  0.25310  Biso   1.000  O
  N60      1.0000 0.54360  0.36850  0.37504  Biso   1.000  N
  C121     1.0000 0.97280  0.15150  0.32920  Biso   1.000  C
  C122     1.0000 0.93360  0.16490  0.29130  Biso   1.000  C
  O121     1.0000 0.88885  0.14889  0.29957  Biso   1.000  O
  O122     1.0000 0.94436  0.19320  0.25310  Biso   1.000  O
  N61      1.0000 0.95640  0.13150  0.37504  Biso   1.000  N
  C123     1.0000 0.97280  0.65150  0.82920  Biso   1.000  C
  C124     1.0000 0.93360  0.66490  0.79130  Biso   1.000  C
  O123     1.0000 0.88885  0.64889  0.79957  Biso   1.000  O
  O124     1.0000 0.94436  0.69320  0.75310  Biso   1.000  O
  N62      1.0000 0.95640  0.63150  0.87504  Biso   1.000  N
  C125     1.0000 0.47280  0.15150  0.82920  Biso   1.000  C
  C126     1.0000 0.43360  0.16490  0.79130  Biso   1.000  C
  O125     1.0000 0.38885  0.14889  0.79957  Biso   1.000  O
  O126     1.0000 0.44436  0.19320  0.75310  Biso   1.000  O
  N63      1.0000 0.45640  0.13150  0.87504  Biso   1.000  N
  C127     1.0000 0.47280  0.65150  0.32920  Biso   1.000  C
  C128     1.0000 0.43360  0.66490  0.29130  Biso   1.000  C
  O127     1.0000 0.38885  0.64889  0.29957  Biso   1.000  O
  O128     1.0000 0.44436  0.69320  0.25310  Biso   1.000  O
  N64      1.0000 0.45640  0.63150  0.37504  Biso   1.000  N
  C129     1.0000 0.67080  0.97280  0.84850  Biso   1.000  C
  C130     1.0000 0.70870  0.93360  0.83510  Biso   1.000  C
  O129     1.0000 0.70043  0.88885  0.85111  Biso   1.000  O
  O130     1.0000 0.74690  0.94436  0.80680  Biso   1.000  O
  N65      1.0000 0.62496  0.95640  0.86850  Biso   1.000  N
  C131     1.0000 0.67080  0.47280  0.34850  Biso   1.000  C
  C132     1.0000 0.70870  0.43360  0.33510  Biso   1.000  C
  O131     1.0000 0.70043  0.38885  0.35111  Biso   1.000  O
  O132     1.0000 0.74690  0.44436  0.30680  Biso   1.000  O
  N66      1.0000 0.62496  0.45640  0.36850  Biso   1.000  N
  C133     1.0000 0.17080  0.97280  0.34850  Biso   1.000  C
  C134     1.0000 0.20870  0.93360  0.33510  Biso   1.000  C
  O133     1.0000 0.20043  0.88885  0.35111  Biso   1.000  O
  O134     1.0000 0.24690  0.94436  0.30680  Biso   1.000  O
  N67      1.0000 0.12496  0.95640  0.36850  Biso   1.000  N
  C135     1.0000 0.17080  0.47280  0.84850  Biso   1.000  C
  C136     1.0000 0.20870  0.43360  0.83510  Biso   1.000  C
  O135     1.0000 0.20043  0.38885  0.85111  Biso   1.000  O
  O136     1.0000 0.24690  0.44436  0.80680  Biso   1.000  O
  N68      1.0000 0.12496  0.45640  0.86850  Biso   1.000  N
  C137     1.0000 0.67080  0.02720  0.15150  Biso   1.000  C
  C138     1.0000 0.70870  0.06640  0.16490  Biso   1.000  C
  O137     1.0000 0.70043  0.11115  0.14889  Biso   1.000  O
  O138     1.0000 0.74690  0.05564  0.19320  Biso   1.000  O
  N69      1.0000 0.62496  0.04360  0.13150  Biso   1.000  N
  C139     1.0000 0.67080  0.52720  0.65150  Biso   1.000  C
  C140     1.0000 0.70870  0.56640  0.66490  Biso   1.000  C
  O139     1.0000 0.70043  0.61115  0.64889  Biso   1.000  O
  O140     1.0000 0.74690  0.55564  0.69320  Biso   1.000  O
  N70      1.0000 0.62496  0.54360  0.63150  Biso   1.000  N
  C141     1.0000 0.17080  0.02720  0.65150  Biso   1.000  C
  C142     1.0000 0.20870  0.06640  0.66490  Biso   1.000  C
  O141     1.0000 0.20043  0.11115  0.64889  Biso   1.000  O
  O142     1.0000 0.24690  0.05564  0.69320  Biso   1.000  O
  N71      1.0000 0.12496  0.04360  0.63150  Biso   1.000  N
  C143     1.0000 0.17080  0.52720  0.15150  Biso   1.000  C
  C144     1.0000 0.20870  0.56640  0.16490  Biso   1.000  C
  O143     1.0000 0.20043  0.61115  0.14889  Biso   1.000  O
  O144     1.0000 0.24690  0.55564  0.19320  Biso   1.000  O
  N72      1.0000 0.12496  0.54360  0.13150  Biso   1.000  N
  C145     1.0000 0.32920  0.02720  0.84850  Biso   1.000  C
  C146     1.0000 0.29130  0.06640  0.83510  Biso   1.000  C
  O145     1.0000 0.29957  0.11115  0.85111  Biso   1.000  O
  O146     1.0000 0.25310  0.05564  0.80680  Biso   1.000  O
  N73      1.0000 0.37504  0.04360  0.86850  Biso   1.000  N
  C147     1.0000 0.32920  0.52720  0.34850  Biso   1.000  C
  C148     1.0000 0.29130  0.56640  0.33510  Biso   1.000  C
  O147     1.0000 0.29957  0.61115  0.35111  Biso   1.000  O
  O148     1.0000 0.25310  0.55564  0.30680  Biso   1.000  O
  N74      1.0000 0.37504  0.54360  0.36850  Biso   1.000  N
  C149     1.0000 0.82920  0.02720  0.34850  Biso   1.000  C
  C150     1.0000 0.79130  0.06640  0.33510  Biso   1.000  C
  O149     1.0000 0.79957  0.11115  0.35111  Biso   1.000  O
  O150     1.0000 0.75310  0.05564  0.30680  Biso   1.000  O
  N75      1.0000 0.87504  0.04360  0.36850  Biso   1.000  N
  C151     1.0000 0.82920  0.52720  0.84850  Biso   1.000  C
  C152     1.0000 0.79130  0.56640  0.83510  Biso   1.000  C
  O151     1.0000 0.79957  0.61115  0.85111  Biso   1.000  O
  O152     1.0000 0.75310  0.55564  0.80680  Biso   1.000  O
  N76      1.0000 0.87504  0.54360  0.86850  Biso   1.000  N
  C153     1.0000 0.32920  0.97280  0.15150  Biso   1.000  C
  C154     1.0000 0.29130  0.93360  0.16490  Biso   1.000  C
  O153     1.0000 0.29957  0.88885  0.14889  Biso   1.000  O
  O154     1.0000 0.25310  0.94436  0.19320  Biso   1.000  O
  N77      1.0000 0.37504  0.95640  0.13150  Biso   1.000  N
  C155     1.0000 0.32920  0.47280  0.65150  Biso   1.000  C
  C156     1.0000 0.29130  0.43360  0.66490  Biso   1.000  C
  O155     1.0000 0.29957  0.38885  0.64889  Biso   1.000  O
  O156     1.0000 0.25310  0.44436  0.69320  Biso   1.000  O
  N78      1.0000 0.37504  0.45640  0.63150  Biso   1.000  N
  C157     1.0000 0.82920  0.97280  0.65150  Biso   1.000  C
  C158     1.0000 0.79130  0.93360  0.66490  Biso   1.000  C
  O157     1.0000 0.79957  0.88885  0.64889  Biso   1.000  O
  O158     1.0000 0.75310  0.94436  0.69320  Biso   1.000  O
  N79      1.0000 0.87504  0.95640  0.63150  Biso   1.000  N
  C159     1.0000 0.82920  0.47280  0.15150  Biso   1.000  C
  C160     1.0000 0.79130  0.43360  0.16490  Biso   1.000  C
  O159     1.0000 0.79957  0.38885  0.14889  Biso   1.000  O
  O160     1.0000 0.75310  0.44436  0.19320  Biso   1.000  O
  N80      1.0000 0.87504  0.45640  0.13150  Biso   1.000  N
  C161     1.0000 0.84850  0.67080  0.97280  Biso   1.000  C
  C162     1.0000 0.83510  0.70870  0.93360  Biso   1.000  C
  O161     1.0000 0.85111  0.70043  0.88885  Biso   1.000  O
  O162     1.0000 0.80680  0.74690  0.94436  Biso   1.000  O
  N81      1.0000 0.86850  0.62496  0.95640  Biso   1.000  N
  C163     1.0000 0.84850  0.17080  0.47280  Biso   1.000  C
  C164     1.0000 0.83510  0.20870  0.43360  Biso   1.000  C
  O163     1.0000 0.85111  0.20043  0.38885  Biso   1.000  O
  O164     1.0000 0.80680  0.24690  0.44436  Biso   1.000  O
  N82      1.0000 0.86850  0.12496  0.45640  Biso   1.000  N
  C165     1.0000 0.34850  0.67080  0.47280  Biso   1.000  C
  C166     1.0000 0.33510  0.70870  0.43360  Biso   1.000  C
  O165     1.0000 0.35111  0.70043  0.38885  Biso   1.000  O
  O166     1.0000 0.30680  0.74690  0.44436  Biso   1.000  O
  N83      1.0000 0.36850  0.62496  0.45640  Biso   1.000  N
  C167     1.0000 0.34850  0.17080  0.97280  Biso   1.000  C
  C168     1.0000 0.33510  0.20870  0.93360  Biso   1.000  C
  O167     1.0000 0.35111  0.20043  0.88885  Biso   1.000  O
  O168     1.0000 0.30680  0.24690  0.94436  Biso   1.000  O
  N84      1.0000 0.36850  0.12496  0.95640  Biso   1.000  N
  C169     1.0000 0.15150  0.67080  0.02720  Biso   1.000  C
  C170     1.0000 0.16490  0.70870  0.06640  Biso   1.000  C
  O169     1.0000 0.14889  0.70043  0.11115  Biso   1.000  O
  O170     1.0000 0.19320  0.74690  0.05564  Biso   1.000  O
  N85      1.0000 0.13150  0.62496  0.04360  Biso   1.000  N
  C171     1.0000 0.15150  0.17080  0.52720  Biso   1.000  C
  C172     1.0000 0.16490  0.20870  0.56640  Biso   1.000  C
  O171     1.0000 0.14889  0.20043  0.61115  Biso   1.000  O
  O172     1.0000 0.19320  0.24690  0.55564  Biso   1.000  O
  N86      1.0000 0.13150  0.12496  0.54360  Biso   1.000  N
  C173     1.0000 0.65150  0.67080  0.52720  Biso   1.000  C
  C174     1.0000 0.66490  0.70870  0.56640  Biso   1.000  C
  O173     1.0000 0.64889  0.70043  0.61115  Biso   1.000  O
  O174     1.0000 0.69320  0.74690  0.55564  Biso   1.000  O
  N87      1.0000 0.63150  0.62496  0.54360  Biso   1.000  N
  C175     1.0000 0.65150  0.17080  0.02720  Biso   1.000  C
  C176     1.0000 0.66490  0.20870  0.06640  Biso   1.000  C
  O175     1.0000 0.64889  0.20043  0.11115  Biso   1.000  O
  O176     1.0000 0.69320  0.24690  0.05564  Biso   1.000  O
  N88      1.0000 0.63150  0.12496  0.04360  Biso   1.000  N
  C177     1.0000 0.84850  0.32920  0.02720  Biso   1.000  C
  C178     1.0000 0.83510  0.29130  0.06640  Biso   1.000  C
  O177     1.0000 0.85111  0.29957  0.11115  Biso   1.000  O
  O178     1.0000 0.80680  0.25310  0.05564  Biso   1.000  O
  N89      1.0000 0.86850  0.37504  0.04360  Biso   1.000  N
  C179     1.0000 0.84850  0.82920  0.52720  Biso   1.000  C
  C180     1.0000 0.83510  0.79130  0.56640  Biso   1.000  C
  O179     1.0000 0.85111  0.79957  0.61115  Biso   1.000  O
  O180     1.0000 0.80680  0.75310  0.55564  Biso   1.000  O
  N90      1.0000 0.86850  0.87504  0.54360  Biso   1.000  N
  C181     1.0000 0.34850  0.32920  0.52720  Biso   1.000  C
  C182     1.0000 0.33510  0.29130  0.56640  Biso   1.000  C
  O181     1.0000 0.35111  0.29957  0.61115  Biso   1.000  O
  O182     1.0000 0.30680  0.25310  0.55564  Biso   1.000  O
  N91      1.0000 0.36850  0.37504  0.54360  Biso   1.000  N
  C183     1.0000 0.34850  0.82920  0.02720  Biso   1.000  C
  C184     1.0000 0.33510  0.79130  0.06640  Biso   1.000  C
  O183     1.0000 0.35111  0.79957  0.11115  Biso   1.000  O
  O184     1.0000 0.30680  0.75310  0.05564  Biso   1.000  O
  N92      1.0000 0.36850  0.87504  0.04360  Biso   1.000  N
  C185     1.0000 0.15150  0.32920  0.97280  Biso   1.000  C
  C186     1.0000 0.16490  0.29130  0.93360  Biso   1.000  C
  O185     1.0000 0.14889  0.29957  0.88885  Biso   1.000  O
  O186     1.0000 0.19320  0.25310  0.94436  Biso   1.000  O
  N93      1.0000 0.13150  0.37504  0.95640  Biso   1.000  N
  C187     1.0000 0.15150  0.82920  0.47280  Biso   1.000  C
  C188     1.0000 0.16490  0.79130  0.43360  Biso   1.000  C
  O187     1.0000 0.14889  0.79957  0.38885  Biso   1.000  O
  O188     1.0000 0.19320  0.75310  0.44436  Biso   1.000  O
  N94      1.0000 0.13150  0.87504  0.45640  Biso   1.000  N
  C189     1.0000 0.65150  0.32920  0.47280  Biso   1.000  C
  C190     1.0000 0.66490  0.29130  0.43360  Biso   1.000  C
  O189     1.0000 0.64889  0.29957  0.38885  Biso   1.000  O
  O190     1.0000 0.69320  0.25310  0.44436  Biso   1.000  O
  N95      1.0000 0.63150  0.37504  0.45640  Biso   1.000  N
  C191     1.0000 0.65150  0.82920  0.97280  Biso   1.000  C
  C192     1.0000 0.66490  0.79130  0.93360  Biso   1.000  C
  O191     1.0000 0.64889  0.79957  0.88885  Biso   1.000  O
  O192     1.0000 0.69320  0.75310  0.94436  Biso   1.000  O
  N96      1.0000 0.63150  0.87504  0.95640  Biso   1.000  N
  Co1      1.0000 0.12287  0.12287  0.37713  Biso   1.000  Co
  Co2      1.0000 0.87713  0.87713  0.37713  Biso   1.000  Co
  Co3      1.0000 0.37713  0.37713  0.37713  Biso   1.000  Co
  Co4      1.0000 0.87713  0.12287  0.62287  Biso   1.000  Co
  Co5      1.0000 0.37713  0.12287  0.12287  Biso   1.000  Co
  Co6      1.0000 0.12287  0.87713  0.62287  Biso   1.000  Co
  Co7      1.0000 0.12287  0.37713  0.12287  Biso   1.000  Co
  Co8      1.0000 0.37713  0.62287  0.62287  Biso   1.000  Co
  Co9      1.0000 0.37713  0.87713  0.87713  Biso   1.000  Co
  Co10     1.0000 0.62287  0.87713  0.12287  Biso   1.000  Co
  Co11     1.0000 0.62287  0.37713  0.62287  Biso   1.000  Co
  Co12     1.0000 0.62287  0.12287  0.87713  Biso   1.000  Co
  Co13     1.0000 0.62287  0.62287  0.37713  Biso   1.000  Co
  Co14     1.0000 0.87713  0.37713  0.87713  Biso   1.000  Co
  Co15     1.0000 0.12287  0.62287  0.87713  Biso   1.000  Co
  Co16     1.0000 0.87713  0.62287  0.12287  Biso   1.000  Co
  Co17     1.0000 0.87713  0.87713  0.62287  Biso   1.000  Co
  Co18     1.0000 0.87713  0.37713  0.12287  Biso   1.000  Co
  Co19     1.0000 0.37713  0.87713  0.12287  Biso   1.000  Co
  Co20     1.0000 0.12287  0.12287  0.62287  Biso   1.000  Co
  Co21     1.0000 0.12287  0.87713  0.37713  Biso   1.000  Co
  Co22     1.0000 0.87713  0.12287  0.37713  Biso   1.000  Co
  Co23     1.0000 0.37713  0.62287  0.37713  Biso   1.000  Co
  Co24     1.0000 0.62287  0.87713  0.87713  Biso   1.000  Co
  Co25     1.0000 0.62287  0.37713  0.37713  Biso   1.000  Co
  Co26     1.0000 0.12287  0.37713  0.87713  Biso   1.000  Co
  Co27     1.0000 0.62287  0.12287  0.12287  Biso   1.000  Co
  Co28     1.0000 0.62287  0.62287  0.62287  Biso   1.000  Co
  Co29     1.0000 0.37713  0.12287  0.87713  Biso   1.000  Co
  Co30     1.0000 0.37713  0.37713  0.62287  Biso   1.000  Co
  Co31     1.0000 0.87713  0.62287  0.87713  Biso   1.000  Co
  Co32     1.0000 0.12287  0.62287  0.12287  Biso   1.000  Co
  Co33     1.0000 0.00000  0.25000  0.25000  Biso   1.000  Co
  Co34     1.0000 0.50000  0.25000  0.75000  Biso   1.000  Co
  Co35     1.0000 0.00000  0.75000  0.25000  Biso   1.000  Co
  Co36     1.0000 0.50000  0.75000  0.75000  Biso   1.000  Co
  Co37     1.0000 0.50000  0.25000  0.25000  Biso   1.000  Co
  Co38     1.0000 0.00000  0.25000  0.75000  Biso   1.000  Co
  Co39     1.0000 0.00000  0.75000  0.75000  Biso   1.000  Co
  Co40     1.0000 0.50000  0.75000  0.25000  Biso   1.000  Co
  Co41     1.0000 0.25000  0.00000  0.25000  Biso   1.000  Co
  Co42     1.0000 0.25000  0.50000  0.75000  Biso   1.000  Co
  Co43     1.0000 0.25000  0.00000  0.75000  Biso   1.000  Co
  Co44     1.0000 0.25000  0.50000  0.25000  Biso   1.000  Co
  Co45     1.0000 0.75000  0.00000  0.25000  Biso   1.000  Co
  Co46     1.0000 0.75000  0.50000  0.75000  Biso   1.000  Co
  Co47     1.0000 0.75000  0.00000  0.75000  Biso   1.000  Co
  Co48     1.0000 0.75000  0.50000  0.25000  Biso   1.000  Co
  Co49     1.0000 0.25000  0.25000  0.00000  Biso   1.000  Co
  Co50     1.0000 0.25000  0.75000  0.50000  Biso   1.000  Co
  Co51     1.0000 0.75000  0.25000  0.00000  Biso   1.000  Co
  Co52     1.0000 0.75000  0.75000  0.50000  Biso   1.000  Co
  Co53     1.0000 0.25000  0.25000  0.50000  Biso   1.000  Co
  Co54     1.0000 0.25000  0.75000  0.00000  Biso   1.000  Co
  Co55     1.0000 0.75000  0.75000  0.00000  Biso   1.000  Co
  Co56     1.0000 0.75000  0.25000  0.50000  Biso   1.000  Co
  C193     1.0000 0.00000  0.12150  0.40090  Biso   1.000  C
  H1       1.0000 0.00000  0.10830  0.43510  Biso   1.000  H
  C194     1.0000 0.00000  0.62150  0.90090  Biso   1.000  C
  H2       1.0000 0.00000  0.60830  0.93510  Biso   1.000  H
  C195     1.0000 0.50000  0.12150  0.90090  Biso   1.000  C
  H3       1.0000 0.50000  0.10830  0.93510  Biso   1.000  H
  C196     1.0000 0.50000  0.62150  0.40090  Biso   1.000  C
  H4       1.0000 0.50000  0.60830  0.43510  Biso   1.000  H
  C197     1.0000 0.00000  0.87850  0.40090  Biso   1.000  C
  H5       1.0000 0.00000  0.89170  0.43510  Biso   1.000  H
  C198     1.0000 0.00000  0.37850  0.90090  Biso   1.000  C
  H6       1.0000 0.00000  0.39170  0.93510  Biso   1.000  H
  C199     1.0000 0.50000  0.87850  0.90090  Biso   1.000  C
  H7       1.0000 0.50000  0.89170  0.93510  Biso   1.000  H
  C200     1.0000 0.50000  0.37850  0.40090  Biso   1.000  C
  H8       1.0000 0.50000  0.39170  0.43510  Biso   1.000  H
  C201     1.0000 0.00000  0.12150  0.59910  Biso   1.000  C
  H9       1.0000 0.00000  0.10830  0.56490  Biso   1.000  H
  C202     1.0000 0.00000  0.62150  0.09910  Biso   1.000  C
  H10      1.0000 0.00000  0.60830  0.06490  Biso   1.000  H
  C203     1.0000 0.50000  0.12150  0.09910  Biso   1.000  C
  H11      1.0000 0.50000  0.10830  0.06490  Biso   1.000  H
  C204     1.0000 0.50000  0.62150  0.59910  Biso   1.000  C
  H12      1.0000 0.50000  0.60830  0.56490  Biso   1.000  H
  C205     1.0000 0.00000  0.87850  0.59910  Biso   1.000  C
  H13      1.0000 0.00000  0.89170  0.56490  Biso   1.000  H
  C206     1.0000 0.00000  0.37850  0.09910  Biso   1.000  C
  H14      1.0000 0.00000  0.39170  0.06490  Biso   1.000  H
  C207     1.0000 0.50000  0.87850  0.09910  Biso   1.000  C
  H15      1.0000 0.50000  0.89170  0.06490  Biso   1.000  H
  C208     1.0000 0.50000  0.37850  0.59910  Biso   1.000  C
  H16      1.0000 0.50000  0.39170  0.56490  Biso   1.000  H
  C209     1.0000 0.40090  0.00000  0.12150  Biso   1.000  C
  H17      1.0000 0.43510  0.00000  0.10830  Biso   1.000  H
  C210     1.0000 0.40090  0.50000  0.62150  Biso   1.000  C
  H18      1.0000 0.43510  0.50000  0.60830  Biso   1.000  H
  C211     1.0000 0.90090  0.00000  0.62150  Biso   1.000  C
  H19      1.0000 0.93510  0.00000  0.60830  Biso   1.000  H
  C212     1.0000 0.90090  0.50000  0.12150  Biso   1.000  C
  H20      1.0000 0.93510  0.50000  0.10830  Biso   1.000  H
  C213     1.0000 0.40090  0.00000  0.87850  Biso   1.000  C
  H21      1.0000 0.43510  0.00000  0.89170  Biso   1.000  H
  C214     1.0000 0.40090  0.50000  0.37850  Biso   1.000  C
  H22      1.0000 0.43510  0.50000  0.39170  Biso   1.000  H
  C215     1.0000 0.90090  0.00000  0.37850  Biso   1.000  C
  H23      1.0000 0.93510  0.00000  0.39170  Biso   1.000  H
  C216     1.0000 0.90090  0.50000  0.87850  Biso   1.000  C
  H24      1.0000 0.93510  0.50000  0.89170  Biso   1.000  H
  C217     1.0000 0.59910  0.00000  0.12150  Biso   1.000  C
  H25      1.0000 0.56490  0.00000  0.10830  Biso   1.000  H
  C218     1.0000 0.59910  0.50000  0.62150  Biso   1.000  C
  H26      1.0000 0.56490  0.50000  0.60830  Biso   1.000  H
  C219     1.0000 0.09910  0.00000  0.62150  Biso   1.000  C
  H27      1.0000 0.06490  0.00000  0.60830  Biso   1.000  H
  C220     1.0000 0.09910  0.50000  0.12150  Biso   1.000  C
  H28      1.0000 0.06490  0.50000  0.10830  Biso   1.000  H
  C221     1.0000 0.59910  0.00000  0.87850  Biso   1.000  C
  H29      1.0000 0.56490  0.00000  0.89170  Biso   1.000  H
  C222     1.0000 0.59910  0.50000  0.37850  Biso   1.000  C
  H30      1.0000 0.56490  0.50000  0.39170  Biso   1.000  H
  C223     1.0000 0.09910  0.00000  0.37850  Biso   1.000  C
  H31      1.0000 0.06490  0.00000  0.39170  Biso   1.000  H
  C224     1.0000 0.09910  0.50000  0.87850  Biso   1.000  C
  H32      1.0000 0.06490  0.50000  0.89170  Biso   1.000  H
  C225     1.0000 0.12150  0.40090  0.00000  Biso   1.000  C
  H33      1.0000 0.10830  0.43510  0.00000  Biso   1.000  H
  C226     1.0000 0.12150  0.90090  0.50000  Biso   1.000  C
  H34      1.0000 0.10830  0.93510  0.50000  Biso   1.000  H
  C227     1.0000 0.62150  0.40090  0.50000  Biso   1.000  C
  H35      1.0000 0.60830  0.43510  0.50000  Biso   1.000  H
  C228     1.0000 0.62150  0.90090  0.00000  Biso   1.000  C
  H36      1.0000 0.60830  0.93510  0.00000  Biso   1.000  H
  C229     1.0000 0.87850  0.40090  0.00000  Biso   1.000  C
  H37      1.0000 0.89170  0.43510  0.00000  Biso   1.000  H
  C230     1.0000 0.87850  0.90090  0.50000  Biso   1.000  C
  H38      1.0000 0.89170  0.93510  0.50000  Biso   1.000  H
  C231     1.0000 0.37850  0.40090  0.50000  Biso   1.000  C
  H39      1.0000 0.39170  0.43510  0.50000  Biso   1.000  H
  C232     1.0000 0.37850  0.90090  0.00000  Biso   1.000  C
  H40      1.0000 0.39170  0.93510  0.00000  Biso   1.000  H
  C233     1.0000 0.12150  0.59910  0.00000  Biso   1.000  C
  H41      1.0000 0.10830  0.56490  0.00000  Biso   1.000  H
  C234     1.0000 0.12150  0.09910  0.50000  Biso   1.000  C
  H42      1.0000 0.10830  0.06490  0.50000  Biso   1.000  H
  C235     1.0000 0.62150  0.59910  0.50000  Biso   1.000  C
  H43      1.0000 0.60830  0.56490  0.50000  Biso   1.000  H
  C236     1.0000 0.62150  0.09910  0.00000  Biso   1.000  C
  H44      1.0000 0.60830  0.06490  0.00000  Biso   1.000  H
  C237     1.0000 0.87850  0.59910  0.00000  Biso   1.000  C
  H45      1.0000 0.89170  0.56490  0.00000  Biso   1.000  H
  C238     1.0000 0.87850  0.09910  0.50000  Biso   1.000  C
  H46      1.0000 0.89170  0.06490  0.50000  Biso   1.000  H
  C239     1.0000 0.37850  0.59910  0.50000  Biso   1.000  C
  H47      1.0000 0.39170  0.56490  0.50000  Biso   1.000  H
  C240     1.0000 0.37850  0.09910  0.00000  Biso   1.000  C
  H48      1.0000 0.39170  0.06490  0.00000  Biso   1.000  H
