data_image0
_cell_length_a       26.531
_cell_length_b       13.617
_cell_length_c       16.4067
_cell_angle_alpha    90
_cell_angle_beta     98.04
_cell_angle_gamma    90

_symmetry_space_group_name_H-M    "P 1"
_symmetry_int_tables_number       1

loop_
  _symmetry_equiv_pos_as_xyz
  'x, y, z'

loop_
  _atom_site_label
  _atom_site_occupancy
  _atom_site_fract_x
  _atom_site_fract_y
  _atom_site_fract_z
  _atom_site_thermal_displace_type
  _atom_site_B_iso_or_equiv
  _atom_site_type_symbol
  C1       1.0000 0.33490  0.09500  0.69000  Biso   1.000  C
  C2       1.0000 0.38950  0.06600  0.68010  Biso   1.000  C
  C3       1.0000 0.40580  0.04500  0.60500  Biso   1.000  C
  N1       1.0000 0.45650  0.02200  0.60180  Biso   1.000  N
  C4       1.0000 0.49100  0.01900  0.67380  Biso   1.000  C
  C5       1.0000 0.47470  0.04000  0.74900  Biso   1.000  C
  C6       1.0000 0.42400  0.06300  0.75220  Biso   1.000  C
  C7       1.0000 0.67660  0.85100  0.63200  Biso   1.000  C
  C8       1.0000 0.53510  0.96800  0.66720  Biso   1.000  C
  C9       1.0000 0.56760  0.93400  0.73520  Biso   1.000  C
  C10      1.0000 0.61450  0.89400  0.72510  Biso   1.000  C
  C11      1.0000 0.62890  0.88800  0.64700  Biso   1.000  C
  C12      1.0000 0.59650  0.92200  0.57900  Biso   1.000  C
  N2       1.0000 0.54960  0.96200  0.58910  Biso   1.000  N
  C13      1.0000 0.83430  0.89700  0.36300  Biso   1.000  C
  C14      1.0000 0.88590  0.93500  0.35020  Biso   1.000  C
  C15      1.0000 0.89330  0.99900  0.28720  Biso   1.000  C
  N3       1.0000 0.94190  0.03300  0.28010  Biso   1.000  N
  C16      1.0000 0.98320  0.00200  0.33620  Biso   1.000  C
  C17      1.0000 0.97580  0.93800  0.39920  Biso   1.000  C
  C18      1.0000 0.92710  0.90400  0.40620  Biso   1.000  C
  C19      1.0000 0.16770  0.20600  0.32900  Biso   1.000  C
  C20      1.0000 0.03170  0.04500  0.33330  Biso   1.000  C
  N4       1.0000 0.03870  0.10400  0.26640  Biso   1.000  N
  C21      1.0000 0.08410  0.15400  0.26610  Biso   1.000  C
  C22      1.0000 0.12250  0.14700  0.33270  Biso   1.000  C
  C23      1.0000 0.11550  0.08800  0.39960  Biso   1.000  C
  C24      1.0000 0.07010  0.03700  0.39990  Biso   1.000  C
  C25      1.0000 0.82670  0.61600  0.53900  Biso   1.000  C
  C26      1.0000 0.87650  0.57800  0.52180  Biso   1.000  C
  C27      1.0000 0.90250  0.51400  0.57850  Biso   1.000  C
  C28      1.0000 0.95150  0.48400  0.56970  Biso   1.000  C
  C29      1.0000 0.97450  0.51800  0.50410  Biso   1.000  C
  C30      1.0000 0.94860  0.58300  0.44740  Biso   1.000  C
  C31      1.0000 0.89960  0.61300  0.45630  Biso   1.000  C
  C32      1.0000 0.66770  0.66100  0.49300  Biso   1.000  C
  C33      1.0000 0.61810  0.60800  0.50070  Biso   1.000  C
  C34      1.0000 0.61170  0.53800  0.55990  Biso   1.000  C
  C35      1.0000 0.56470  0.49300  0.55950  Biso   1.000  C
  C36      1.0000 0.52420  0.51700  0.50000  Biso   1.000  C
  C37      1.0000 0.53050  0.58800  0.44090  Biso   1.000  C
  C38      1.0000 0.57750  0.63300  0.44130  Biso   1.000  C
  O1       1.0000 0.75070  0.73900  0.33300  Biso   1.000  O
  O2       1.0000 0.82530  0.85700  0.42450  Biso   1.000  O
  O3       1.0000 0.17320  0.24400  0.26860  Biso   1.000  O
  O4       1.0000 0.80200  0.66100  0.48160  Biso   1.000  O
  O5       1.0000 0.79870  0.92000  0.30240  Biso   1.000  O
  O6       1.0000 0.81330  0.58800  0.60870  Biso   1.000  O
  O7       1.0000 0.32060  0.10700  0.75750  Biso   1.000  O
  O8       1.0000 0.70210  0.80100  0.68860  Biso   1.000  O
  O9       1.0000 0.70400  0.65700  0.55770  Biso   1.000  O
  O10      1.0000 0.67500  0.70400  0.43380  Biso   1.000  O
  O11      1.0000 0.20360  0.20200  0.39230  Biso   1.000  O
  O12      1.0000 0.68890  0.86000  0.56080  Biso   1.000  O
  O13      1.0000 0.30540  0.10100  0.62030  Biso   1.000  O
  Eu1      1.0000 0.75242  0.84880  0.18957  Biso   1.000  Eu
  Eu2      1.0000 0.74943  0.80800  0.47301  Biso   1.000  Eu
  Cu1      1.0000 0.98580  0.42300  0.67240  Biso   1.000  Cu
  Cu2      1.0000 0.47230  0.56340  0.37950  Biso   1.000  Cu
  N5       1.0000 0.05140  0.41700  0.55260  Biso   1.000  N
  N6       1.0000 0.46950  0.41200  0.55910  Biso   1.000  N
  C39      1.0000 0.66510  0.59500  0.81000  Biso   1.000  C
  C40      1.0000 0.61050  0.56600  0.81990  Biso   1.000  C
  C41      1.0000 0.59420  0.54500  0.89500  Biso   1.000  C
  N7       1.0000 0.54350  0.52200  0.89820  Biso   1.000  N
  C42      1.0000 0.50900  0.51900  0.82620  Biso   1.000  C
  C43      1.0000 0.52530  0.54000  0.75100  Biso   1.000  C
  C44      1.0000 0.57600  0.56300  0.74780  Biso   1.000  C
  C45      1.0000 0.32340  0.35100  0.86800  Biso   1.000  C
  C46      1.0000 0.46490  0.46800  0.83280  Biso   1.000  C
  C47      1.0000 0.43240  0.43400  0.76480  Biso   1.000  C
  C48      1.0000 0.38550  0.39400  0.77490  Biso   1.000  C
  C49      1.0000 0.37110  0.38800  0.85300  Biso   1.000  C
  C50      1.0000 0.40350  0.42200  0.92100  Biso   1.000  C
  N8       1.0000 0.45040  0.46200  0.91090  Biso   1.000  N
  C51      1.0000 0.16570  0.39700  0.13700  Biso   1.000  C
  C52      1.0000 0.11410  0.43500  0.14980  Biso   1.000  C
  C53      1.0000 0.10670  0.49900  0.21280  Biso   1.000  C
  N9       1.0000 0.05810  0.53300  0.21990  Biso   1.000  N
  C54      1.0000 0.01680  0.50200  0.16380  Biso   1.000  C
  C55      1.0000 0.02420  0.43800  0.10080  Biso   1.000  C
  C56      1.0000 0.07290  0.40400  0.09380  Biso   1.000  C
  C57      1.0000 0.83230  0.70600  0.17100  Biso   1.000  C
  C58      1.0000 0.96830  0.54500  0.16670  Biso   1.000  C
  N10      1.0000 0.96130  0.60400  0.23360  Biso   1.000  N
  C59      1.0000 0.91590  0.65400  0.23390  Biso   1.000  C
  C60      1.0000 0.87750  0.64700  0.16730  Biso   1.000  C
  C61      1.0000 0.88450  0.58800  0.10040  Biso   1.000  C
  C62      1.0000 0.92990  0.53700  0.10010  Biso   1.000  C
  C63      1.0000 0.17330  0.11600  0.96100  Biso   1.000  C
  C64      1.0000 0.12350  0.07800  0.97820  Biso   1.000  C
  C65      1.0000 0.09750  0.01400  0.92150  Biso   1.000  C
  C66      1.0000 0.04850  0.98400  0.93030  Biso   1.000  C
  C67      1.0000 0.02550  0.01800  0.99590  Biso   1.000  C
  C68      1.0000 0.05140  0.08300  0.05260  Biso   1.000  C
  C69      1.0000 0.10040  0.11300  0.04370  Biso   1.000  C
  C70      1.0000 0.33230  0.16100  0.00700  Biso   1.000  C
  C71      1.0000 0.38190  0.10800  0.99930  Biso   1.000  C
  C72      1.0000 0.38830  0.03800  0.94010  Biso   1.000  C
  C73      1.0000 0.43530  0.99300  0.94050  Biso   1.000  C
  C74      1.0000 0.47580  0.01700  0.00000  Biso   1.000  C
  C75      1.0000 0.46950  0.08800  0.05910  Biso   1.000  C
  C76      1.0000 0.42250  0.13300  0.05870  Biso   1.000  C
  O14      1.0000 0.24930  0.23900  0.16700  Biso   1.000  O
  O15      1.0000 0.17470  0.35700  0.07550  Biso   1.000  O
  O16      1.0000 0.82680  0.74400  0.23140  Biso   1.000  O
  O17      1.0000 0.19800  0.16100  0.01840  Biso   1.000  O
  O18      1.0000 0.20130  0.42000  0.19760  Biso   1.000  O
  O19      1.0000 0.18670  0.08800  0.89130  Biso   1.000  O
  O20      1.0000 0.67940  0.60700  0.74250  Biso   1.000  O
  O21      1.0000 0.29790  0.30100  0.81140  Biso   1.000  O
  O22      1.0000 0.29600  0.15700  0.94230  Biso   1.000  O
  O23      1.0000 0.32500  0.20400  0.06620  Biso   1.000  O
  O24      1.0000 0.79640  0.70200  0.10770  Biso   1.000  O
  O25      1.0000 0.31110  0.36000  0.93920  Biso   1.000  O
  O26      1.0000 0.69460  0.60100  0.87970  Biso   1.000  O
  Eu3      1.0000 0.24758  0.34880  0.31043  Biso   1.000  Eu
  Eu4      1.0000 0.25057  0.30800  0.02699  Biso   1.000  Eu
  Cu3      1.0000 0.01420  0.92300  0.82760  Biso   1.000  Cu
  Cu4      1.0000 0.52770  0.06340  0.12050  Biso   1.000  Cu
  N11      1.0000 0.94860  0.91700  0.94740  Biso   1.000  N
  N12      1.0000 0.53050  0.91200  0.94090  Biso   1.000  N
  C77      1.0000 0.66510  0.90500  0.31000  Biso   1.000  C
  C78      1.0000 0.61050  0.93400  0.31990  Biso   1.000  C
  C79      1.0000 0.59420  0.95500  0.39500  Biso   1.000  C
  N13      1.0000 0.54350  0.97800  0.39820  Biso   1.000  N
  C80      1.0000 0.50900  0.98100  0.32620  Biso   1.000  C
  C81      1.0000 0.52530  0.96000  0.25100  Biso   1.000  C
  C82      1.0000 0.57600  0.93700  0.24780  Biso   1.000  C
  C83      1.0000 0.32340  0.14900  0.36800  Biso   1.000  C
  C84      1.0000 0.46490  0.03200  0.33280  Biso   1.000  C
  C85      1.0000 0.43240  0.06600  0.26480  Biso   1.000  C
  C86      1.0000 0.38550  0.10600  0.27490  Biso   1.000  C
  C87      1.0000 0.37110  0.11200  0.35300  Biso   1.000  C
  C88      1.0000 0.40350  0.07800  0.42100  Biso   1.000  C
  N14      1.0000 0.45040  0.03800  0.41090  Biso   1.000  N
  C89      1.0000 0.16570  0.10300  0.63700  Biso   1.000  C
  C90      1.0000 0.11410  0.06500  0.64980  Biso   1.000  C
  C91      1.0000 0.10670  0.00100  0.71280  Biso   1.000  C
  N15      1.0000 0.05810  0.96700  0.71990  Biso   1.000  N
  C92      1.0000 0.01680  0.99800  0.66380  Biso   1.000  C
  C93      1.0000 0.02420  0.06200  0.60080  Biso   1.000  C
  C94      1.0000 0.07290  0.09600  0.59380  Biso   1.000  C
  C95      1.0000 0.83230  0.79400  0.67100  Biso   1.000  C
  C96      1.0000 0.96830  0.95500  0.66670  Biso   1.000  C
  N16      1.0000 0.96130  0.89600  0.73360  Biso   1.000  N
  C97      1.0000 0.91590  0.84600  0.73390  Biso   1.000  C
  C98      1.0000 0.87750  0.85300  0.66730  Biso   1.000  C
  C99      1.0000 0.88450  0.91200  0.60040  Biso   1.000  C
  C100     1.0000 0.92990  0.96300  0.60010  Biso   1.000  C
  C101     1.0000 0.17330  0.38400  0.46100  Biso   1.000  C
  C102     1.0000 0.12350  0.42200  0.47820  Biso   1.000  C
  C103     1.0000 0.09750  0.48600  0.42150  Biso   1.000  C
  C104     1.0000 0.04850  0.51600  0.43030  Biso   1.000  C
  C105     1.0000 0.02550  0.48200  0.49590  Biso   1.000  C
  C106     1.0000 0.10040  0.38700  0.54370  Biso   1.000  C
  C107     1.0000 0.33230  0.33900  0.50700  Biso   1.000  C
  C108     1.0000 0.38190  0.39200  0.49930  Biso   1.000  C
  C109     1.0000 0.38830  0.46200  0.44010  Biso   1.000  C
  C110     1.0000 0.43530  0.50700  0.44050  Biso   1.000  C
  C111     1.0000 0.47580  0.48300  0.50000  Biso   1.000  C
  C112     1.0000 0.42250  0.36700  0.55870  Biso   1.000  C
  O27      1.0000 0.24930  0.26100  0.66700  Biso   1.000  O
  O28      1.0000 0.17470  0.14300  0.57550  Biso   1.000  O
  O29      1.0000 0.82680  0.75600  0.73140  Biso   1.000  O
  O30      1.0000 0.19800  0.33900  0.51840  Biso   1.000  O
  O31      1.0000 0.20130  0.08000  0.69760  Biso   1.000  O
  O32      1.0000 0.18670  0.41200  0.39130  Biso   1.000  O
  O33      1.0000 0.67940  0.89300  0.24250  Biso   1.000  O
  O34      1.0000 0.29790  0.19900  0.31140  Biso   1.000  O
  O35      1.0000 0.29600  0.34300  0.44230  Biso   1.000  O
  O36      1.0000 0.32500  0.29600  0.56620  Biso   1.000  O
  O37      1.0000 0.79640  0.79800  0.60770  Biso   1.000  O
  O38      1.0000 0.31110  0.14000  0.43920  Biso   1.000  O
  O39      1.0000 0.69460  0.89900  0.37970  Biso   1.000  O
  Eu5      1.0000 0.24758  0.15120  0.81043  Biso   1.000  Eu
  Eu6      1.0000 0.25057  0.19200  0.52699  Biso   1.000  Eu
  Cu5      1.0000 0.01420  0.57700  0.32760  Biso   1.000  Cu
  Cu6      1.0000 0.52770  0.43660  0.62050  Biso   1.000  Cu
  C113     1.0000 0.33490  0.40500  0.19000  Biso   1.000  C
  C114     1.0000 0.38950  0.43400  0.18010  Biso   1.000  C
  C115     1.0000 0.40580  0.45500  0.10500  Biso   1.000  C
  N17      1.0000 0.45650  0.47800  0.10180  Biso   1.000  N
  C116     1.0000 0.49100  0.48100  0.17380  Biso   1.000  C
  C117     1.0000 0.47470  0.46000  0.24900  Biso   1.000  C
  C118     1.0000 0.42400  0.43700  0.25220  Biso   1.000  C
  C119     1.0000 0.67660  0.64900  0.13200  Biso   1.000  C
  C120     1.0000 0.53510  0.53200  0.16720  Biso   1.000  C
  C121     1.0000 0.56760  0.56600  0.23520  Biso   1.000  C
  C122     1.0000 0.61450  0.60600  0.22510  Biso   1.000  C
  C123     1.0000 0.62890  0.61200  0.14700  Biso   1.000  C
  C124     1.0000 0.59650  0.57800  0.07900  Biso   1.000  C
  N18      1.0000 0.54960  0.53800  0.08910  Biso   1.000  N
  C125     1.0000 0.83430  0.60300  0.86300  Biso   1.000  C
  C126     1.0000 0.88590  0.56500  0.85020  Biso   1.000  C
  C127     1.0000 0.89330  0.50100  0.78720  Biso   1.000  C
  N19      1.0000 0.94190  0.46700  0.78010  Biso   1.000  N
  C128     1.0000 0.98320  0.49800  0.83620  Biso   1.000  C
  C129     1.0000 0.97580  0.56200  0.89920  Biso   1.000  C
  C130     1.0000 0.92710  0.59600  0.90620  Biso   1.000  C
  C131     1.0000 0.16770  0.29400  0.82900  Biso   1.000  C
  C132     1.0000 0.03170  0.45500  0.83330  Biso   1.000  C
  N20      1.0000 0.03870  0.39600  0.76640  Biso   1.000  N
  C133     1.0000 0.08410  0.34600  0.76610  Biso   1.000  C
  C134     1.0000 0.12250  0.35300  0.83270  Biso   1.000  C
  C135     1.0000 0.11550  0.41200  0.89960  Biso   1.000  C
  C136     1.0000 0.07010  0.46300  0.89990  Biso   1.000  C
  C137     1.0000 0.82670  0.88400  0.03900  Biso   1.000  C
  C138     1.0000 0.87650  0.92200  0.02180  Biso   1.000  C
  C139     1.0000 0.90250  0.98600  0.07850  Biso   1.000  C
  C140     1.0000 0.95150  0.01600  0.06970  Biso   1.000  C
  C141     1.0000 0.97450  0.98200  0.00410  Biso   1.000  C
  C142     1.0000 0.89960  0.88700  0.95630  Biso   1.000  C
  C143     1.0000 0.66770  0.83900  0.99300  Biso   1.000  C
  C144     1.0000 0.61810  0.89200  0.00070  Biso   1.000  C
  C145     1.0000 0.61170  0.96200  0.05990  Biso   1.000  C
  C146     1.0000 0.56470  0.00700  0.05950  Biso   1.000  C
  C147     1.0000 0.52420  0.98300  0.00000  Biso   1.000  C
  C148     1.0000 0.57750  0.86700  0.94130  Biso   1.000  C
  O40      1.0000 0.75070  0.76100  0.83300  Biso   1.000  O
  O41      1.0000 0.82530  0.64300  0.92450  Biso   1.000  O
  O42      1.0000 0.17320  0.25600  0.76860  Biso   1.000  O
  O43      1.0000 0.80200  0.83900  0.98160  Biso   1.000  O
  O44      1.0000 0.79870  0.58000  0.80240  Biso   1.000  O
  O45      1.0000 0.81330  0.91200  0.10870  Biso   1.000  O
  O46      1.0000 0.32060  0.39300  0.25750  Biso   1.000  O
  O47      1.0000 0.70210  0.69900  0.18860  Biso   1.000  O
  O48      1.0000 0.70400  0.84300  0.05770  Biso   1.000  O
  O49      1.0000 0.67500  0.79600  0.93380  Biso   1.000  O
  O50      1.0000 0.20360  0.29800  0.89230  Biso   1.000  O
  O51      1.0000 0.68890  0.64000  0.06080  Biso   1.000  O
  O52      1.0000 0.30540  0.39900  0.12030  Biso   1.000  O
  Eu7      1.0000 0.75242  0.65120  0.68957  Biso   1.000  Eu
  Eu8      1.0000 0.74943  0.69200  0.97301  Biso   1.000  Eu
  Cu7      1.0000 0.98580  0.07700  0.17240  Biso   1.000  Cu
  Cu8      1.0000 0.47230  0.93660  0.87950  Biso   1.000  Cu
  Cu9      1.0000 0.50000  0.00000  0.50000  Biso   1.000  Cu
  Cu10     1.0000 0.50000  0.50000  0.00000  Biso   1.000  Cu
