data_LUYHAP_clean
_audit_creation_date              2014-07-02
_audit_creation_method            'Materials Studio'
_symmetry_space_group_name_H-M    'P1'
_symmetry_Int_Tables_number       1
_symmetry_cell_setting            triclinic
loop_
_symmetry_equiv_pos_as_xyz
  x,y,z
_cell_length_a                    17.5311
_cell_length_b                    17.5311
_cell_length_c                    17.5311
_cell_angle_alpha                 62.6884
_cell_angle_beta                  62.6884
_cell_angle_gamma                 62.6884
loop_
_atom_site_label
_atom_site_type_symbol
_atom_site_fract_x
_atom_site_fract_y
_atom_site_fract_z
_atom_site_U_iso_or_equiv
_atom_site_adp_type
_atom_site_occupancy
Cu1    Cu    0.92272   0.50064   0.50064   0.01267  Uiso   1.00
Cu2    Cu    0.50064   0.92272   0.50064   0.01267  Uiso   1.00
Cu3    Cu    0.50064   0.50064   0.92272   0.01267  Uiso   1.00
Cu4    Cu    0.49936   0.07728   0.49936   0.01267  Uiso   1.00
Cu5    Cu    0.07728   0.49936   0.49936   0.01267  Uiso   1.00
Cu6    Cu    0.49936   0.49936   0.07728   0.01267  Uiso   1.00
H1     H     0.00090   0.47500   0.77940   0.01267  Uiso   1.00
H2     H     0.77940   0.00090   0.47500   0.01267  Uiso   1.00
H3     H     0.47500   0.77940   0.00090   0.01267  Uiso   1.00
H4     H     0.52500   0.99910   0.22060   0.01267  Uiso   1.00
H5     H     0.99910   0.22060   0.52500   0.01267  Uiso   1.00
H6     H     0.22060   0.52500   0.99910   0.01267  Uiso   1.00
H7     H     0.99910   0.52500   0.22060   0.01267  Uiso   1.00
H8     H     0.22060   0.99910   0.52500   0.01267  Uiso   1.00
H9     H     0.52500   0.22060   0.99910   0.01267  Uiso   1.00
H10    H     0.47500   0.00090   0.77940   0.01267  Uiso   1.00
H11    H     0.00090   0.77940   0.47500   0.01267  Uiso   1.00
H12    H     0.77940   0.47500   0.00090   0.01267  Uiso   1.00
H13    H     0.77590   0.47130   0.77590   0.01267  Uiso   1.00
H14    H     0.77590   0.77590   0.47130   0.01267  Uiso   1.00
H15    H     0.47130   0.77590   0.77590   0.01267  Uiso   1.00
H16    H     0.52870   0.22410   0.22410   0.01267  Uiso   1.00
H17    H     0.22410   0.22410   0.52870   0.01267  Uiso   1.00
H18    H     0.22410   0.52870   0.22410   0.01267  Uiso   1.00
C1     C     0.93909   0.47699   0.66609   0.01267  Uiso   1.00
C2     C     0.89506   0.47246   0.76406   0.01267  Uiso   1.00
C3     C     0.94007   0.47447   0.80947   0.01267  Uiso   1.00
C4     C     0.66609   0.93909   0.47699   0.01267  Uiso   1.00
C5     C     0.76406   0.89506   0.47246   0.01267  Uiso   1.00
C6     C     0.80947   0.94007   0.47447   0.01267  Uiso   1.00
C7     C     0.47699   0.66609   0.93909   0.01267  Uiso   1.00
C8     C     0.47246   0.76406   0.89506   0.01267  Uiso   1.00
C9     C     0.47447   0.80947   0.94007   0.01267  Uiso   1.00
C10    C     0.52301   0.06091   0.33391   0.01267  Uiso   1.00
C11    C     0.52754   0.10494   0.23594   0.01267  Uiso   1.00
C12    C     0.52553   0.05993   0.19053   0.01267  Uiso   1.00
C13    C     0.06091   0.33391   0.52301   0.01267  Uiso   1.00
C14    C     0.10494   0.23594   0.52754   0.01267  Uiso   1.00
C15    C     0.05993   0.19053   0.52553   0.01267  Uiso   1.00
C16    C     0.33391   0.52301   0.06091   0.01267  Uiso   1.00
C17    C     0.23594   0.52754   0.10494   0.01267  Uiso   1.00
C18    C     0.19053   0.52553   0.05993   0.01267  Uiso   1.00
C19    C     0.06091   0.52301   0.33391   0.01267  Uiso   1.00
C20    C     0.10494   0.52754   0.23594   0.01267  Uiso   1.00
C21    C     0.05993   0.52553   0.19053   0.01267  Uiso   1.00
C22    C     0.33391   0.06091   0.52301   0.01267  Uiso   1.00
C23    C     0.23594   0.10494   0.52754   0.01267  Uiso   1.00
C24    C     0.19053   0.05993   0.52553   0.01267  Uiso   1.00
C25    C     0.52301   0.33391   0.06091   0.01267  Uiso   1.00
C26    C     0.52754   0.23594   0.10494   0.01267  Uiso   1.00
C27    C     0.52553   0.19053   0.05993   0.01267  Uiso   1.00
C28    C     0.47699   0.93909   0.66609   0.01267  Uiso   1.00
C29    C     0.47246   0.89506   0.76406   0.01267  Uiso   1.00
C30    C     0.47447   0.94007   0.80947   0.01267  Uiso   1.00
C31    C     0.93909   0.66609   0.47699   0.01267  Uiso   1.00
C32    C     0.89506   0.76406   0.47246   0.01267  Uiso   1.00
C33    C     0.94007   0.80947   0.47447   0.01267  Uiso   1.00
C34    C     0.66609   0.47699   0.93909   0.01267  Uiso   1.00
C35    C     0.76406   0.47246   0.89506   0.01267  Uiso   1.00
C36    C     0.80947   0.47447   0.94007   0.01267  Uiso   1.00
C37    C     0.80742   0.47192   0.80742   0.01267  Uiso   1.00
C38    C     0.89890   0.47580   0.89890   0.01267  Uiso   1.00
C39    C     0.94300   0.48330   0.94300   0.01267  Uiso   1.00
C40    C     0.97890   0.49610   0.97890   0.01267  Uiso   1.00
C41    C     0.80742   0.80742   0.47192   0.01267  Uiso   1.00
C42    C     0.89890   0.89890   0.47580   0.01267  Uiso   1.00
C43    C     0.94300   0.94300   0.48330   0.01267  Uiso   1.00
C44    C     0.97890   0.97890   0.49610   0.01267  Uiso   1.00
C45    C     0.47192   0.80742   0.80742   0.01267  Uiso   1.00
C46    C     0.47580   0.89890   0.89890   0.01267  Uiso   1.00
C47    C     0.48330   0.94300   0.94300   0.01267  Uiso   1.00
C48    C     0.49610   0.97890   0.97890   0.01267  Uiso   1.00
C49    C     0.52808   0.19258   0.19258   0.01267  Uiso   1.00
C50    C     0.52420   0.10110   0.10110   0.01267  Uiso   1.00
C51    C     0.51670   0.05700   0.05700   0.01267  Uiso   1.00
C52    C     0.50390   0.02110   0.02110   0.01267  Uiso   1.00
C53    C     0.19258   0.19258   0.52808   0.01267  Uiso   1.00
C54    C     0.10110   0.10110   0.52420   0.01267  Uiso   1.00
C55    C     0.05700   0.05700   0.51670   0.01267  Uiso   1.00
C56    C     0.02110   0.02110   0.50390   0.01267  Uiso   1.00
C57    C     0.19258   0.52808   0.19258   0.01267  Uiso   1.00
C58    C     0.10110   0.52420   0.10110   0.01267  Uiso   1.00
C59    C     0.05700   0.51670   0.05700   0.01267  Uiso   1.00
C60    C     0.02110   0.50390   0.02110   0.01267  Uiso   1.00
O1     O     0.01879   0.48054   0.62955   0.01267  Uiso   1.00
O2     O     0.89188   0.47816   0.62915   0.01267  Uiso   1.00
O3     O     0.62955   0.01879   0.48054   0.01267  Uiso   1.00
O4     O     0.62915   0.89188   0.47816   0.01267  Uiso   1.00
O5     O     0.48054   0.62955   0.01879   0.01267  Uiso   1.00
O6     O     0.47816   0.62915   0.89188   0.01267  Uiso   1.00
O7     O     0.51946   0.98121   0.37045   0.01267  Uiso   1.00
O8     O     0.52184   0.10812   0.37085   0.01267  Uiso   1.00
O9     O     0.98121   0.37045   0.51946   0.01267  Uiso   1.00
O10    O     0.10812   0.37085   0.52184   0.01267  Uiso   1.00
O11    O     0.37045   0.51946   0.98121   0.01267  Uiso   1.00
O12    O     0.37085   0.52184   0.10812   0.01267  Uiso   1.00
O13    O     0.98121   0.51946   0.37045   0.01267  Uiso   1.00
O14    O     0.10812   0.52184   0.37085   0.01267  Uiso   1.00
O15    O     0.37045   0.98121   0.51946   0.01267  Uiso   1.00
O16    O     0.37085   0.10812   0.52184   0.01267  Uiso   1.00
O17    O     0.51946   0.37045   0.98121   0.01267  Uiso   1.00
O18    O     0.52184   0.37085   0.10812   0.01267  Uiso   1.00
O19    O     0.48054   0.01879   0.62955   0.01267  Uiso   1.00
O20    O     0.47816   0.89188   0.62915   0.01267  Uiso   1.00
O21    O     0.01879   0.62955   0.48054   0.01267  Uiso   1.00
O22    O     0.89188   0.62915   0.47816   0.01267  Uiso   1.00
O23    O     0.62955   0.48054   0.01879   0.01267  Uiso   1.00
O24    O     0.62915   0.47816   0.89188   0.01267  Uiso   1.00
