data_image0
_cell_length_a       21.5645
_cell_length_b       21.5645
_cell_length_c       9.4379
_cell_angle_alpha    90
_cell_angle_beta     90
_cell_angle_gamma    120

_symmetry_space_group_name_H-M    "P 1"
_symmetry_int_tables_number       1

loop_
  _symmetry_equiv_pos_as_xyz
  'x, y, z'

loop_
  _atom_site_label
  _atom_site_occupancy
  _atom_site_fract_x
  _atom_site_fract_y
  _atom_site_fract_z
  _atom_site_thermal_displace_type
  _atom_site_B_iso_or_equiv
  _atom_site_type_symbol
  H1       1.0000 0.91500  0.41670  0.10100  Biso   1.000  H
  C1       1.0000 0.96290  0.42600  0.08120  Biso   1.000  C
  O1       1.0000 0.07648  0.47305  0.38180  Biso   1.000  O
  C2       1.0000 0.19836  0.46030  0.37390  Biso   1.000  C
  H2       1.0000 0.17640  0.45990  0.28640  Biso   1.000  H
  H3       1.0000 0.58330  0.49830  0.10100  Biso   1.000  H
  C3       1.0000 0.57400  0.53690  0.08120  Biso   1.000  C
  O2       1.0000 0.52695  0.60343  0.38180  Biso   1.000  O
  C4       1.0000 0.53970  0.73806  0.37390  Biso   1.000  C
  H4       1.0000 0.54010  0.71650  0.28640  Biso   1.000  H
  H5       1.0000 0.50170  0.08500  0.10100  Biso   1.000  H
  C5       1.0000 0.46310  0.03710  0.08120  Biso   1.000  C
  O3       1.0000 0.39657  0.92352  0.38180  Biso   1.000  O
  C6       1.0000 0.26194  0.80164  0.37390  Biso   1.000  C
  H6       1.0000 0.28350  0.82360  0.28640  Biso   1.000  H
  H7       1.0000 0.08500  0.58330  0.10100  Biso   1.000  H
  C7       1.0000 0.03710  0.57400  0.08120  Biso   1.000  C
  O4       1.0000 0.92352  0.52695  0.38180  Biso   1.000  O
  C8       1.0000 0.80164  0.53970  0.37390  Biso   1.000  C
  H8       1.0000 0.82360  0.54010  0.28640  Biso   1.000  H
  H9       1.0000 0.41670  0.50170  0.10100  Biso   1.000  H
  C9       1.0000 0.42600  0.46310  0.08120  Biso   1.000  C
  O5       1.0000 0.47305  0.39657  0.38180  Biso   1.000  O
  C10      1.0000 0.46030  0.26194  0.37390  Biso   1.000  C
  H10      1.0000 0.45990  0.28350  0.28640  Biso   1.000  H
  H11      1.0000 0.49830  0.91500  0.10100  Biso   1.000  H
  C11      1.0000 0.53690  0.96290  0.08120  Biso   1.000  C
  O6       1.0000 0.60343  0.07648  0.38180  Biso   1.000  O
  C12      1.0000 0.73806  0.19836  0.37390  Biso   1.000  C
  H12      1.0000 0.71650  0.17640  0.28640  Biso   1.000  H
  H13      1.0000 0.41670  0.91500  0.89900  Biso   1.000  H
  C13      1.0000 0.42600  0.96290  0.91880  Biso   1.000  C
  O7       1.0000 0.47305  0.07648  0.61820  Biso   1.000  O
  C14      1.0000 0.46030  0.19836  0.62610  Biso   1.000  C
  H14      1.0000 0.45990  0.17640  0.71360  Biso   1.000  H
  H15      1.0000 0.49830  0.58330  0.89900  Biso   1.000  H
  C15      1.0000 0.53690  0.57400  0.91880  Biso   1.000  C
  O8       1.0000 0.60343  0.52695  0.61820  Biso   1.000  O
  C16      1.0000 0.73806  0.53970  0.62610  Biso   1.000  C
  H16      1.0000 0.71650  0.54010  0.71360  Biso   1.000  H
  H17      1.0000 0.08500  0.50170  0.89900  Biso   1.000  H
  C17      1.0000 0.03710  0.46310  0.91880  Biso   1.000  C
  O9       1.0000 0.92352  0.39657  0.61820  Biso   1.000  O
  C18      1.0000 0.80164  0.26194  0.62610  Biso   1.000  C
  H18      1.0000 0.82360  0.28350  0.71360  Biso   1.000  H
  H19      1.0000 0.58330  0.08500  0.89900  Biso   1.000  H
  C19      1.0000 0.57400  0.03710  0.91880  Biso   1.000  C
  O10      1.0000 0.52695  0.92352  0.61820  Biso   1.000  O
  C20      1.0000 0.53970  0.80164  0.62610  Biso   1.000  C
  H20      1.0000 0.54010  0.82360  0.71360  Biso   1.000  H
  H21      1.0000 0.50170  0.41670  0.89900  Biso   1.000  H
  C21      1.0000 0.46310  0.42600  0.91880  Biso   1.000  C
  O11      1.0000 0.39657  0.47305  0.61820  Biso   1.000  O
  C22      1.0000 0.26194  0.46030  0.62610  Biso   1.000  C
  H22      1.0000 0.28350  0.45990  0.71360  Biso   1.000  H
  H23      1.0000 0.91500  0.49830  0.89900  Biso   1.000  H
  C23      1.0000 0.96290  0.53690  0.91880  Biso   1.000  C
  O12      1.0000 0.07648  0.60343  0.61820  Biso   1.000  O
  C24      1.0000 0.19836  0.73806  0.62610  Biso   1.000  C
  H24      1.0000 0.17640  0.71650  0.71360  Biso   1.000  H
  H25      1.0000 0.08500  0.58330  0.89900  Biso   1.000  H
  C25      1.0000 0.03710  0.57400  0.91880  Biso   1.000  C
  O13      1.0000 0.92352  0.52695  0.61820  Biso   1.000  O
  C26      1.0000 0.80164  0.53970  0.62610  Biso   1.000  C
  H26      1.0000 0.82360  0.54010  0.71360  Biso   1.000  H
  H27      1.0000 0.41670  0.50170  0.89900  Biso   1.000  H
  C27      1.0000 0.42600  0.46310  0.91880  Biso   1.000  C
  O14      1.0000 0.47305  0.39657  0.61820  Biso   1.000  O
  C28      1.0000 0.46030  0.26194  0.62610  Biso   1.000  C
  H28      1.0000 0.45990  0.28350  0.71360  Biso   1.000  H
  H29      1.0000 0.49830  0.91500  0.89900  Biso   1.000  H
  C29      1.0000 0.53690  0.96290  0.91880  Biso   1.000  C
  O15      1.0000 0.60343  0.07648  0.61820  Biso   1.000  O
  C30      1.0000 0.73806  0.19836  0.62610  Biso   1.000  C
  H30      1.0000 0.71650  0.17640  0.71360  Biso   1.000  H
  H31      1.0000 0.91500  0.41670  0.89900  Biso   1.000  H
  C31      1.0000 0.96290  0.42600  0.91880  Biso   1.000  C
  O16      1.0000 0.07648  0.47305  0.61820  Biso   1.000  O
  C32      1.0000 0.19836  0.46030  0.62610  Biso   1.000  C
  H32      1.0000 0.17640  0.45990  0.71360  Biso   1.000  H
  H33      1.0000 0.58330  0.49830  0.89900  Biso   1.000  H
  C33      1.0000 0.57400  0.53690  0.91880  Biso   1.000  C
  O17      1.0000 0.52695  0.60343  0.61820  Biso   1.000  O
  C34      1.0000 0.53970  0.73806  0.62610  Biso   1.000  C
  H34      1.0000 0.54010  0.71650  0.71360  Biso   1.000  H
  H35      1.0000 0.50170  0.08500  0.89900  Biso   1.000  H
  C35      1.0000 0.46310  0.03710  0.91880  Biso   1.000  C
  O18      1.0000 0.39657  0.92352  0.61820  Biso   1.000  O
  C36      1.0000 0.26194  0.80164  0.62610  Biso   1.000  C
  H36      1.0000 0.28350  0.82360  0.71360  Biso   1.000  H
  H37      1.0000 0.58330  0.08500  0.10100  Biso   1.000  H
  C37      1.0000 0.57400  0.03710  0.08120  Biso   1.000  C
  O19      1.0000 0.52695  0.92352  0.38180  Biso   1.000  O
  C38      1.0000 0.53970  0.80164  0.37390  Biso   1.000  C
  H38      1.0000 0.54010  0.82360  0.28640  Biso   1.000  H
  H39      1.0000 0.50170  0.41670  0.10100  Biso   1.000  H
  C39      1.0000 0.46310  0.42600  0.08120  Biso   1.000  C
  O20      1.0000 0.39657  0.47305  0.38180  Biso   1.000  O
  C40      1.0000 0.26194  0.46030  0.37390  Biso   1.000  C
  H40      1.0000 0.28350  0.45990  0.28640  Biso   1.000  H
  H41      1.0000 0.91500  0.49830  0.10100  Biso   1.000  H
  C41      1.0000 0.96290  0.53690  0.08120  Biso   1.000  C
  O21      1.0000 0.07648  0.60343  0.38180  Biso   1.000  O
  C42      1.0000 0.19836  0.73806  0.37390  Biso   1.000  C
  H42      1.0000 0.17640  0.71650  0.28640  Biso   1.000  H
  H43      1.0000 0.41670  0.91500  0.10100  Biso   1.000  H
  C43      1.0000 0.42600  0.96290  0.08120  Biso   1.000  C
  O22      1.0000 0.47305  0.07648  0.38180  Biso   1.000  O
  C44      1.0000 0.46030  0.19836  0.37390  Biso   1.000  C
  H44      1.0000 0.45990  0.17640  0.28640  Biso   1.000  H
  H45      1.0000 0.49830  0.58330  0.10100  Biso   1.000  H
  C45      1.0000 0.53690  0.57400  0.08120  Biso   1.000  C
  O23      1.0000 0.60343  0.52695  0.38180  Biso   1.000  O
  C46      1.0000 0.73806  0.53970  0.37390  Biso   1.000  C
  H46      1.0000 0.71650  0.54010  0.28640  Biso   1.000  H
  H47      1.0000 0.08500  0.50170  0.10100  Biso   1.000  H
  C47      1.0000 0.03710  0.46310  0.08120  Biso   1.000  C
  O24      1.0000 0.92352  0.39657  0.38180  Biso   1.000  O
  C48      1.0000 0.80164  0.26194  0.37390  Biso   1.000  C
  H48      1.0000 0.82360  0.28350  0.28640  Biso   1.000  H
  C49      1.0000 0.92390  0.46195  0.08090  Biso   1.000  C
  C50      1.0000 0.53805  0.46195  0.08090  Biso   1.000  C
  C51      1.0000 0.53805  0.07610  0.08090  Biso   1.000  C
  C52      1.0000 0.07610  0.53805  0.08090  Biso   1.000  C
  C53      1.0000 0.46195  0.53805  0.08090  Biso   1.000  C
  C54      1.0000 0.46195  0.92390  0.08090  Biso   1.000  C
  C55      1.0000 0.46195  0.92390  0.91910  Biso   1.000  C
  C56      1.0000 0.46195  0.53805  0.91910  Biso   1.000  C
  C57      1.0000 0.07610  0.53805  0.91910  Biso   1.000  C
  C58      1.0000 0.53805  0.07610  0.91910  Biso   1.000  C
  C59      1.0000 0.53805  0.46195  0.91910  Biso   1.000  C
  C60      1.0000 0.92390  0.46195  0.91910  Biso   1.000  C
  Co1      1.0000 0.00000  0.50000  0.35855  Biso   1.000  Co
  N1       1.0000 0.00000  0.50000  0.13720  Biso   1.000  N
  Co2      1.0000 0.50000  0.50000  0.35855  Biso   1.000  Co
  N2       1.0000 0.50000  0.50000  0.13720  Biso   1.000  N
  Co3      1.0000 0.50000  0.00000  0.35855  Biso   1.000  Co
  N3       1.0000 0.50000  0.00000  0.13720  Biso   1.000  N
  Co4      1.0000 0.50000  0.00000  0.64145  Biso   1.000  Co
  N4       1.0000 0.50000  0.00000  0.86280  Biso   1.000  N
  Co5      1.0000 0.50000  0.50000  0.64145  Biso   1.000  Co
  N5       1.0000 0.50000  0.50000  0.86280  Biso   1.000  N
  Co6      1.0000 0.00000  0.50000  0.64145  Biso   1.000  Co
  N6       1.0000 0.00000  0.50000  0.86280  Biso   1.000  N
  H49      1.0000 0.00000  0.41800  0.09700  Biso   1.000  H
  H50      1.0000 0.58200  0.58200  0.09700  Biso   1.000  H
  H51      1.0000 0.41800  0.00000  0.09700  Biso   1.000  H
  H52      1.0000 0.00000  0.58200  0.09700  Biso   1.000  H
  H53      1.0000 0.41800  0.41800  0.09700  Biso   1.000  H
  H54      1.0000 0.58200  0.00000  0.09700  Biso   1.000  H
  H55      1.0000 0.41800  0.00000  0.90300  Biso   1.000  H
  H56      1.0000 0.58200  0.58200  0.90300  Biso   1.000  H
  H57      1.0000 0.00000  0.41800  0.90300  Biso   1.000  H
  H58      1.0000 0.58200  0.00000  0.90300  Biso   1.000  H
  H59      1.0000 0.41800  0.41800  0.90300  Biso   1.000  H
  H60      1.0000 0.00000  0.58200  0.90300  Biso   1.000  H
  C61      1.0000 0.10160  0.46900  0.50000  Biso   1.000  C
  C62      1.0000 0.16590  0.46080  0.50000  Biso   1.000  C
  C63      1.0000 0.53100  0.63260  0.50000  Biso   1.000  C
  C64      1.0000 0.53920  0.70510  0.50000  Biso   1.000  C
  C65      1.0000 0.36740  0.89840  0.50000  Biso   1.000  C
  C66      1.0000 0.29490  0.83410  0.50000  Biso   1.000  C
  C67      1.0000 0.89840  0.53100  0.50000  Biso   1.000  C
  C68      1.0000 0.83410  0.53920  0.50000  Biso   1.000  C
  C69      1.0000 0.46900  0.36740  0.50000  Biso   1.000  C
  C70      1.0000 0.46080  0.29490  0.50000  Biso   1.000  C
  C71      1.0000 0.63260  0.10160  0.50000  Biso   1.000  C
  C72      1.0000 0.70510  0.16590  0.50000  Biso   1.000  C
  C73      1.0000 0.46900  0.10160  0.50000  Biso   1.000  C
  C74      1.0000 0.46080  0.16590  0.50000  Biso   1.000  C
  C75      1.0000 0.63260  0.53100  0.50000  Biso   1.000  C
  C76      1.0000 0.70510  0.53920  0.50000  Biso   1.000  C
  C77      1.0000 0.89840  0.36740  0.50000  Biso   1.000  C
  C78      1.0000 0.83410  0.29490  0.50000  Biso   1.000  C
  C79      1.0000 0.53100  0.89840  0.50000  Biso   1.000  C
  C80      1.0000 0.53920  0.83410  0.50000  Biso   1.000  C
  C81      1.0000 0.36740  0.46900  0.50000  Biso   1.000  C
  C82      1.0000 0.29490  0.46080  0.50000  Biso   1.000  C
  C83      1.0000 0.10160  0.63260  0.50000  Biso   1.000  C
  C84      1.0000 0.16590  0.70510  0.50000  Biso   1.000  C
