data_image0
_cell_length_a       17.6726
_cell_length_b       20.0232
_cell_length_c       10.5553
_cell_angle_alpha    90
_cell_angle_beta     91.129
_cell_angle_gamma    90

_symmetry_space_group_name_H-M    "P 1"
_symmetry_int_tables_number       1

loop_
  _symmetry_equiv_pos_as_xyz
  'x, y, z'

loop_
  _atom_site_label
  _atom_site_occupancy
  _atom_site_fract_x
  _atom_site_fract_y
  _atom_site_fract_z
  _atom_site_thermal_displace_type
  _atom_site_B_iso_or_equiv
  _atom_site_type_symbol
  Eu1      1.0000 0.49184  0.48190  0.75354  Biso   1.000  Eu
  Eu2      1.0000 0.00007  0.26563  0.32222  Biso   1.000  Eu
  O1       1.0000 0.40820  0.47200  0.91600  Biso   1.000  O
  O2       1.0000 0.39980  0.49750  0.12030  Biso   1.000  O
  O3       1.0000 0.10040  0.25800  0.96690  Biso   1.000  O
  O4       1.0000 0.08000  0.29750  0.16120  Biso   1.000  O
  O5       1.0000 0.56330  0.45220  0.58410  Biso   1.000  O
  O6       1.0000 0.59670  0.46570  0.38470  Biso   1.000  O
  O7       1.0000 0.92020  0.27560  0.48970  Biso   1.000  O
  O8       1.0000 0.90640  0.28870  0.69770  Biso   1.000  O
  O9       1.0000 0.47960  0.59900  0.83590  Biso   1.000  O
  O10      1.0000 0.55310  0.58770  0.67840  Biso   1.000  O
  O11      1.0000 0.54440  0.68370  0.77060  Biso   1.000  O
  O12      1.0000 0.98460  0.14550  0.39650  Biso   1.000  O
  O13      1.0000 0.05940  0.16150  0.24060  Biso   1.000  O
  O14      1.0000 0.03090  0.06020  0.29750  Biso   1.000  O
  N1       1.0000 0.52570  0.62500  0.76120  Biso   1.000  N
  N2       1.0000 0.02480  0.12060  0.31180  Biso   1.000  N
  C1       1.0000 0.11460  0.29610  0.05950  Biso   1.000  C
  C2       1.0000 0.17960  0.34380  0.04660  Biso   1.000  C
  C3       1.0000 0.21700  0.35080  0.93290  Biso   1.000  C
  H1       1.0000 0.19960  0.32670  0.86060  Biso   1.000  H
  C4       1.0000 0.27840  0.39180  0.92310  Biso   1.000  C
  H2       1.0000 0.30290  0.39640  0.84430  Biso   1.000  H
  C5       1.0000 0.30510  0.42700  0.02910  Biso   1.000  C
  C6       1.0000 0.26760  0.42130  0.14160  Biso   1.000  C
  H3       1.0000 0.28500  0.44560  0.21370  Biso   1.000  H
  C7       1.0000 0.20490  0.38070  0.15040  Biso   1.000  C
  H4       1.0000 0.17880  0.37800  0.22810  Biso   1.000  H
  C8       1.0000 0.37570  0.46910  0.02100  Biso   1.000  C
  C9       1.0000 0.60750  0.44350  0.49410  Biso   1.000  C
  C10      1.0000 0.67780  0.40240  0.51820  Biso   1.000  C
  C11      1.0000 0.71910  0.38010  0.41740  Biso   1.000  C
  H5       1.0000 0.70260  0.38970  0.33320  Biso   1.000  H
  C12      1.0000 0.78470  0.34350  0.43860  Biso   1.000  C
  H6       1.0000 0.81260  0.32740  0.36890  Biso   1.000  H
  C13      1.0000 0.80960  0.33050  0.56090  Biso   1.000  C
  C14      1.0000 0.76830  0.35220  0.66050  Biso   1.000  C
  H7       1.0000 0.78510  0.34220  0.74440  Biso   1.000  H
  C15      1.0000 0.70260  0.38820  0.64190  Biso   1.000  C
  H8       1.0000 0.67450  0.40320  0.71230  Biso   1.000  H
  C16      1.0000 0.88460  0.29530  0.58520  Biso   1.000  C
  Eu3      1.0000 0.50816  0.98190  0.74646  Biso   1.000  Eu
  Eu4      1.0000 0.99993  0.76563  0.17778  Biso   1.000  Eu
  O15      1.0000 0.59180  0.97200  0.58400  Biso   1.000  O
  O16      1.0000 0.60020  0.99750  0.37970  Biso   1.000  O
  O17      1.0000 0.89960  0.75800  0.53310  Biso   1.000  O
  O18      1.0000 0.92000  0.79750  0.33880  Biso   1.000  O
  O19      1.0000 0.43670  0.95220  0.91590  Biso   1.000  O
  O20      1.0000 0.40330  0.96570  0.11530  Biso   1.000  O
  O21      1.0000 0.07980  0.77560  0.01030  Biso   1.000  O
  O22      1.0000 0.09360  0.78870  0.80230  Biso   1.000  O
  O23      1.0000 0.52040  0.09900  0.66410  Biso   1.000  O
  O24      1.0000 0.44690  0.08770  0.82160  Biso   1.000  O
  O25      1.0000 0.45560  0.18370  0.72940  Biso   1.000  O
  O26      1.0000 0.01540  0.64550  0.10350  Biso   1.000  O
  O27      1.0000 0.94060  0.66150  0.25940  Biso   1.000  O
  O28      1.0000 0.96910  0.56020  0.20250  Biso   1.000  O
  N3       1.0000 0.47430  0.12500  0.73880  Biso   1.000  N
  N4       1.0000 0.97520  0.62060  0.18820  Biso   1.000  N
  C17      1.0000 0.88540  0.79610  0.44050  Biso   1.000  C
  C18      1.0000 0.82040  0.84380  0.45340  Biso   1.000  C
  C19      1.0000 0.78300  0.85080  0.56710  Biso   1.000  C
  H9       1.0000 0.80040  0.82670  0.63940  Biso   1.000  H
  C20      1.0000 0.72160  0.89180  0.57690  Biso   1.000  C
  H10      1.0000 0.69710  0.89640  0.65570  Biso   1.000  H
  C21      1.0000 0.69490  0.92700  0.47090  Biso   1.000  C
  C22      1.0000 0.73240  0.92130  0.35840  Biso   1.000  C
  H11      1.0000 0.71500  0.94560  0.28630  Biso   1.000  H
  C23      1.0000 0.79510  0.88070  0.34960  Biso   1.000  C
  H12      1.0000 0.82120  0.87800  0.27190  Biso   1.000  H
  C24      1.0000 0.62430  0.96910  0.47900  Biso   1.000  C
  C25      1.0000 0.39250  0.94350  0.00590  Biso   1.000  C
  C26      1.0000 0.32220  0.90240  0.98180  Biso   1.000  C
  C27      1.0000 0.28090  0.88010  0.08260  Biso   1.000  C
  H13      1.0000 0.29740  0.88970  0.16680  Biso   1.000  H
  C28      1.0000 0.21530  0.84350  0.06140  Biso   1.000  C
  H14      1.0000 0.18740  0.82740  0.13110  Biso   1.000  H
  C29      1.0000 0.19040  0.83050  0.93910  Biso   1.000  C
  C30      1.0000 0.23170  0.85220  0.83950  Biso   1.000  C
  H15      1.0000 0.21490  0.84220  0.75560  Biso   1.000  H
  C31      1.0000 0.29740  0.88820  0.85810  Biso   1.000  C
  H16      1.0000 0.32550  0.90320  0.78770  Biso   1.000  H
  C32      1.0000 0.11540  0.79530  0.91480  Biso   1.000  C
  Eu5      1.0000 0.50816  0.51810  0.24646  Biso   1.000  Eu
  Eu6      1.0000 0.99993  0.73437  0.67778  Biso   1.000  Eu
  O29      1.0000 0.59180  0.52800  0.08400  Biso   1.000  O
  O30      1.0000 0.60020  0.50250  0.87970  Biso   1.000  O
  O31      1.0000 0.89960  0.74200  0.03310  Biso   1.000  O
  O32      1.0000 0.92000  0.70250  0.83880  Biso   1.000  O
  O33      1.0000 0.43670  0.54780  0.41590  Biso   1.000  O
  O34      1.0000 0.40330  0.53430  0.61530  Biso   1.000  O
  O35      1.0000 0.07980  0.72440  0.51030  Biso   1.000  O
  O36      1.0000 0.09360  0.71130  0.30230  Biso   1.000  O
  O37      1.0000 0.52040  0.40100  0.16410  Biso   1.000  O
  O38      1.0000 0.44690  0.41230  0.32160  Biso   1.000  O
  O39      1.0000 0.45560  0.31630  0.22940  Biso   1.000  O
  O40      1.0000 0.01540  0.85450  0.60350  Biso   1.000  O
  O41      1.0000 0.94060  0.83850  0.75940  Biso   1.000  O
  O42      1.0000 0.96910  0.93980  0.70250  Biso   1.000  O
  N5       1.0000 0.47430  0.37500  0.23880  Biso   1.000  N
  N6       1.0000 0.97520  0.87940  0.68820  Biso   1.000  N
  C33      1.0000 0.88540  0.70390  0.94050  Biso   1.000  C
  C34      1.0000 0.82040  0.65620  0.95340  Biso   1.000  C
  C35      1.0000 0.78300  0.64920  0.06710  Biso   1.000  C
  H17      1.0000 0.80040  0.67330  0.13940  Biso   1.000  H
  C36      1.0000 0.72160  0.60820  0.07690  Biso   1.000  C
  H18      1.0000 0.69710  0.60360  0.15570  Biso   1.000  H
  C37      1.0000 0.69490  0.57300  0.97090  Biso   1.000  C
  C38      1.0000 0.73240  0.57870  0.85840  Biso   1.000  C
  H19      1.0000 0.71500  0.55440  0.78630  Biso   1.000  H
  C39      1.0000 0.79510  0.61930  0.84960  Biso   1.000  C
  H20      1.0000 0.82120  0.62200  0.77190  Biso   1.000  H
  C40      1.0000 0.62430  0.53090  0.97900  Biso   1.000  C
  C41      1.0000 0.39250  0.55650  0.50590  Biso   1.000  C
  C42      1.0000 0.32220  0.59760  0.48180  Biso   1.000  C
  C43      1.0000 0.28090  0.61990  0.58260  Biso   1.000  C
  H21      1.0000 0.29740  0.61030  0.66680  Biso   1.000  H
  C44      1.0000 0.21530  0.65650  0.56140  Biso   1.000  C
  H22      1.0000 0.18740  0.67260  0.63110  Biso   1.000  H
  C45      1.0000 0.19040  0.66950  0.43910  Biso   1.000  C
  C46      1.0000 0.23170  0.64780  0.33950  Biso   1.000  C
  H23      1.0000 0.21490  0.65780  0.25560  Biso   1.000  H
  C47      1.0000 0.29740  0.61180  0.35810  Biso   1.000  C
  H24      1.0000 0.32550  0.59680  0.28770  Biso   1.000  H
  C48      1.0000 0.11540  0.70470  0.41480  Biso   1.000  C
  Eu7      1.0000 0.49184  0.01810  0.25354  Biso   1.000  Eu
  Eu8      1.0000 0.00007  0.23437  0.82222  Biso   1.000  Eu
  O43      1.0000 0.40820  0.02800  0.41600  Biso   1.000  O
  O44      1.0000 0.39980  0.00250  0.62030  Biso   1.000  O
  O45      1.0000 0.10040  0.24200  0.46690  Biso   1.000  O
  O46      1.0000 0.08000  0.20250  0.66120  Biso   1.000  O
  O47      1.0000 0.56330  0.04780  0.08410  Biso   1.000  O
  O48      1.0000 0.59670  0.03430  0.88470  Biso   1.000  O
  O49      1.0000 0.92020  0.22440  0.98970  Biso   1.000  O
  O50      1.0000 0.90640  0.21130  0.19770  Biso   1.000  O
  O51      1.0000 0.47960  0.90100  0.33590  Biso   1.000  O
  O52      1.0000 0.55310  0.91230  0.17840  Biso   1.000  O
  O53      1.0000 0.54440  0.81630  0.27060  Biso   1.000  O
  O54      1.0000 0.98460  0.35450  0.89650  Biso   1.000  O
  O55      1.0000 0.05940  0.33850  0.74060  Biso   1.000  O
  O56      1.0000 0.03090  0.43980  0.79750  Biso   1.000  O
  N7       1.0000 0.52570  0.87500  0.26120  Biso   1.000  N
  N8       1.0000 0.02480  0.37940  0.81180  Biso   1.000  N
  C49      1.0000 0.11460  0.20390  0.55950  Biso   1.000  C
  C50      1.0000 0.17960  0.15620  0.54660  Biso   1.000  C
  C51      1.0000 0.21700  0.14920  0.43290  Biso   1.000  C
  H25      1.0000 0.19960  0.17330  0.36060  Biso   1.000  H
  C52      1.0000 0.27840  0.10820  0.42310  Biso   1.000  C
  H26      1.0000 0.30290  0.10360  0.34430  Biso   1.000  H
  C53      1.0000 0.30510  0.07300  0.52910  Biso   1.000  C
  C54      1.0000 0.26760  0.07870  0.64160  Biso   1.000  C
  H27      1.0000 0.28500  0.05440  0.71370  Biso   1.000  H
  C55      1.0000 0.20490  0.11930  0.65040  Biso   1.000  C
  H28      1.0000 0.17880  0.12200  0.72810  Biso   1.000  H
  C56      1.0000 0.37570  0.03090  0.52100  Biso   1.000  C
  C57      1.0000 0.60750  0.05650  0.99410  Biso   1.000  C
  C58      1.0000 0.67780  0.09760  0.01820  Biso   1.000  C
  C59      1.0000 0.71910  0.11990  0.91740  Biso   1.000  C
  H29      1.0000 0.70260  0.11030  0.83320  Biso   1.000  H
  C60      1.0000 0.78470  0.15650  0.93860  Biso   1.000  C
  H30      1.0000 0.81260  0.17260  0.86890  Biso   1.000  H
  C61      1.0000 0.80960  0.16950  0.06090  Biso   1.000  C
  C62      1.0000 0.76830  0.14780  0.16050  Biso   1.000  C
  H31      1.0000 0.78510  0.15780  0.24440  Biso   1.000  H
  C63      1.0000 0.70260  0.11180  0.14190  Biso   1.000  C
  H32      1.0000 0.67450  0.09680  0.21230  Biso   1.000  H
  C64      1.0000 0.88460  0.20470  0.08520  Biso   1.000  C
