data_image0
_cell_length_a       13.4985
_cell_length_b       13.4985
_cell_length_c       18.12
_cell_angle_alpha    90
_cell_angle_beta     90
_cell_angle_gamma    120

_symmetry_space_group_name_H-M    "P 1"
_symmetry_int_tables_number       1

loop_
  _symmetry_equiv_pos_as_xyz
  'x, y, z'

loop_
  _atom_site_label
  _atom_site_occupancy
  _atom_site_fract_x
  _atom_site_fract_y
  _atom_site_fract_z
  _atom_site_thermal_displace_type
  _atom_site_B_iso_or_equiv
  _atom_site_type_symbol
  H1       1.0000 0.25000  0.25900  0.00200  Biso   1.000  H
  H2       1.0000 0.25400  0.38000  0.03800  Biso   1.000  H
  V1       1.0000 0.29214  0.43297  0.95846  Biso   1.000  V
  P1       1.0000 0.16065  0.18634  0.87084  Biso   1.000  P
  H3       1.0000 0.22900  0.19300  0.84710  Biso   1.000  H
  P2       1.0000 0.50385  0.63115  0.05342  Biso   1.000  P
  O1       1.0000 0.13470  0.10830  0.93808  Biso   1.000  O
  O2       1.0000 0.06640  0.14080  0.81289  Biso   1.000  O
  O3       1.0000 0.38030  0.54680  0.03508  Biso   1.000  O
  O4       1.0000 0.18900  0.30690  0.89239  Biso   1.000  O
  O5       1.0000 0.32680  0.55170  0.88225  Biso   1.000  O
  O6       1.0000 0.57110  0.57340  0.07552  Biso   1.000  O
  O7       1.0000 0.56500  0.71710  0.99164  Biso   1.000  O
  O8       1.0000 0.25600  0.31090  0.04097  Biso   1.000  O
  O9       1.0000 0.50080  0.69740  0.12150  Biso   1.000  O
  H4       1.0000 0.44280  0.65700  0.14550  Biso   1.000  H
  H5       1.0000 0.74100  0.99100  0.00200  Biso   1.000  H
  H6       1.0000 0.62000  0.87400  0.03800  Biso   1.000  H
  V2       1.0000 0.56703  0.85917  0.95846  Biso   1.000  V
  P3       1.0000 0.81366  0.97431  0.87084  Biso   1.000  P
  H7       1.0000 0.80700  0.03600  0.84710  Biso   1.000  H
  P4       1.0000 0.36885  0.87270  0.05342  Biso   1.000  P
  O10      1.0000 0.89170  0.02640  0.93808  Biso   1.000  O
  O11      1.0000 0.85920  0.92560  0.81289  Biso   1.000  O
  O12      1.0000 0.45320  0.83350  0.03508  Biso   1.000  O
  O13      1.0000 0.69310  0.88210  0.89239  Biso   1.000  O
  O14      1.0000 0.44830  0.77510  0.88225  Biso   1.000  O
  O15      1.0000 0.42660  0.99770  0.07552  Biso   1.000  O
  O16      1.0000 0.28290  0.84790  0.99164  Biso   1.000  O
  O17      1.0000 0.68910  0.94510  0.04097  Biso   1.000  O
  O18      1.0000 0.30260  0.80340  0.12150  Biso   1.000  O
  H8       1.0000 0.34300  0.78580  0.14550  Biso   1.000  H
  H9       1.0000 0.00900  0.75000  0.00200  Biso   1.000  H
  H10      1.0000 0.12600  0.74600  0.03800  Biso   1.000  H
  V3       1.0000 0.14083  0.70786  0.95846  Biso   1.000  V
  P5       1.0000 0.02569  0.83935  0.87084  Biso   1.000  P
  H11      1.0000 0.96400  0.77100  0.84710  Biso   1.000  H
  P6       1.0000 0.12730  0.49615  0.05342  Biso   1.000  P
  O19      1.0000 0.97360  0.86530  0.93808  Biso   1.000  O
  O20      1.0000 0.07440  0.93360  0.81289  Biso   1.000  O
  O21      1.0000 0.16650  0.61970  0.03508  Biso   1.000  O
  O22      1.0000 0.11790  0.81100  0.89239  Biso   1.000  O
  O23      1.0000 0.22490  0.67320  0.88225  Biso   1.000  O
  O24      1.0000 0.00230  0.42890  0.07552  Biso   1.000  O
  O25      1.0000 0.15210  0.43500  0.99164  Biso   1.000  O
  O26      1.0000 0.05490  0.74400  0.04097  Biso   1.000  O
  O27      1.0000 0.19660  0.49920  0.12150  Biso   1.000  O
  H12      1.0000 0.21420  0.55720  0.14550  Biso   1.000  H
  H13      1.0000 0.25900  0.25000  0.49800  Biso   1.000  H
  H14      1.0000 0.38000  0.25400  0.46200  Biso   1.000  H
  V4       1.0000 0.43297  0.29214  0.54154  Biso   1.000  V
  P7       1.0000 0.18634  0.16065  0.62916  Biso   1.000  P
  H15      1.0000 0.19300  0.22900  0.65290  Biso   1.000  H
  P8       1.0000 0.63115  0.50385  0.44658  Biso   1.000  P
  O28      1.0000 0.10830  0.13470  0.56192  Biso   1.000  O
  O29      1.0000 0.14080  0.06640  0.68711  Biso   1.000  O
  O30      1.0000 0.54680  0.38030  0.46492  Biso   1.000  O
  O31      1.0000 0.30690  0.18900  0.60761  Biso   1.000  O
  O32      1.0000 0.55170  0.32680  0.61775  Biso   1.000  O
  O33      1.0000 0.57340  0.57110  0.42448  Biso   1.000  O
  O34      1.0000 0.71710  0.56500  0.50836  Biso   1.000  O
  O35      1.0000 0.31090  0.25600  0.45903  Biso   1.000  O
  O36      1.0000 0.69740  0.50080  0.37850  Biso   1.000  O
  H16      1.0000 0.65700  0.44280  0.35450  Biso   1.000  H
  H17      1.0000 0.99100  0.74100  0.49800  Biso   1.000  H
  H18      1.0000 0.87400  0.62000  0.46200  Biso   1.000  H
  V5       1.0000 0.85917  0.56703  0.54154  Biso   1.000  V
  P9       1.0000 0.97431  0.81366  0.62916  Biso   1.000  P
  H19      1.0000 0.03600  0.80700  0.65290  Biso   1.000  H
  P10      1.0000 0.87270  0.36885  0.44658  Biso   1.000  P
  O37      1.0000 0.02640  0.89170  0.56192  Biso   1.000  O
  O38      1.0000 0.92560  0.85920  0.68711  Biso   1.000  O
  O39      1.0000 0.83350  0.45320  0.46492  Biso   1.000  O
  O40      1.0000 0.88210  0.69310  0.60761  Biso   1.000  O
  O41      1.0000 0.77510  0.44830  0.61775  Biso   1.000  O
  O42      1.0000 0.99770  0.42660  0.42448  Biso   1.000  O
  O43      1.0000 0.84790  0.28290  0.50836  Biso   1.000  O
  O44      1.0000 0.94510  0.68910  0.45903  Biso   1.000  O
  O45      1.0000 0.80340  0.30260  0.37850  Biso   1.000  O
  H20      1.0000 0.78580  0.34300  0.35450  Biso   1.000  H
  H21      1.0000 0.75000  0.00900  0.49800  Biso   1.000  H
  H22      1.0000 0.74600  0.12600  0.46200  Biso   1.000  H
  V6       1.0000 0.70786  0.14083  0.54154  Biso   1.000  V
  P11      1.0000 0.83935  0.02569  0.62916  Biso   1.000  P
  H23      1.0000 0.77100  0.96400  0.65290  Biso   1.000  H
  P12      1.0000 0.49615  0.12730  0.44658  Biso   1.000  P
  O46      1.0000 0.86530  0.97360  0.56192  Biso   1.000  O
  O47      1.0000 0.93360  0.07440  0.68711  Biso   1.000  O
  O48      1.0000 0.61970  0.16650  0.46492  Biso   1.000  O
  O49      1.0000 0.81100  0.11790  0.60761  Biso   1.000  O
  O50      1.0000 0.67320  0.22490  0.61775  Biso   1.000  O
  O51      1.0000 0.42890  0.00230  0.42448  Biso   1.000  O
  O52      1.0000 0.43500  0.15210  0.50836  Biso   1.000  O
  O53      1.0000 0.74400  0.05490  0.45903  Biso   1.000  O
  O54      1.0000 0.49920  0.19660  0.37850  Biso   1.000  O
  H24      1.0000 0.55720  0.21420  0.35450  Biso   1.000  H
  H25      1.0000 0.75000  0.74100  0.99800  Biso   1.000  H
  H26      1.0000 0.74600  0.62000  0.96200  Biso   1.000  H
  V7       1.0000 0.70786  0.56703  0.04154  Biso   1.000  V
  P13      1.0000 0.83935  0.81366  0.12916  Biso   1.000  P
  H27      1.0000 0.77100  0.80700  0.15290  Biso   1.000  H
  P14      1.0000 0.49615  0.36885  0.94658  Biso   1.000  P
  O55      1.0000 0.86530  0.89170  0.06192  Biso   1.000  O
  O56      1.0000 0.93360  0.85920  0.18711  Biso   1.000  O
  O57      1.0000 0.61970  0.45320  0.96492  Biso   1.000  O
  O58      1.0000 0.81100  0.69310  0.10761  Biso   1.000  O
  O59      1.0000 0.67320  0.44830  0.11775  Biso   1.000  O
  O60      1.0000 0.42890  0.42660  0.92448  Biso   1.000  O
  O61      1.0000 0.43500  0.28290  0.00836  Biso   1.000  O
  O62      1.0000 0.74400  0.68910  0.95903  Biso   1.000  O
  O63      1.0000 0.49920  0.30260  0.87850  Biso   1.000  O
  H28      1.0000 0.55720  0.34300  0.85450  Biso   1.000  H
  H29      1.0000 0.25900  0.00900  0.99800  Biso   1.000  H
  H30      1.0000 0.38000  0.12600  0.96200  Biso   1.000  H
  V8       1.0000 0.43297  0.14083  0.04154  Biso   1.000  V
  P15      1.0000 0.18634  0.02569  0.12916  Biso   1.000  P
  H31      1.0000 0.19300  0.96400  0.15290  Biso   1.000  H
  P16      1.0000 0.63115  0.12730  0.94658  Biso   1.000  P
  O64      1.0000 0.10830  0.97360  0.06192  Biso   1.000  O
  O65      1.0000 0.14080  0.07440  0.18711  Biso   1.000  O
  O66      1.0000 0.54680  0.16650  0.96492  Biso   1.000  O
  O67      1.0000 0.30690  0.11790  0.10761  Biso   1.000  O
  O68      1.0000 0.55170  0.22490  0.11775  Biso   1.000  O
  O69      1.0000 0.57340  0.00230  0.92448  Biso   1.000  O
  O70      1.0000 0.71710  0.15210  0.00836  Biso   1.000  O
  O71      1.0000 0.31090  0.05490  0.95903  Biso   1.000  O
  O72      1.0000 0.69740  0.19660  0.87850  Biso   1.000  O
  H32      1.0000 0.65700  0.21420  0.85450  Biso   1.000  H
  H33      1.0000 0.99100  0.25000  0.99800  Biso   1.000  H
  H34      1.0000 0.87400  0.25400  0.96200  Biso   1.000  H
  V9       1.0000 0.85917  0.29214  0.04154  Biso   1.000  V
  P17      1.0000 0.97431  0.16065  0.12916  Biso   1.000  P
  H35      1.0000 0.03600  0.22900  0.15290  Biso   1.000  H
  P18      1.0000 0.87270  0.50385  0.94658  Biso   1.000  P
  O73      1.0000 0.02640  0.13470  0.06192  Biso   1.000  O
  O74      1.0000 0.92560  0.06640  0.18711  Biso   1.000  O
  O75      1.0000 0.83350  0.38030  0.96492  Biso   1.000  O
  O76      1.0000 0.88210  0.18900  0.10761  Biso   1.000  O
  O77      1.0000 0.77510  0.32680  0.11775  Biso   1.000  O
  O78      1.0000 0.99770  0.57110  0.92448  Biso   1.000  O
  O79      1.0000 0.84790  0.56500  0.00836  Biso   1.000  O
  O80      1.0000 0.94510  0.25600  0.95903  Biso   1.000  O
  O81      1.0000 0.80340  0.50080  0.87850  Biso   1.000  O
  H36      1.0000 0.78580  0.44280  0.85450  Biso   1.000  H
  H37      1.0000 0.74100  0.75000  0.50200  Biso   1.000  H
  H38      1.0000 0.62000  0.74600  0.53800  Biso   1.000  H
  V10      1.0000 0.56703  0.70786  0.45846  Biso   1.000  V
  P19      1.0000 0.81366  0.83935  0.37084  Biso   1.000  P
  H39      1.0000 0.80700  0.77100  0.34710  Biso   1.000  H
  P20      1.0000 0.36885  0.49615  0.55342  Biso   1.000  P
  O82      1.0000 0.89170  0.86530  0.43808  Biso   1.000  O
  O83      1.0000 0.85920  0.93360  0.31289  Biso   1.000  O
  O84      1.0000 0.45320  0.61970  0.53508  Biso   1.000  O
  O85      1.0000 0.69310  0.81100  0.39239  Biso   1.000  O
  O86      1.0000 0.44830  0.67320  0.38225  Biso   1.000  O
  O87      1.0000 0.42660  0.42890  0.57552  Biso   1.000  O
  O88      1.0000 0.28290  0.43500  0.49164  Biso   1.000  O
  O89      1.0000 0.68910  0.74400  0.54097  Biso   1.000  O
  O90      1.0000 0.30260  0.49920  0.62150  Biso   1.000  O
  H40      1.0000 0.34300  0.55720  0.64550  Biso   1.000  H
  H41      1.0000 0.00900  0.25900  0.50200  Biso   1.000  H
  H42      1.0000 0.12600  0.38000  0.53800  Biso   1.000  H
  V11      1.0000 0.14083  0.43297  0.45846  Biso   1.000  V
  P21      1.0000 0.02569  0.18634  0.37084  Biso   1.000  P
  H43      1.0000 0.96400  0.19300  0.34710  Biso   1.000  H
  P22      1.0000 0.12730  0.63115  0.55342  Biso   1.000  P
  O91      1.0000 0.97360  0.10830  0.43808  Biso   1.000  O
  O92      1.0000 0.07440  0.14080  0.31289  Biso   1.000  O
  O93      1.0000 0.16650  0.54680  0.53508  Biso   1.000  O
  O94      1.0000 0.11790  0.30690  0.39239  Biso   1.000  O
  O95      1.0000 0.22490  0.55170  0.38225  Biso   1.000  O
  O96      1.0000 0.00230  0.57340  0.57552  Biso   1.000  O
  O97      1.0000 0.15210  0.71710  0.49164  Biso   1.000  O
  O98      1.0000 0.05490  0.31090  0.54097  Biso   1.000  O
  O99      1.0000 0.19660  0.69740  0.62150  Biso   1.000  O
  H44      1.0000 0.21420  0.65700  0.64550  Biso   1.000  H
  H45      1.0000 0.25000  0.99100  0.50200  Biso   1.000  H
  H46      1.0000 0.25400  0.87400  0.53800  Biso   1.000  H
  V12      1.0000 0.29214  0.85917  0.45846  Biso   1.000  V
  P23      1.0000 0.16065  0.97431  0.37084  Biso   1.000  P
  H47      1.0000 0.22900  0.03600  0.34710  Biso   1.000  H
  P24      1.0000 0.50385  0.87270  0.55342  Biso   1.000  P
  O100     1.0000 0.13470  0.02640  0.43808  Biso   1.000  O
  O101     1.0000 0.06640  0.92560  0.31289  Biso   1.000  O
  O102     1.0000 0.38030  0.83350  0.53508  Biso   1.000  O
  O103     1.0000 0.18900  0.88210  0.39239  Biso   1.000  O
  O104     1.0000 0.32680  0.77510  0.38225  Biso   1.000  O
  O105     1.0000 0.57110  0.99770  0.57552  Biso   1.000  O
  O106     1.0000 0.56500  0.84790  0.49164  Biso   1.000  O
  O107     1.0000 0.25600  0.94510  0.54097  Biso   1.000  O
  O108     1.0000 0.50080  0.80340  0.62150  Biso   1.000  O
  H48      1.0000 0.44280  0.78580  0.64550  Biso   1.000  H
  V13      1.0000 0.00000  0.00000  0.00000  Biso   1.000  V
  V14      1.0000 0.00000  0.00000  0.50000  Biso   1.000  V
  V15      1.0000 0.00000  0.00000  0.75000  Biso   1.000  V
  V16      1.0000 0.00000  0.00000  0.25000  Biso   1.000  V
  P25      1.0000 0.33333  0.66667  0.86158  Biso   1.000  P
  H49      1.0000 0.33333  0.66667  0.80750  Biso   1.000  H
  P26      1.0000 0.66667  0.33333  0.63842  Biso   1.000  P
  H50      1.0000 0.66667  0.33333  0.69250  Biso   1.000  H
  P27      1.0000 0.66667  0.33333  0.13842  Biso   1.000  P
  H51      1.0000 0.66667  0.33333  0.19250  Biso   1.000  H
  P28      1.0000 0.33333  0.66667  0.36158  Biso   1.000  P
  H52      1.0000 0.33333  0.66667  0.30750  Biso   1.000  H
