data_image0
_cell_length_a       14.4317
_cell_length_b       17.5615
_cell_length_c       7.4864
_cell_angle_alpha    90
_cell_angle_beta     90
_cell_angle_gamma    90

_symmetry_space_group_name_H-M    "P 1"
_symmetry_int_tables_number       1

loop_
  _symmetry_equiv_pos_as_xyz
  'x, y, z'

loop_
  _atom_site_label
  _atom_site_occupancy
  _atom_site_fract_x
  _atom_site_fract_y
  _atom_site_fract_z
  _atom_site_thermal_displace_type
  _atom_site_B_iso_or_equiv
  _atom_site_type_symbol
  N1       1.0000 0.14434  0.77077  0.28600  Biso   1.000  N
  C1       1.0000 0.10339  0.77530  0.16840  Biso   1.000  C
  N2       1.0000 0.64434  0.27077  0.28600  Biso   1.000  N
  C2       1.0000 0.60339  0.27530  0.16840  Biso   1.000  C
  N3       1.0000 0.85566  0.22923  0.28600  Biso   1.000  N
  C3       1.0000 0.89661  0.22470  0.16840  Biso   1.000  C
  N4       1.0000 0.35566  0.72923  0.28600  Biso   1.000  N
  C4       1.0000 0.39661  0.72470  0.16840  Biso   1.000  C
  N5       1.0000 0.85566  0.77077  0.71400  Biso   1.000  N
  C5       1.0000 0.89661  0.77530  0.83160  Biso   1.000  C
  N6       1.0000 0.35566  0.27077  0.71400  Biso   1.000  N
  C6       1.0000 0.39661  0.27530  0.83160  Biso   1.000  C
  N7       1.0000 0.14434  0.22923  0.71400  Biso   1.000  N
  C7       1.0000 0.10339  0.22470  0.83160  Biso   1.000  C
  N8       1.0000 0.64434  0.72923  0.71400  Biso   1.000  N
  C8       1.0000 0.60339  0.72470  0.83160  Biso   1.000  C
  N9       1.0000 0.85566  0.22923  0.71400  Biso   1.000  N
  C9       1.0000 0.89661  0.22470  0.83160  Biso   1.000  C
  N10      1.0000 0.35566  0.72923  0.71400  Biso   1.000  N
  C10      1.0000 0.39661  0.72470  0.83160  Biso   1.000  C
  N11      1.0000 0.14434  0.77077  0.71400  Biso   1.000  N
  C11      1.0000 0.10339  0.77530  0.83160  Biso   1.000  C
  N12      1.0000 0.64434  0.27077  0.71400  Biso   1.000  N
  C12      1.0000 0.60339  0.27530  0.83160  Biso   1.000  C
  N13      1.0000 0.14434  0.22923  0.28600  Biso   1.000  N
  C13      1.0000 0.10339  0.22470  0.16840  Biso   1.000  C
  N14      1.0000 0.64434  0.72923  0.28600  Biso   1.000  N
  C14      1.0000 0.60339  0.72470  0.16840  Biso   1.000  C
  N15      1.0000 0.85566  0.77077  0.28600  Biso   1.000  N
  C15      1.0000 0.89661  0.77530  0.16840  Biso   1.000  C
  N16      1.0000 0.35566  0.27077  0.28600  Biso   1.000  N
  C16      1.0000 0.39661  0.27530  0.16840  Biso   1.000  C
  Mn1      1.0000 0.25000  0.75000  0.50000  Biso   1.000  Mn
  Mn2      1.0000 0.75000  0.25000  0.50000  Biso   1.000  Mn
  Mn3      1.0000 0.75000  0.75000  0.50000  Biso   1.000  Mn
  Mn4      1.0000 0.25000  0.25000  0.50000  Biso   1.000  Mn
  C17      1.0000 0.05127  0.77448  0.00000  Biso   1.000  C
  C18      1.0000 0.55127  0.27448  0.00000  Biso   1.000  C
  C19      1.0000 0.94873  0.22552  0.00000  Biso   1.000  C
  C20      1.0000 0.44873  0.72552  0.00000  Biso   1.000  C
  C21      1.0000 0.94873  0.77448  0.00000  Biso   1.000  C
  C22      1.0000 0.44873  0.27448  0.00000  Biso   1.000  C
  C23      1.0000 0.05127  0.22552  0.00000  Biso   1.000  C
  C24      1.0000 0.55127  0.72552  0.00000  Biso   1.000  C
  N17      1.0000 0.28466  0.87251  0.50000  Biso   1.000  N
  C25      1.0000 0.31845  0.92860  0.50000  Biso   1.000  C
  N18      1.0000 0.78466  0.37251  0.50000  Biso   1.000  N
  C26      1.0000 0.81845  0.42860  0.50000  Biso   1.000  C
  N19      1.0000 0.71534  0.12749  0.50000  Biso   1.000  N
  C27      1.0000 0.68155  0.07140  0.50000  Biso   1.000  C
  N20      1.0000 0.21534  0.62749  0.50000  Biso   1.000  N
  C28      1.0000 0.18155  0.57140  0.50000  Biso   1.000  C
  N21      1.0000 0.71534  0.87251  0.50000  Biso   1.000  N
  C29      1.0000 0.68155  0.92860  0.50000  Biso   1.000  C
  N22      1.0000 0.21534  0.37251  0.50000  Biso   1.000  N
  C30      1.0000 0.18155  0.42860  0.50000  Biso   1.000  C
  N23      1.0000 0.28466  0.12749  0.50000  Biso   1.000  N
  C31      1.0000 0.31845  0.07140  0.50000  Biso   1.000  C
  N24      1.0000 0.78466  0.62749  0.50000  Biso   1.000  N
  C32      1.0000 0.81845  0.57140  0.50000  Biso   1.000  C
  C33      1.0000 0.36280  0.00000  0.50000  Biso   1.000  C
  C34      1.0000 0.86280  0.50000  0.50000  Biso   1.000  C
  C35      1.0000 0.63720  0.00000  0.50000  Biso   1.000  C
  C36      1.0000 0.13720  0.50000  0.50000  Biso   1.000  C
