data_image0
_cell_length_a       20.5138
_cell_length_b       20.5138
_cell_length_c       17.81
_cell_angle_alpha    90
_cell_angle_beta     90
_cell_angle_gamma    90

_symmetry_space_group_name_H-M    "P 1"
_symmetry_int_tables_number       1

loop_
  _symmetry_equiv_pos_as_xyz
  'x, y, z'

loop_
  _atom_site_label
  _atom_site_occupancy
  _atom_site_fract_x
  _atom_site_fract_y
  _atom_site_fract_z
  _atom_site_thermal_displace_type
  _atom_site_B_iso_or_equiv
  _atom_site_type_symbol
  Zn1      1.0000 0.25748  0.11945  0.33239  Biso   1.000  Zn
  O1       1.0000 0.23520  0.12950  0.22690  Biso   1.000  O
  O2       1.0000 0.31290  0.05620  0.21420  Biso   1.000  O
  O3       1.0000 0.33707  0.94511  0.96920  Biso   1.000  O
  O4       1.0000 0.25740  0.96530  0.88430  Biso   1.000  O
  O5       1.0000 0.17330  0.19184  0.88438  Biso   1.000  O
  O6       1.0000 0.16030  0.24205  0.99391  Biso   1.000  O
  C1       1.0000 0.27130  0.09310  0.18730  Biso   1.000  C
  C2       1.0000 0.26070  0.09320  0.10400  Biso   1.000  C
  C3       1.0000 0.28360  0.04054  0.06210  Biso   1.000  C
  H1       1.0000 0.30740  0.00770  0.08540  Biso   1.000  H
  C4       1.0000 0.27090  0.03711  0.98520  Biso   1.000  C
  C5       1.0000 0.23740  0.08750  0.95130  Biso   1.000  C
  H2       1.0000 0.22890  0.08550  0.90010  Biso   1.000  H
  C6       1.0000 0.21600  0.14120  0.99210  Biso   1.000  C
  C7       1.0000 0.22670  0.14340  0.06920  Biso   1.000  C
  H3       1.0000 0.21130  0.17830  0.09740  Biso   1.000  H
  C8       1.0000 0.29140  0.97810  0.94240  Biso   1.000  C
  C9       1.0000 0.18110  0.19650  0.95450  Biso   1.000  C
  Zn2      1.0000 0.34320  0.08059  0.30964  Biso   1.000  Zn
  Zn3      1.0000 0.75748  0.61945  0.83239  Biso   1.000  Zn
  O7       1.0000 0.73520  0.62950  0.72690  Biso   1.000  O
  O8       1.0000 0.81290  0.55620  0.71420  Biso   1.000  O
  O9       1.0000 0.83707  0.44511  0.46920  Biso   1.000  O
  O10      1.0000 0.75740  0.46530  0.38430  Biso   1.000  O
  O11      1.0000 0.67330  0.69184  0.38438  Biso   1.000  O
  O12      1.0000 0.66030  0.74205  0.49391  Biso   1.000  O
  C10      1.0000 0.77130  0.59310  0.68730  Biso   1.000  C
  C11      1.0000 0.76070  0.59320  0.60400  Biso   1.000  C
  C12      1.0000 0.78360  0.54054  0.56210  Biso   1.000  C
  H4       1.0000 0.80740  0.50770  0.58540  Biso   1.000  H
  C13      1.0000 0.77090  0.53711  0.48520  Biso   1.000  C
  C14      1.0000 0.73740  0.58750  0.45130  Biso   1.000  C
  H5       1.0000 0.72890  0.58550  0.40010  Biso   1.000  H
  C15      1.0000 0.71600  0.64120  0.49210  Biso   1.000  C
  C16      1.0000 0.72670  0.64340  0.56920  Biso   1.000  C
  H6       1.0000 0.71130  0.67830  0.59740  Biso   1.000  H
  C17      1.0000 0.79140  0.47810  0.44240  Biso   1.000  C
  C18      1.0000 0.68110  0.69650  0.45450  Biso   1.000  C
  Zn4      1.0000 0.84320  0.58059  0.80964  Biso   1.000  Zn
  Zn5      1.0000 0.74252  0.88055  0.33239  Biso   1.000  Zn
  O13      1.0000 0.76480  0.87050  0.22690  Biso   1.000  O
  O14      1.0000 0.68710  0.94380  0.21420  Biso   1.000  O
  O15      1.0000 0.66293  0.05489  0.96920  Biso   1.000  O
  O16      1.0000 0.74260  0.03470  0.88430  Biso   1.000  O
  O17      1.0000 0.82670  0.80816  0.88438  Biso   1.000  O
  O18      1.0000 0.83970  0.75795  0.99391  Biso   1.000  O
  C19      1.0000 0.72870  0.90690  0.18730  Biso   1.000  C
  C20      1.0000 0.73930  0.90680  0.10400  Biso   1.000  C
  C21      1.0000 0.71640  0.95946  0.06210  Biso   1.000  C
  H7       1.0000 0.69260  0.99230  0.08540  Biso   1.000  H
  C22      1.0000 0.72910  0.96289  0.98520  Biso   1.000  C
  C23      1.0000 0.76260  0.91250  0.95130  Biso   1.000  C
  H8       1.0000 0.77110  0.91450  0.90010  Biso   1.000  H
  C24      1.0000 0.78400  0.85880  0.99210  Biso   1.000  C
  C25      1.0000 0.77330  0.85660  0.06920  Biso   1.000  C
  H9       1.0000 0.78870  0.82170  0.09740  Biso   1.000  H
  C26      1.0000 0.70860  0.02190  0.94240  Biso   1.000  C
  C27      1.0000 0.81890  0.80350  0.95450  Biso   1.000  C
  Zn6      1.0000 0.65680  0.91941  0.30964  Biso   1.000  Zn
  Zn7      1.0000 0.24252  0.38055  0.83239  Biso   1.000  Zn
  O19      1.0000 0.26480  0.37050  0.72690  Biso   1.000  O
  O20      1.0000 0.18710  0.44380  0.71420  Biso   1.000  O
  O21      1.0000 0.16293  0.55489  0.46920  Biso   1.000  O
  O22      1.0000 0.24260  0.53470  0.38430  Biso   1.000  O
  O23      1.0000 0.32670  0.30816  0.38438  Biso   1.000  O
  O24      1.0000 0.33970  0.25795  0.49391  Biso   1.000  O
  C28      1.0000 0.22870  0.40690  0.68730  Biso   1.000  C
  C29      1.0000 0.23930  0.40680  0.60400  Biso   1.000  C
  C30      1.0000 0.21640  0.45946  0.56210  Biso   1.000  C
  H10      1.0000 0.19260  0.49230  0.58540  Biso   1.000  H
  C31      1.0000 0.22910  0.46289  0.48520  Biso   1.000  C
  C32      1.0000 0.26260  0.41250  0.45130  Biso   1.000  C
  H11      1.0000 0.27110  0.41450  0.40010  Biso   1.000  H
  C33      1.0000 0.28400  0.35880  0.49210  Biso   1.000  C
  C34      1.0000 0.27330  0.35660  0.56920  Biso   1.000  C
  H12      1.0000 0.28870  0.32170  0.59740  Biso   1.000  H
  C35      1.0000 0.20860  0.52190  0.44240  Biso   1.000  C
  C36      1.0000 0.31890  0.30350  0.45450  Biso   1.000  C
  Zn8      1.0000 0.15680  0.41941  0.80964  Biso   1.000  Zn
  Zn9      1.0000 0.88055  0.25748  0.33239  Biso   1.000  Zn
  O25      1.0000 0.87050  0.23520  0.22690  Biso   1.000  O
  O26      1.0000 0.94380  0.31290  0.21420  Biso   1.000  O
  O27      1.0000 0.05489  0.33707  0.96920  Biso   1.000  O
  O28      1.0000 0.03470  0.25740  0.88430  Biso   1.000  O
  O29      1.0000 0.80816  0.17330  0.88438  Biso   1.000  O
  O30      1.0000 0.75795  0.16030  0.99391  Biso   1.000  O
  C37      1.0000 0.90690  0.27130  0.18730  Biso   1.000  C
  C38      1.0000 0.90680  0.26070  0.10400  Biso   1.000  C
  C39      1.0000 0.95946  0.28360  0.06210  Biso   1.000  C
  H13      1.0000 0.99230  0.30740  0.08540  Biso   1.000  H
  C40      1.0000 0.96289  0.27090  0.98520  Biso   1.000  C
  C41      1.0000 0.91250  0.23740  0.95130  Biso   1.000  C
  H14      1.0000 0.91450  0.22890  0.90010  Biso   1.000  H
  C42      1.0000 0.85880  0.21600  0.99210  Biso   1.000  C
  C43      1.0000 0.85660  0.22670  0.06920  Biso   1.000  C
  H15      1.0000 0.82170  0.21130  0.09740  Biso   1.000  H
  C44      1.0000 0.02190  0.29140  0.94240  Biso   1.000  C
  C45      1.0000 0.80350  0.18110  0.95450  Biso   1.000  C
  Zn10     1.0000 0.91941  0.34320  0.30964  Biso   1.000  Zn
  Zn11     1.0000 0.38055  0.75748  0.83239  Biso   1.000  Zn
  O31      1.0000 0.37050  0.73520  0.72690  Biso   1.000  O
  O32      1.0000 0.44380  0.81290  0.71420  Biso   1.000  O
  O33      1.0000 0.55489  0.83707  0.46920  Biso   1.000  O
  O34      1.0000 0.53470  0.75740  0.38430  Biso   1.000  O
  O35      1.0000 0.30816  0.67330  0.38438  Biso   1.000  O
  O36      1.0000 0.25795  0.66030  0.49391  Biso   1.000  O
  C46      1.0000 0.40690  0.77130  0.68730  Biso   1.000  C
  C47      1.0000 0.40680  0.76070  0.60400  Biso   1.000  C
  C48      1.0000 0.45946  0.78360  0.56210  Biso   1.000  C
  H16      1.0000 0.49230  0.80740  0.58540  Biso   1.000  H
  C49      1.0000 0.46289  0.77090  0.48520  Biso   1.000  C
  C50      1.0000 0.41250  0.73740  0.45130  Biso   1.000  C
  H17      1.0000 0.41450  0.72890  0.40010  Biso   1.000  H
  C51      1.0000 0.35880  0.71600  0.49210  Biso   1.000  C
  C52      1.0000 0.35660  0.72670  0.56920  Biso   1.000  C
  H18      1.0000 0.32170  0.71130  0.59740  Biso   1.000  H
  C53      1.0000 0.52190  0.79140  0.44240  Biso   1.000  C
  C54      1.0000 0.30350  0.68110  0.45450  Biso   1.000  C
  Zn12     1.0000 0.41941  0.84320  0.80964  Biso   1.000  Zn
  Zn13     1.0000 0.11945  0.74252  0.33239  Biso   1.000  Zn
  O37      1.0000 0.12950  0.76480  0.22690  Biso   1.000  O
  O38      1.0000 0.05620  0.68710  0.21420  Biso   1.000  O
  O39      1.0000 0.94511  0.66293  0.96920  Biso   1.000  O
  O40      1.0000 0.96530  0.74260  0.88430  Biso   1.000  O
  O41      1.0000 0.19184  0.82670  0.88438  Biso   1.000  O
  O42      1.0000 0.24205  0.83970  0.99391  Biso   1.000  O
  C55      1.0000 0.09310  0.72870  0.18730  Biso   1.000  C
  C56      1.0000 0.09320  0.73930  0.10400  Biso   1.000  C
  C57      1.0000 0.04054  0.71640  0.06210  Biso   1.000  C
  H19      1.0000 0.00770  0.69260  0.08540  Biso   1.000  H
  C58      1.0000 0.03711  0.72910  0.98520  Biso   1.000  C
  C59      1.0000 0.08750  0.76260  0.95130  Biso   1.000  C
  H20      1.0000 0.08550  0.77110  0.90010  Biso   1.000  H
  C60      1.0000 0.14120  0.78400  0.99210  Biso   1.000  C
  C61      1.0000 0.14340  0.77330  0.06920  Biso   1.000  C
  H21      1.0000 0.17830  0.78870  0.09740  Biso   1.000  H
  C62      1.0000 0.97810  0.70860  0.94240  Biso   1.000  C
  C63      1.0000 0.19650  0.81890  0.95450  Biso   1.000  C
  Zn14     1.0000 0.08059  0.65680  0.30964  Biso   1.000  Zn
  Zn15     1.0000 0.61945  0.24252  0.83239  Biso   1.000  Zn
  O43      1.0000 0.62950  0.26480  0.72690  Biso   1.000  O
  O44      1.0000 0.55620  0.18710  0.71420  Biso   1.000  O
  O45      1.0000 0.44511  0.16293  0.46920  Biso   1.000  O
  O46      1.0000 0.46530  0.24260  0.38430  Biso   1.000  O
  O47      1.0000 0.69184  0.32670  0.38438  Biso   1.000  O
  O48      1.0000 0.74205  0.33970  0.49391  Biso   1.000  O
  C64      1.0000 0.59310  0.22870  0.68730  Biso   1.000  C
  C65      1.0000 0.59320  0.23930  0.60400  Biso   1.000  C
  C66      1.0000 0.54054  0.21640  0.56210  Biso   1.000  C
  H22      1.0000 0.50770  0.19260  0.58540  Biso   1.000  H
  C67      1.0000 0.53711  0.22910  0.48520  Biso   1.000  C
  C68      1.0000 0.58750  0.26260  0.45130  Biso   1.000  C
  H23      1.0000 0.58550  0.27110  0.40010  Biso   1.000  H
  C69      1.0000 0.64120  0.28400  0.49210  Biso   1.000  C
  C70      1.0000 0.64340  0.27330  0.56920  Biso   1.000  C
  H24      1.0000 0.67830  0.28870  0.59740  Biso   1.000  H
  C71      1.0000 0.47810  0.20860  0.44240  Biso   1.000  C
  C72      1.0000 0.69650  0.31890  0.45450  Biso   1.000  C
  Zn16     1.0000 0.58059  0.15680  0.80964  Biso   1.000  Zn
  Zn17     1.0000 0.25748  0.88055  0.83239  Biso   1.000  Zn
  O49      1.0000 0.23520  0.87050  0.72690  Biso   1.000  O
  O50      1.0000 0.31290  0.94380  0.71420  Biso   1.000  O
  O51      1.0000 0.33707  0.05489  0.46920  Biso   1.000  O
  O52      1.0000 0.25740  0.03470  0.38430  Biso   1.000  O
  O53      1.0000 0.17330  0.80816  0.38438  Biso   1.000  O
  O54      1.0000 0.16030  0.75795  0.49391  Biso   1.000  O
  C73      1.0000 0.27130  0.90690  0.68730  Biso   1.000  C
  C74      1.0000 0.26070  0.90680  0.60400  Biso   1.000  C
  C75      1.0000 0.28360  0.95946  0.56210  Biso   1.000  C
  H25      1.0000 0.30740  0.99230  0.58540  Biso   1.000  H
  C76      1.0000 0.27090  0.96289  0.48520  Biso   1.000  C
  C77      1.0000 0.23740  0.91250  0.45130  Biso   1.000  C
  H26      1.0000 0.22890  0.91450  0.40010  Biso   1.000  H
  C78      1.0000 0.21600  0.85880  0.49210  Biso   1.000  C
  C79      1.0000 0.22670  0.85660  0.56920  Biso   1.000  C
  H27      1.0000 0.21130  0.82170  0.59740  Biso   1.000  H
  C80      1.0000 0.29140  0.02190  0.44240  Biso   1.000  C
  C81      1.0000 0.18110  0.80350  0.45450  Biso   1.000  C
  Zn18     1.0000 0.34320  0.91941  0.80964  Biso   1.000  Zn
  Zn19     1.0000 0.75748  0.38055  0.33239  Biso   1.000  Zn
  O55      1.0000 0.73520  0.37050  0.22690  Biso   1.000  O
  O56      1.0000 0.81290  0.44380  0.21420  Biso   1.000  O
  O57      1.0000 0.83707  0.55489  0.96920  Biso   1.000  O
  O58      1.0000 0.75740  0.53470  0.88430  Biso   1.000  O
  O59      1.0000 0.67330  0.30816  0.88438  Biso   1.000  O
  O60      1.0000 0.66030  0.25795  0.99391  Biso   1.000  O
  C82      1.0000 0.77130  0.40690  0.18730  Biso   1.000  C
  C83      1.0000 0.76070  0.40680  0.10400  Biso   1.000  C
  C84      1.0000 0.78360  0.45946  0.06210  Biso   1.000  C
  H28      1.0000 0.80740  0.49230  0.08540  Biso   1.000  H
  C85      1.0000 0.77090  0.46289  0.98520  Biso   1.000  C
  C86      1.0000 0.73740  0.41250  0.95130  Biso   1.000  C
  H29      1.0000 0.72890  0.41450  0.90010  Biso   1.000  H
  C87      1.0000 0.71600  0.35880  0.99210  Biso   1.000  C
  C88      1.0000 0.72670  0.35660  0.06920  Biso   1.000  C
  H30      1.0000 0.71130  0.32170  0.09740  Biso   1.000  H
  C89      1.0000 0.79140  0.52190  0.94240  Biso   1.000  C
  C90      1.0000 0.68110  0.30350  0.95450  Biso   1.000  C
  Zn20     1.0000 0.84320  0.41941  0.30964  Biso   1.000  Zn
  Zn21     1.0000 0.74252  0.11945  0.83239  Biso   1.000  Zn
  O61      1.0000 0.76480  0.12950  0.72690  Biso   1.000  O
  O62      1.0000 0.68710  0.05620  0.71420  Biso   1.000  O
  O63      1.0000 0.66293  0.94511  0.46920  Biso   1.000  O
  O64      1.0000 0.74260  0.96530  0.38430  Biso   1.000  O
  O65      1.0000 0.82670  0.19184  0.38438  Biso   1.000  O
  O66      1.0000 0.83970  0.24205  0.49391  Biso   1.000  O
  C91      1.0000 0.72870  0.09310  0.68730  Biso   1.000  C
  C92      1.0000 0.73930  0.09320  0.60400  Biso   1.000  C
  C93      1.0000 0.71640  0.04054  0.56210  Biso   1.000  C
  H31      1.0000 0.69260  0.00770  0.58540  Biso   1.000  H
  C94      1.0000 0.72910  0.03711  0.48520  Biso   1.000  C
  C95      1.0000 0.76260  0.08750  0.45130  Biso   1.000  C
  H32      1.0000 0.77110  0.08550  0.40010  Biso   1.000  H
  C96      1.0000 0.78400  0.14120  0.49210  Biso   1.000  C
  C97      1.0000 0.77330  0.14340  0.56920  Biso   1.000  C
  H33      1.0000 0.78870  0.17830  0.59740  Biso   1.000  H
  C98      1.0000 0.70860  0.97810  0.44240  Biso   1.000  C
  C99      1.0000 0.81890  0.19650  0.45450  Biso   1.000  C
  Zn22     1.0000 0.65680  0.08059  0.80964  Biso   1.000  Zn
  Zn23     1.0000 0.24252  0.61945  0.33239  Biso   1.000  Zn
  O67      1.0000 0.26480  0.62950  0.22690  Biso   1.000  O
  O68      1.0000 0.18710  0.55620  0.21420  Biso   1.000  O
  O69      1.0000 0.16293  0.44511  0.96920  Biso   1.000  O
  O70      1.0000 0.24260  0.46530  0.88430  Biso   1.000  O
  O71      1.0000 0.32670  0.69184  0.88438  Biso   1.000  O
  O72      1.0000 0.33970  0.74205  0.99391  Biso   1.000  O
  C100     1.0000 0.22870  0.59310  0.18730  Biso   1.000  C
  C101     1.0000 0.23930  0.59320  0.10400  Biso   1.000  C
  C102     1.0000 0.21640  0.54054  0.06210  Biso   1.000  C
  H34      1.0000 0.19260  0.50770  0.08540  Biso   1.000  H
  C103     1.0000 0.22910  0.53711  0.98520  Biso   1.000  C
  C104     1.0000 0.26260  0.58750  0.95130  Biso   1.000  C
  H35      1.0000 0.27110  0.58550  0.90010  Biso   1.000  H
  C105     1.0000 0.28400  0.64120  0.99210  Biso   1.000  C
  C106     1.0000 0.27330  0.64340  0.06920  Biso   1.000  C
  H36      1.0000 0.28870  0.67830  0.09740  Biso   1.000  H
  C107     1.0000 0.20860  0.47810  0.94240  Biso   1.000  C
  C108     1.0000 0.31890  0.69650  0.95450  Biso   1.000  C
  Zn24     1.0000 0.15680  0.58059  0.30964  Biso   1.000  Zn
  Zn25     1.0000 0.88055  0.74252  0.83239  Biso   1.000  Zn
  O73      1.0000 0.87050  0.76480  0.72690  Biso   1.000  O
  O74      1.0000 0.94380  0.68710  0.71420  Biso   1.000  O
  O75      1.0000 0.05489  0.66293  0.46920  Biso   1.000  O
  O76      1.0000 0.03470  0.74260  0.38430  Biso   1.000  O
  O77      1.0000 0.80816  0.82670  0.38438  Biso   1.000  O
  O78      1.0000 0.75795  0.83970  0.49391  Biso   1.000  O
  C109     1.0000 0.90690  0.72870  0.68730  Biso   1.000  C
  C110     1.0000 0.90680  0.73930  0.60400  Biso   1.000  C
  C111     1.0000 0.95946  0.71640  0.56210  Biso   1.000  C
  H37      1.0000 0.99230  0.69260  0.58540  Biso   1.000  H
  C112     1.0000 0.96289  0.72910  0.48520  Biso   1.000  C
  C113     1.0000 0.91250  0.76260  0.45130  Biso   1.000  C
  H38      1.0000 0.91450  0.77110  0.40010  Biso   1.000  H
  C114     1.0000 0.85880  0.78400  0.49210  Biso   1.000  C
  C115     1.0000 0.85660  0.77330  0.56920  Biso   1.000  C
  H39      1.0000 0.82170  0.78870  0.59740  Biso   1.000  H
  C116     1.0000 0.02190  0.70860  0.44240  Biso   1.000  C
  C117     1.0000 0.80350  0.81890  0.45450  Biso   1.000  C
  Zn26     1.0000 0.91941  0.65680  0.80964  Biso   1.000  Zn
  Zn27     1.0000 0.38055  0.24252  0.33239  Biso   1.000  Zn
  O79      1.0000 0.37050  0.26480  0.22690  Biso   1.000  O
  O80      1.0000 0.44380  0.18710  0.21420  Biso   1.000  O
  O81      1.0000 0.55489  0.16293  0.96920  Biso   1.000  O
  O82      1.0000 0.53470  0.24260  0.88430  Biso   1.000  O
  O83      1.0000 0.30816  0.32670  0.88438  Biso   1.000  O
  O84      1.0000 0.25795  0.33970  0.99391  Biso   1.000  O
  C118     1.0000 0.40690  0.22870  0.18730  Biso   1.000  C
  C119     1.0000 0.40680  0.23930  0.10400  Biso   1.000  C
  C120     1.0000 0.45946  0.21640  0.06210  Biso   1.000  C
  H40      1.0000 0.49230  0.19260  0.08540  Biso   1.000  H
  C121     1.0000 0.46289  0.22910  0.98520  Biso   1.000  C
  C122     1.0000 0.41250  0.26260  0.95130  Biso   1.000  C
  H41      1.0000 0.41450  0.27110  0.90010  Biso   1.000  H
  C123     1.0000 0.35880  0.28400  0.99210  Biso   1.000  C
  C124     1.0000 0.35660  0.27330  0.06920  Biso   1.000  C
  H42      1.0000 0.32170  0.28870  0.09740  Biso   1.000  H
  C125     1.0000 0.52190  0.20860  0.94240  Biso   1.000  C
  C126     1.0000 0.30350  0.31890  0.95450  Biso   1.000  C
  Zn28     1.0000 0.41941  0.15680  0.30964  Biso   1.000  Zn
  Zn29     1.0000 0.11945  0.25748  0.83239  Biso   1.000  Zn
  O85      1.0000 0.12950  0.23520  0.72690  Biso   1.000  O
  O86      1.0000 0.05620  0.31290  0.71420  Biso   1.000  O
  O87      1.0000 0.94511  0.33707  0.46920  Biso   1.000  O
  O88      1.0000 0.96530  0.25740  0.38430  Biso   1.000  O
  O89      1.0000 0.19184  0.17330  0.38438  Biso   1.000  O
  O90      1.0000 0.24205  0.16030  0.49391  Biso   1.000  O
  C127     1.0000 0.09310  0.27130  0.68730  Biso   1.000  C
  C128     1.0000 0.09320  0.26070  0.60400  Biso   1.000  C
  C129     1.0000 0.04054  0.28360  0.56210  Biso   1.000  C
  H43      1.0000 0.00770  0.30740  0.58540  Biso   1.000  H
  C130     1.0000 0.03711  0.27090  0.48520  Biso   1.000  C
  C131     1.0000 0.08750  0.23740  0.45130  Biso   1.000  C
  H44      1.0000 0.08550  0.22890  0.40010  Biso   1.000  H
  C132     1.0000 0.14120  0.21600  0.49210  Biso   1.000  C
  C133     1.0000 0.14340  0.22670  0.56920  Biso   1.000  C
  H45      1.0000 0.17830  0.21130  0.59740  Biso   1.000  H
  C134     1.0000 0.97810  0.29140  0.44240  Biso   1.000  C
  C135     1.0000 0.19650  0.18110  0.45450  Biso   1.000  C
  Zn30     1.0000 0.08059  0.34320  0.80964  Biso   1.000  Zn
  Zn31     1.0000 0.61945  0.75748  0.33239  Biso   1.000  Zn
  O91      1.0000 0.62950  0.73520  0.22690  Biso   1.000  O
  O92      1.0000 0.55620  0.81290  0.21420  Biso   1.000  O
  O93      1.0000 0.44511  0.83707  0.96920  Biso   1.000  O
  O94      1.0000 0.46530  0.75740  0.88430  Biso   1.000  O
  O95      1.0000 0.69184  0.67330  0.88438  Biso   1.000  O
  O96      1.0000 0.74205  0.66030  0.99391  Biso   1.000  O
  C136     1.0000 0.59310  0.77130  0.18730  Biso   1.000  C
  C137     1.0000 0.59320  0.76070  0.10400  Biso   1.000  C
  C138     1.0000 0.54054  0.78360  0.06210  Biso   1.000  C
  H46      1.0000 0.50770  0.80740  0.08540  Biso   1.000  H
  C139     1.0000 0.53711  0.77090  0.98520  Biso   1.000  C
  C140     1.0000 0.58750  0.73740  0.95130  Biso   1.000  C
  H47      1.0000 0.58550  0.72890  0.90010  Biso   1.000  H
  C141     1.0000 0.64120  0.71600  0.99210  Biso   1.000  C
  C142     1.0000 0.64340  0.72670  0.06920  Biso   1.000  C
  H48      1.0000 0.67830  0.71130  0.09740  Biso   1.000  H
  C143     1.0000 0.47810  0.79140  0.94240  Biso   1.000  C
  C144     1.0000 0.69650  0.68110  0.95450  Biso   1.000  C
  Zn32     1.0000 0.58059  0.84320  0.30964  Biso   1.000  Zn
  Zn33     1.0000 0.34369  0.15631  0.47802  Biso   1.000  Zn
  O97      1.0000 0.33956  0.16044  0.36010  Biso   1.000  O
  O98      1.0000 0.43030  0.06970  0.29380  Biso   1.000  O
  H49      1.0000 0.44120  0.05880  0.25010  Biso   1.000  H
  H50      1.0000 0.45070  0.04930  0.32720  Biso   1.000  H
  Zn34     1.0000 0.65631  0.84369  0.47802  Biso   1.000  Zn
  O99      1.0000 0.66044  0.83956  0.36010  Biso   1.000  O
  O100     1.0000 0.56970  0.93030  0.29380  Biso   1.000  O
  H51      1.0000 0.55880  0.94120  0.25010  Biso   1.000  H
  H52      1.0000 0.54930  0.95070  0.32720  Biso   1.000  H
  Zn35     1.0000 0.15631  0.34369  0.97802  Biso   1.000  Zn
  O101     1.0000 0.16044  0.33956  0.86010  Biso   1.000  O
  O102     1.0000 0.06970  0.43030  0.79380  Biso   1.000  O
  H53      1.0000 0.05880  0.44120  0.75010  Biso   1.000  H
  H54      1.0000 0.04930  0.45070  0.82720  Biso   1.000  H
  Zn36     1.0000 0.84369  0.34369  0.47802  Biso   1.000  Zn
  O103     1.0000 0.83956  0.33956  0.36010  Biso   1.000  O
  O104     1.0000 0.93030  0.43030  0.29380  Biso   1.000  O
  H55      1.0000 0.94120  0.44120  0.25010  Biso   1.000  H
  H56      1.0000 0.95070  0.45070  0.32720  Biso   1.000  H
  Zn37     1.0000 0.15631  0.65631  0.47802  Biso   1.000  Zn
  O105     1.0000 0.16044  0.66044  0.36010  Biso   1.000  O
  O106     1.0000 0.06970  0.56970  0.29380  Biso   1.000  O
  H57      1.0000 0.05880  0.55880  0.25010  Biso   1.000  H
  H58      1.0000 0.04930  0.54930  0.32720  Biso   1.000  H
  Zn38     1.0000 0.34369  0.84369  0.97802  Biso   1.000  Zn
  O107     1.0000 0.33956  0.83956  0.86010  Biso   1.000  O
  O108     1.0000 0.43030  0.93030  0.79380  Biso   1.000  O
  H59      1.0000 0.44120  0.94120  0.75010  Biso   1.000  H
  H60      1.0000 0.45070  0.95070  0.82720  Biso   1.000  H
  Zn39     1.0000 0.65631  0.15631  0.97802  Biso   1.000  Zn
  O109     1.0000 0.66044  0.16044  0.86010  Biso   1.000  O
  O110     1.0000 0.56970  0.06970  0.79380  Biso   1.000  O
  H61      1.0000 0.55880  0.05880  0.75010  Biso   1.000  H
  H62      1.0000 0.54930  0.04930  0.82720  Biso   1.000  H
  Zn40     1.0000 0.84369  0.65631  0.97802  Biso   1.000  Zn
  O111     1.0000 0.83956  0.66044  0.86010  Biso   1.000  O
  O112     1.0000 0.93030  0.56970  0.79380  Biso   1.000  O
  H63      1.0000 0.94120  0.55880  0.75010  Biso   1.000  H
  H64      1.0000 0.95070  0.54930  0.82720  Biso   1.000  H
