data_image0
_cell_length_a       9.189
_cell_length_b       14.1036
_cell_length_c       18.3518
_cell_angle_alpha    90
_cell_angle_beta     117.157
_cell_angle_gamma    90

_symmetry_space_group_name_H-M    "P 1"
_symmetry_int_tables_number       1

loop_
  _symmetry_equiv_pos_as_xyz
  'x, y, z'

loop_
  _atom_site_label
  _atom_site_occupancy
  _atom_site_fract_x
  _atom_site_fract_y
  _atom_site_fract_z
  _atom_site_thermal_displace_type
  _atom_site_B_iso_or_equiv
  _atom_site_type_symbol
  Hg1      1.0000 0.56352  0.79810  0.58086  Biso   1.000  Hg
  Fe1      1.0000 0.23151  0.65150  0.75298  Biso   1.000  Fe
  S1       1.0000 0.71129  0.77187  0.73255  Biso   1.000  S
  S2       1.0000 0.27126  0.84379  0.53880  Biso   1.000  S
  S3       1.0000 0.72010  0.91503  0.53963  Biso   1.000  S
  S4       1.0000 0.55848  0.65272  0.49424  Biso   1.000  S
  N1       1.0000 0.38940  0.75300  0.34780  Biso   1.000  N
  N2       1.0000 0.75170  0.05550  0.65290  Biso   1.000  N
  N3       1.0000 0.23390  0.74160  0.66020  Biso   1.000  N
  N4       1.0000 0.01550  0.71760  0.74660  Biso   1.000  N
  C1       1.0000 0.46010  0.71200  0.40800  Biso   1.000  C
  C2       1.0000 0.25130  0.78310  0.61090  Biso   1.000  C
  C3       1.0000 0.73680  0.99860  0.60710  Biso   1.000  C
  C4       1.0000 0.89120  0.74090  0.73900  Biso   1.000  C
  Hg2      1.0000 0.43648  0.29810  0.91914  Biso   1.000  Hg
  Fe2      1.0000 0.76849  0.15150  0.74702  Biso   1.000  Fe
  S5       1.0000 0.28871  0.27187  0.76745  Biso   1.000  S
  S6       1.0000 0.72874  0.34379  0.96120  Biso   1.000  S
  S7       1.0000 0.27990  0.41503  0.96037  Biso   1.000  S
  S8       1.0000 0.44152  0.15272  0.00576  Biso   1.000  S
  N5       1.0000 0.61060  0.25300  0.15220  Biso   1.000  N
  N6       1.0000 0.24830  0.55550  0.84710  Biso   1.000  N
  N7       1.0000 0.76610  0.24160  0.83980  Biso   1.000  N
  N8       1.0000 0.98450  0.21760  0.75340  Biso   1.000  N
  C5       1.0000 0.53990  0.21200  0.09200  Biso   1.000  C
  C6       1.0000 0.74870  0.28310  0.88910  Biso   1.000  C
  C7       1.0000 0.26320  0.49860  0.89290  Biso   1.000  C
  C8       1.0000 0.10880  0.24090  0.76100  Biso   1.000  C
  Hg3      1.0000 0.43648  0.20190  0.41914  Biso   1.000  Hg
  Fe3      1.0000 0.76849  0.34850  0.24702  Biso   1.000  Fe
  S9       1.0000 0.28871  0.22813  0.26745  Biso   1.000  S
  S10      1.0000 0.72874  0.15621  0.46120  Biso   1.000  S
  S11      1.0000 0.27990  0.08497  0.46037  Biso   1.000  S
  S12      1.0000 0.44152  0.34728  0.50576  Biso   1.000  S
  N9       1.0000 0.61060  0.24700  0.65220  Biso   1.000  N
  N10      1.0000 0.24830  0.94450  0.34710  Biso   1.000  N
  N11      1.0000 0.76610  0.25840  0.33980  Biso   1.000  N
  N12      1.0000 0.98450  0.28240  0.25340  Biso   1.000  N
  C9       1.0000 0.53990  0.28800  0.59200  Biso   1.000  C
  C10      1.0000 0.74870  0.21690  0.38910  Biso   1.000  C
  C11      1.0000 0.26320  0.00140  0.39290  Biso   1.000  C
  C12      1.0000 0.10880  0.25910  0.26100  Biso   1.000  C
  Hg4      1.0000 0.56352  0.70190  0.08086  Biso   1.000  Hg
  Fe4      1.0000 0.23151  0.84850  0.25298  Biso   1.000  Fe
  S13      1.0000 0.71129  0.72813  0.23255  Biso   1.000  S
  S14      1.0000 0.27126  0.65621  0.03880  Biso   1.000  S
  S15      1.0000 0.72010  0.58497  0.03963  Biso   1.000  S
  S16      1.0000 0.55848  0.84728  0.99424  Biso   1.000  S
  N13      1.0000 0.38940  0.74700  0.84780  Biso   1.000  N
  N14      1.0000 0.75170  0.44450  0.15290  Biso   1.000  N
  N15      1.0000 0.23390  0.75840  0.16020  Biso   1.000  N
  N16      1.0000 0.01550  0.78240  0.24660  Biso   1.000  N
  C13      1.0000 0.46010  0.78800  0.90800  Biso   1.000  C
  C14      1.0000 0.25130  0.71690  0.11090  Biso   1.000  C
  C15      1.0000 0.73680  0.50140  0.10710  Biso   1.000  C
  C16      1.0000 0.89120  0.75910  0.23900  Biso   1.000  C
