data_MABJUV01_clean
_audit_creation_date              2014-07-02
_audit_creation_method            'Materials Studio'
_symmetry_space_group_name_H-M    'P1'
_symmetry_Int_Tables_number       1
_symmetry_cell_setting            triclinic
loop_
_symmetry_equiv_pos_as_xyz
  x,y,z
_cell_length_a                    8.5212
_cell_length_b                    12.4803
_cell_length_c                    12.4803
_cell_angle_alpha                 116.2010
_cell_angle_beta                  98.7430
_cell_angle_gamma                 81.2570
loop_
_atom_site_label
_atom_site_type_symbol
_atom_site_fract_x
_atom_site_fract_y
_atom_site_fract_z
_atom_site_U_iso_or_equiv
_atom_site_adp_type
_atom_site_occupancy
Cu1    Cu    0.92470   0.59676   0.99160   0.01267  Uiso   1.00
Cu2    Cu    0.57530   0.99160   0.59676   0.01267  Uiso   1.00
Cu3    Cu    0.07530   0.40324   0.00840   0.01267  Uiso   1.00
Cu4    Cu    0.42470   0.00840   0.40324   0.01267  Uiso   1.00
H1     H     0.74850   0.26520   0.65520   0.01267  Uiso   1.00
H2     H     0.80480   0.35630   0.61370   0.01267  Uiso   1.00
H3     H     0.05110   0.23990   0.56830   0.01267  Uiso   1.00
H4     H     0.00580   0.15200   0.61900   0.01267  Uiso   1.00
H5     H     0.96200   0.06070   0.40770   0.01267  Uiso   1.00
H6     H     0.84800   0.17560   0.40880   0.01267  Uiso   1.00
H7     H     0.82720   0.85750   0.16110   0.01267  Uiso   1.00
H8     H     0.65000   0.02050   0.17190   0.01267  Uiso   1.00
H9     H     0.50050   0.83350   0.82370   0.01267  Uiso   1.00
H10    H     0.68020   0.67540   0.82300   0.01267  Uiso   1.00
H11    H     0.75150   0.65520   0.26520   0.01267  Uiso   1.00
H12    H     0.69520   0.61370   0.35630   0.01267  Uiso   1.00
H13    H     0.44890   0.56830   0.23990   0.01267  Uiso   1.00
H14    H     0.49420   0.61900   0.15200   0.01267  Uiso   1.00
H15    H     0.53800   0.40770   0.06070   0.01267  Uiso   1.00
H16    H     0.65200   0.40880   0.17560   0.01267  Uiso   1.00
H17    H     0.67280   0.16110   0.85750   0.01267  Uiso   1.00
H18    H     0.85000   0.17190   0.02050   0.01267  Uiso   1.00
H19    H     0.99950   0.82370   0.83350   0.01267  Uiso   1.00
H20    H     0.81980   0.82300   0.67540   0.01267  Uiso   1.00
H21    H     0.25150   0.73480   0.34480   0.01267  Uiso   1.00
H22    H     0.19520   0.64370   0.38630   0.01267  Uiso   1.00
H23    H     0.94890   0.76010   0.43170   0.01267  Uiso   1.00
H24    H     0.99420   0.84800   0.38100   0.01267  Uiso   1.00
H25    H     0.03800   0.93930   0.59230   0.01267  Uiso   1.00
H26    H     0.15200   0.82440   0.59120   0.01267  Uiso   1.00
H27    H     0.17280   0.14250   0.83890   0.01267  Uiso   1.00
H28    H     0.35000   0.97950   0.82810   0.01267  Uiso   1.00
H29    H     0.49950   0.16650   0.17630   0.01267  Uiso   1.00
H30    H     0.31980   0.32460   0.17700   0.01267  Uiso   1.00
H31    H     0.24850   0.34480   0.73480   0.01267  Uiso   1.00
H32    H     0.30480   0.38630   0.64370   0.01267  Uiso   1.00
H33    H     0.55110   0.43170   0.76010   0.01267  Uiso   1.00
H34    H     0.50580   0.38100   0.84800   0.01267  Uiso   1.00
H35    H     0.46200   0.59230   0.93930   0.01267  Uiso   1.00
H36    H     0.34800   0.59120   0.82440   0.01267  Uiso   1.00
H37    H     0.32720   0.83890   0.14250   0.01267  Uiso   1.00
H38    H     0.15000   0.82810   0.97950   0.01267  Uiso   1.00
H39    H     0.00050   0.17630   0.16650   0.01267  Uiso   1.00
H40    H     0.18020   0.17700   0.32460   0.01267  Uiso   1.00
C1     C     0.90630   0.37731   0.78129   0.01267  Uiso   1.00
C2     C     0.84220   0.30242   0.65338   0.01267  Uiso   1.00
C3     C     0.96160   0.20331   0.57749   0.01267  Uiso   1.00
C4     C     0.88270   0.12569   0.45311   0.01267  Uiso   1.00
C5     C     0.74030   0.07104   0.46072   0.01267  Uiso   1.00
C6     C     0.76020   0.85255   0.09125   0.01267  Uiso   1.00
C7     C     0.65470   0.95057   0.09803   0.01267  Uiso   1.00
C8     C     0.55600   0.94776   0.99824   0.01267  Uiso   1.00
C9     C     0.56700   0.84140   0.89460   0.01267  Uiso   1.00
C10    C     0.67480   0.74730   0.89510   0.01267  Uiso   1.00
C11    C     0.59370   0.78129   0.37731   0.01267  Uiso   1.00
C12    C     0.65780   0.65338   0.30242   0.01267  Uiso   1.00
C13    C     0.53840   0.57749   0.20331   0.01267  Uiso   1.00
C14    C     0.61730   0.45311   0.12569   0.01267  Uiso   1.00
C15    C     0.75970   0.46072   0.07104   0.01267  Uiso   1.00
C16    C     0.73980   0.09125   0.85255   0.01267  Uiso   1.00
C17    C     0.84530   0.09803   0.95057   0.01267  Uiso   1.00
C18    C     0.94400   0.99824   0.94776   0.01267  Uiso   1.00
C19    C     0.93300   0.89460   0.84140   0.01267  Uiso   1.00
C20    C     0.82520   0.89510   0.74730   0.01267  Uiso   1.00
C21    C     0.09370   0.62269   0.21871   0.01267  Uiso   1.00
C22    C     0.15780   0.69758   0.34662   0.01267  Uiso   1.00
C23    C     0.03840   0.79669   0.42251   0.01267  Uiso   1.00
C24    C     0.11730   0.87431   0.54689   0.01267  Uiso   1.00
C25    C     0.25970   0.92896   0.53928   0.01267  Uiso   1.00
C26    C     0.23980   0.14745   0.90875   0.01267  Uiso   1.00
C27    C     0.34530   0.04943   0.90197   0.01267  Uiso   1.00
C28    C     0.44400   0.05224   0.00176   0.01267  Uiso   1.00
C29    C     0.43300   0.15860   0.10540   0.01267  Uiso   1.00
C30    C     0.32520   0.25270   0.10490   0.01267  Uiso   1.00
C31    C     0.40630   0.21871   0.62269   0.01267  Uiso   1.00
C32    C     0.34220   0.34662   0.69758   0.01267  Uiso   1.00
C33    C     0.46160   0.42251   0.79669   0.01267  Uiso   1.00
C34    C     0.38270   0.54689   0.87431   0.01267  Uiso   1.00
C35    C     0.24030   0.53928   0.92896   0.01267  Uiso   1.00
C36    C     0.26020   0.90875   0.14745   0.01267  Uiso   1.00
C37    C     0.15470   0.90197   0.04943   0.01267  Uiso   1.00
C38    C     0.05600   0.00176   0.05224   0.01267  Uiso   1.00
C39    C     0.06700   0.10540   0.15860   0.01267  Uiso   1.00
C40    C     0.17480   0.10490   0.25270   0.01267  Uiso   1.00
N1     N     0.77200   0.75138   0.99102   0.01267  Uiso   1.00
N2     N     0.72800   0.99102   0.75138   0.01267  Uiso   1.00
N3     N     0.22800   0.24862   0.00898   0.01267  Uiso   1.00
N4     N     0.27200   0.00898   0.24862   0.01267  Uiso   1.00
O1     O     0.86730   0.48885   0.82267   0.01267  Uiso   1.00
O2     O     0.98950   0.32432   0.83858   0.01267  Uiso   1.00
O3     O     0.74960   0.03826   0.54354   0.01267  Uiso   1.00
O4     O     0.62100   0.06268   0.38480   0.01267  Uiso   1.00
O5     O     0.63270   0.82267   0.48885   0.01267  Uiso   1.00
O6     O     0.51050   0.83858   0.32432   0.01267  Uiso   1.00
O7     O     0.75040   0.54354   0.03826   0.01267  Uiso   1.00
O8     O     0.87900   0.38480   0.06268   0.01267  Uiso   1.00
O9     O     0.13270   0.51115   0.17733   0.01267  Uiso   1.00
O10    O     0.01050   0.67568   0.16142   0.01267  Uiso   1.00
O11    O     0.25040   0.96174   0.45646   0.01267  Uiso   1.00
O12    O     0.37900   0.93732   0.61520   0.01267  Uiso   1.00
O13    O     0.36730   0.17733   0.51115   0.01267  Uiso   1.00
O14    O     0.48950   0.16142   0.67568   0.01267  Uiso   1.00
O15    O     0.24960   0.45646   0.96174   0.01267  Uiso   1.00
O16    O     0.12100   0.61520   0.93732   0.01267  Uiso   1.00
