data_MABJUV_clean
_audit_creation_date              2014-07-02
_audit_creation_method            'Materials Studio'
_symmetry_space_group_name_H-M    'P1'
_symmetry_Int_Tables_number       1
_symmetry_cell_setting            triclinic
loop_
_symmetry_equiv_pos_as_xyz
  x,y,z
_cell_length_a                    8.5699
_cell_length_b                    12.5347
_cell_length_c                    12.5347
_cell_angle_alpha                 116.7890
_cell_angle_beta                  99.3584
_cell_angle_gamma                 80.6416
loop_
_atom_site_label
_atom_site_type_symbol
_atom_site_fract_x
_atom_site_fract_y
_atom_site_fract_z
_atom_site_U_iso_or_equiv
_atom_site_adp_type
_atom_site_occupancy
Cu1    Cu    0.92432   0.59674   0.99238   0.01267  Uiso   1.00
Cu2    Cu    0.57568   0.99238   0.59674   0.01267  Uiso   1.00
Cu3    Cu    0.07568   0.40326   0.00762   0.01267  Uiso   1.00
Cu4    Cu    0.42432   0.00762   0.40326   0.01267  Uiso   1.00
H1     H     0.74780   0.26660   0.65500   0.01267  Uiso   1.00
H2     H     0.80490   0.35560   0.61320   0.01267  Uiso   1.00
H3     H     0.04760   0.23650   0.56730   0.01267  Uiso   1.00
H4     H     0.00300   0.15110   0.61950   0.01267  Uiso   1.00
H5     H     0.95880   0.05670   0.40790   0.01267  Uiso   1.00
H6     H     0.84390   0.17090   0.40790   0.01267  Uiso   1.00
H7     H     0.82360   0.85770   0.16310   0.01267  Uiso   1.00
H8     H     0.64790   0.02150   0.17270   0.01267  Uiso   1.00
H9     H     0.50440   0.83390   0.82390   0.01267  Uiso   1.00
H10    H     0.68250   0.67500   0.82500   0.01267  Uiso   1.00
H11    H     0.75220   0.65500   0.26660   0.01267  Uiso   1.00
H12    H     0.69510   0.61320   0.35560   0.01267  Uiso   1.00
H13    H     0.45240   0.56730   0.23650   0.01267  Uiso   1.00
H14    H     0.49700   0.61950   0.15110   0.01267  Uiso   1.00
H15    H     0.54120   0.40790   0.05670   0.01267  Uiso   1.00
H16    H     0.65610   0.40790   0.17090   0.01267  Uiso   1.00
H17    H     0.67640   0.16310   0.85770   0.01267  Uiso   1.00
H18    H     0.85210   0.17270   0.02150   0.01267  Uiso   1.00
H19    H     0.99560   0.82390   0.83390   0.01267  Uiso   1.00
H20    H     0.81750   0.82500   0.67500   0.01267  Uiso   1.00
H21    H     0.25220   0.73340   0.34500   0.01267  Uiso   1.00
H22    H     0.19510   0.64440   0.38680   0.01267  Uiso   1.00
H23    H     0.95240   0.76350   0.43270   0.01267  Uiso   1.00
H24    H     0.99700   0.84890   0.38050   0.01267  Uiso   1.00
H25    H     0.04120   0.94330   0.59210   0.01267  Uiso   1.00
H26    H     0.15610   0.82910   0.59210   0.01267  Uiso   1.00
H27    H     0.17640   0.14230   0.83690   0.01267  Uiso   1.00
H28    H     0.35210   0.97850   0.82730   0.01267  Uiso   1.00
H29    H     0.49560   0.16610   0.17610   0.01267  Uiso   1.00
H30    H     0.31750   0.32500   0.17500   0.01267  Uiso   1.00
H31    H     0.24780   0.34500   0.73340   0.01267  Uiso   1.00
H32    H     0.30490   0.38680   0.64440   0.01267  Uiso   1.00
H33    H     0.54760   0.43270   0.76350   0.01267  Uiso   1.00
H34    H     0.50300   0.38050   0.84890   0.01267  Uiso   1.00
H35    H     0.45880   0.59210   0.94330   0.01267  Uiso   1.00
H36    H     0.34390   0.59210   0.82910   0.01267  Uiso   1.00
H37    H     0.32360   0.83690   0.14230   0.01267  Uiso   1.00
H38    H     0.14790   0.82730   0.97850   0.01267  Uiso   1.00
H39    H     0.00440   0.17610   0.16610   0.01267  Uiso   1.00
H40    H     0.18250   0.17500   0.32500   0.01267  Uiso   1.00
C1     C     0.90590   0.37754   0.78046   0.01267  Uiso   1.00
C2     C     0.84170   0.30218   0.65302   0.01267  Uiso   1.00
C3     C     0.95860   0.20142   0.57718   0.01267  Uiso   1.00
C4     C     0.87960   0.12217   0.45303   0.01267  Uiso   1.00
C5     C     0.73860   0.06839   0.46121   0.01267  Uiso   1.00
C6     C     0.75810   0.85267   0.09253   0.01267  Uiso   1.00
C7     C     0.65310   0.95100   0.09880   0.01267  Uiso   1.00
C8     C     0.55600   0.94742   0.99858   0.01267  Uiso   1.00
C9     C     0.56900   0.84192   0.89568   0.01267  Uiso   1.00
C10    C     0.67670   0.74732   0.89708   0.01267  Uiso   1.00
C11    C     0.59410   0.78046   0.37754   0.01267  Uiso   1.00
C12    C     0.65830   0.65302   0.30218   0.01267  Uiso   1.00
C13    C     0.54140   0.57718   0.20142   0.01267  Uiso   1.00
C14    C     0.62040   0.45303   0.12217   0.01267  Uiso   1.00
C15    C     0.76140   0.46121   0.06839   0.01267  Uiso   1.00
C16    C     0.74190   0.09253   0.85267   0.01267  Uiso   1.00
C17    C     0.84690   0.09880   0.95100   0.01267  Uiso   1.00
C18    C     0.94400   0.99858   0.94742   0.01267  Uiso   1.00
C19    C     0.93100   0.89568   0.84192   0.01267  Uiso   1.00
C20    C     0.82330   0.89708   0.74732   0.01267  Uiso   1.00
C21    C     0.09410   0.62246   0.21954   0.01267  Uiso   1.00
C22    C     0.15830   0.69782   0.34698   0.01267  Uiso   1.00
C23    C     0.04140   0.79858   0.42282   0.01267  Uiso   1.00
C24    C     0.12040   0.87783   0.54697   0.01267  Uiso   1.00
C25    C     0.26140   0.93161   0.53879   0.01267  Uiso   1.00
C26    C     0.24190   0.14733   0.90747   0.01267  Uiso   1.00
C27    C     0.34690   0.04900   0.90120   0.01267  Uiso   1.00
C28    C     0.44400   0.05258   0.00142   0.01267  Uiso   1.00
C29    C     0.43100   0.15808   0.10432   0.01267  Uiso   1.00
C30    C     0.32330   0.25268   0.10292   0.01267  Uiso   1.00
C31    C     0.40590   0.21954   0.62246   0.01267  Uiso   1.00
C32    C     0.34170   0.34698   0.69782   0.01267  Uiso   1.00
C33    C     0.45860   0.42282   0.79858   0.01267  Uiso   1.00
C34    C     0.37960   0.54697   0.87783   0.01267  Uiso   1.00
C35    C     0.23860   0.53879   0.93161   0.01267  Uiso   1.00
C36    C     0.25810   0.90747   0.14733   0.01267  Uiso   1.00
C37    C     0.15310   0.90120   0.04900   0.01267  Uiso   1.00
C38    C     0.05600   0.00142   0.05258   0.01267  Uiso   1.00
C39    C     0.06900   0.10432   0.15808   0.01267  Uiso   1.00
C40    C     0.17670   0.10292   0.25268   0.01267  Uiso   1.00
N1     N     0.77170   0.75188   0.99272   0.01267  Uiso   1.00
N2     N     0.72830   0.99272   0.75188   0.01267  Uiso   1.00
N3     N     0.22830   0.24812   0.00728   0.01267  Uiso   1.00
N4     N     0.27170   0.00728   0.24812   0.01267  Uiso   1.00
O1     O     0.86540   0.48839   0.82307   0.01267  Uiso   1.00
O2     O     0.99090   0.32427   0.83695   0.01267  Uiso   1.00
O3     O     0.74880   0.03838   0.54504   0.01267  Uiso   1.00
O4     O     0.61990   0.05870   0.38474   0.01267  Uiso   1.00
O5     O     0.63460   0.82307   0.48839   0.01267  Uiso   1.00
O6     O     0.50910   0.83695   0.32427   0.01267  Uiso   1.00
O7     O     0.75120   0.54504   0.03838   0.01267  Uiso   1.00
O8     O     0.88010   0.38474   0.05870   0.01267  Uiso   1.00
O9     O     0.13460   0.51161   0.17693   0.01267  Uiso   1.00
O10    O     0.00910   0.67573   0.16305   0.01267  Uiso   1.00
O11    O     0.25120   0.96162   0.45496   0.01267  Uiso   1.00
O12    O     0.38010   0.94130   0.61526   0.01267  Uiso   1.00
O13    O     0.36540   0.17693   0.51161   0.01267  Uiso   1.00
O14    O     0.49090   0.16305   0.67573   0.01267  Uiso   1.00
O15    O     0.24880   0.45496   0.96162   0.01267  Uiso   1.00
O16    O     0.11990   0.61526   0.94130   0.01267  Uiso   1.00
