data_image0
_cell_length_a       23.911
_cell_length_b       11.8685
_cell_length_c       9.2063
_cell_angle_alpha    90
_cell_angle_beta     90.35
_cell_angle_gamma    90

_symmetry_space_group_name_H-M    "P 1"
_symmetry_int_tables_number       1

loop_
  _symmetry_equiv_pos_as_xyz
  'x, y, z'

loop_
  _atom_site_label
  _atom_site_occupancy
  _atom_site_fract_x
  _atom_site_fract_y
  _atom_site_fract_z
  _atom_site_thermal_displace_type
  _atom_site_B_iso_or_equiv
  _atom_site_type_symbol
  Cu1      1.0000 0.20499  0.22769  0.42146  Biso   1.000  Cu
  N1       1.0000 0.13981  0.16690  0.27590  Biso   1.000  N
  O1       1.0000 0.23488  0.07520  0.45430  Biso   1.000  O
  O2       1.0000 0.31199  0.11050  0.58470  Biso   1.000  O
  O3       1.0000 0.33586  0.72610  0.89240  Biso   1.000  O
  O4       1.0000 0.25811  0.75050  0.76130  Biso   1.000  O
  C1       1.0000 0.27874  0.04490  0.52060  Biso   1.000  C
  C2       1.0000 0.28970  0.92020  0.52470  Biso   1.000  C
  H1       1.0000 0.28930  0.89150  0.42380  Biso   1.000  H
  H2       1.0000 0.25850  0.88340  0.57670  Biso   1.000  H
  C3       1.0000 0.34443  0.88410  0.59650  Biso   1.000  C
  H3       1.0000 0.35090  0.93030  0.68450  Biso   1.000  H
  H4       1.0000 0.37560  0.89840  0.52880  Biso   1.000  H
  C4       1.0000 0.34438  0.75820  0.63930  Biso   1.000  C
  H5       1.0000 0.32840  0.71270  0.55900  Biso   1.000  H
  H6       1.0000 0.38320  0.73250  0.65710  Biso   1.000  H
  C5       1.0000 0.31021  0.74230  0.77400  Biso   1.000  C
  C6       1.0000 0.14393  0.06410  0.21760  Biso   1.000  C
  H7       1.0000 0.17390  0.01700  0.24790  Biso   1.000  H
  C7       1.0000 0.10673  0.02320  0.11570  Biso   1.000  C
  H8       1.0000 0.11190  0.95030  0.07550  Biso   1.000  H
  C8       1.0000 0.06149  0.08920  0.07180  Biso   1.000  C
  C9       1.0000 0.05680  0.19480  0.13240  Biso   1.000  C
  H9       1.0000 0.02670  0.24290  0.10540  Biso   1.000  H
  C10      1.0000 0.09615  0.23030  0.23300  Biso   1.000  C
  H10      1.0000 0.09210  0.30330  0.27390  Biso   1.000  H
  C11      1.0000 0.01901  0.04440  0.96490  Biso   1.000  C
  H11      1.0000 0.03860  0.01040  0.88130  Biso   1.000  H
  H12      1.0000 0.99580  0.10750  0.92810  Biso   1.000  H
  Cu2      1.0000 0.70499  0.72769  0.42146  Biso   1.000  Cu
  N2       1.0000 0.63981  0.66690  0.27590  Biso   1.000  N
  O5       1.0000 0.73488  0.57520  0.45430  Biso   1.000  O
  O6       1.0000 0.81199  0.61050  0.58470  Biso   1.000  O
  O7       1.0000 0.83586  0.22610  0.89240  Biso   1.000  O
  O8       1.0000 0.75811  0.25050  0.76130  Biso   1.000  O
  C12      1.0000 0.77874  0.54490  0.52060  Biso   1.000  C
  C13      1.0000 0.78970  0.42020  0.52470  Biso   1.000  C
  H13      1.0000 0.78930  0.39150  0.42380  Biso   1.000  H
  H14      1.0000 0.75850  0.38340  0.57670  Biso   1.000  H
  C14      1.0000 0.84443  0.38410  0.59650  Biso   1.000  C
  H15      1.0000 0.85090  0.43030  0.68450  Biso   1.000  H
  H16      1.0000 0.87560  0.39840  0.52880  Biso   1.000  H
  C15      1.0000 0.84438  0.25820  0.63930  Biso   1.000  C
  H17      1.0000 0.82840  0.21270  0.55900  Biso   1.000  H
  H18      1.0000 0.88320  0.23250  0.65710  Biso   1.000  H
  C16      1.0000 0.81021  0.24230  0.77400  Biso   1.000  C
  C17      1.0000 0.64393  0.56410  0.21760  Biso   1.000  C
  H19      1.0000 0.67390  0.51700  0.24790  Biso   1.000  H
  C18      1.0000 0.60673  0.52320  0.11570  Biso   1.000  C
  H20      1.0000 0.61190  0.45030  0.07550  Biso   1.000  H
  C19      1.0000 0.56149  0.58920  0.07180  Biso   1.000  C
  C20      1.0000 0.55680  0.69480  0.13240  Biso   1.000  C
  H21      1.0000 0.52670  0.74290  0.10540  Biso   1.000  H
  C21      1.0000 0.59615  0.73030  0.23300  Biso   1.000  C
  H22      1.0000 0.59210  0.80330  0.27390  Biso   1.000  H
  C22      1.0000 0.51901  0.54440  0.96490  Biso   1.000  C
  H23      1.0000 0.53860  0.51040  0.88130  Biso   1.000  H
  H24      1.0000 0.49580  0.60750  0.92810  Biso   1.000  H
  Cu3      1.0000 0.79501  0.22769  0.07854  Biso   1.000  Cu
  N3       1.0000 0.86019  0.16690  0.22410  Biso   1.000  N
  O9       1.0000 0.76512  0.07520  0.04570  Biso   1.000  O
  O10      1.0000 0.68801  0.11050  0.91530  Biso   1.000  O
  O11      1.0000 0.66414  0.72610  0.60760  Biso   1.000  O
  O12      1.0000 0.74189  0.75050  0.73870  Biso   1.000  O
  C23      1.0000 0.72126  0.04490  0.97940  Biso   1.000  C
  C24      1.0000 0.71030  0.92020  0.97530  Biso   1.000  C
  H25      1.0000 0.71070  0.89150  0.07620  Biso   1.000  H
  H26      1.0000 0.74150  0.88340  0.92330  Biso   1.000  H
  C25      1.0000 0.65557  0.88410  0.90350  Biso   1.000  C
  H27      1.0000 0.64910  0.93030  0.81550  Biso   1.000  H
  H28      1.0000 0.62440  0.89840  0.97120  Biso   1.000  H
  C26      1.0000 0.65562  0.75820  0.86070  Biso   1.000  C
  H29      1.0000 0.67160  0.71270  0.94100  Biso   1.000  H
  H30      1.0000 0.61680  0.73250  0.84290  Biso   1.000  H
  C27      1.0000 0.68979  0.74230  0.72600  Biso   1.000  C
  C28      1.0000 0.85607  0.06410  0.28240  Biso   1.000  C
  H31      1.0000 0.82610  0.01700  0.25210  Biso   1.000  H
  C29      1.0000 0.89327  0.02320  0.38430  Biso   1.000  C
  H32      1.0000 0.88810  0.95030  0.42450  Biso   1.000  H
  C30      1.0000 0.93851  0.08920  0.42820  Biso   1.000  C
  C31      1.0000 0.94320  0.19480  0.36760  Biso   1.000  C
  H33      1.0000 0.97330  0.24290  0.39460  Biso   1.000  H
  C32      1.0000 0.90385  0.23030  0.26700  Biso   1.000  C
  H34      1.0000 0.90790  0.30330  0.22610  Biso   1.000  H
  C33      1.0000 0.98099  0.04440  0.53510  Biso   1.000  C
  H35      1.0000 0.96140  0.01040  0.61870  Biso   1.000  H
  H36      1.0000 0.00420  0.10750  0.57190  Biso   1.000  H
  Cu4      1.0000 0.29501  0.72769  0.07854  Biso   1.000  Cu
  N4       1.0000 0.36019  0.66690  0.22410  Biso   1.000  N
  O13      1.0000 0.26512  0.57520  0.04570  Biso   1.000  O
  O14      1.0000 0.18801  0.61050  0.91530  Biso   1.000  O
  O15      1.0000 0.16414  0.22610  0.60760  Biso   1.000  O
  O16      1.0000 0.24189  0.25050  0.73870  Biso   1.000  O
  C34      1.0000 0.22126  0.54490  0.97940  Biso   1.000  C
  C35      1.0000 0.21030  0.42020  0.97530  Biso   1.000  C
  H37      1.0000 0.21070  0.39150  0.07620  Biso   1.000  H
  H38      1.0000 0.24150  0.38340  0.92330  Biso   1.000  H
  C36      1.0000 0.15557  0.38410  0.90350  Biso   1.000  C
  H39      1.0000 0.14910  0.43030  0.81550  Biso   1.000  H
  H40      1.0000 0.12440  0.39840  0.97120  Biso   1.000  H
  C37      1.0000 0.15562  0.25820  0.86070  Biso   1.000  C
  H41      1.0000 0.17160  0.21270  0.94100  Biso   1.000  H
  H42      1.0000 0.11680  0.23250  0.84290  Biso   1.000  H
  C38      1.0000 0.18979  0.24230  0.72600  Biso   1.000  C
  C39      1.0000 0.35607  0.56410  0.28240  Biso   1.000  C
  H43      1.0000 0.32610  0.51700  0.25210  Biso   1.000  H
  C40      1.0000 0.39327  0.52320  0.38430  Biso   1.000  C
  H44      1.0000 0.38810  0.45030  0.42450  Biso   1.000  H
  C41      1.0000 0.43851  0.58920  0.42820  Biso   1.000  C
  C42      1.0000 0.44320  0.69480  0.36760  Biso   1.000  C
  H45      1.0000 0.47330  0.74290  0.39460  Biso   1.000  H
  C43      1.0000 0.40385  0.73030  0.26700  Biso   1.000  C
  H46      1.0000 0.40790  0.80330  0.22610  Biso   1.000  H
  C44      1.0000 0.48099  0.54440  0.53510  Biso   1.000  C
  H47      1.0000 0.46140  0.51040  0.61870  Biso   1.000  H
  H48      1.0000 0.50420  0.60750  0.57190  Biso   1.000  H
  Cu5      1.0000 0.79501  0.77231  0.57854  Biso   1.000  Cu
  N5       1.0000 0.86019  0.83310  0.72410  Biso   1.000  N
  O17      1.0000 0.76512  0.92480  0.54570  Biso   1.000  O
  O18      1.0000 0.68801  0.88950  0.41530  Biso   1.000  O
  O19      1.0000 0.66414  0.27390  0.10760  Biso   1.000  O
  O20      1.0000 0.74189  0.24950  0.23870  Biso   1.000  O
  C45      1.0000 0.72126  0.95510  0.47940  Biso   1.000  C
  C46      1.0000 0.71030  0.07980  0.47530  Biso   1.000  C
  H49      1.0000 0.71070  0.10850  0.57620  Biso   1.000  H
  H50      1.0000 0.74150  0.11660  0.42330  Biso   1.000  H
  C47      1.0000 0.65557  0.11590  0.40350  Biso   1.000  C
  H51      1.0000 0.64910  0.06970  0.31550  Biso   1.000  H
  H52      1.0000 0.62440  0.10160  0.47120  Biso   1.000  H
  C48      1.0000 0.65562  0.24180  0.36070  Biso   1.000  C
  H53      1.0000 0.67160  0.28730  0.44100  Biso   1.000  H
  H54      1.0000 0.61680  0.26750  0.34290  Biso   1.000  H
  C49      1.0000 0.68979  0.25770  0.22600  Biso   1.000  C
  C50      1.0000 0.85607  0.93590  0.78240  Biso   1.000  C
  H55      1.0000 0.82610  0.98300  0.75210  Biso   1.000  H
  C51      1.0000 0.89327  0.97680  0.88430  Biso   1.000  C
  H56      1.0000 0.88810  0.04970  0.92450  Biso   1.000  H
  C52      1.0000 0.93851  0.91080  0.92820  Biso   1.000  C
  C53      1.0000 0.94320  0.80520  0.86760  Biso   1.000  C
  H57      1.0000 0.97330  0.75710  0.89460  Biso   1.000  H
  C54      1.0000 0.90385  0.76970  0.76700  Biso   1.000  C
  H58      1.0000 0.90790  0.69670  0.72610  Biso   1.000  H
  C55      1.0000 0.98099  0.95560  0.03510  Biso   1.000  C
  H59      1.0000 0.96140  0.98960  0.11870  Biso   1.000  H
  H60      1.0000 0.00420  0.89250  0.07190  Biso   1.000  H
  Cu6      1.0000 0.29501  0.27231  0.57854  Biso   1.000  Cu
  N6       1.0000 0.36019  0.33310  0.72410  Biso   1.000  N
  O21      1.0000 0.26512  0.42480  0.54570  Biso   1.000  O
  O22      1.0000 0.18801  0.38950  0.41530  Biso   1.000  O
  O23      1.0000 0.16414  0.77390  0.10760  Biso   1.000  O
  O24      1.0000 0.24189  0.74950  0.23870  Biso   1.000  O
  C56      1.0000 0.22126  0.45510  0.47940  Biso   1.000  C
  C57      1.0000 0.21030  0.57980  0.47530  Biso   1.000  C
  H61      1.0000 0.21070  0.60850  0.57620  Biso   1.000  H
  H62      1.0000 0.24150  0.61660  0.42330  Biso   1.000  H
  C58      1.0000 0.15557  0.61590  0.40350  Biso   1.000  C
  H63      1.0000 0.14910  0.56970  0.31550  Biso   1.000  H
  H64      1.0000 0.12440  0.60160  0.47120  Biso   1.000  H
  C59      1.0000 0.15562  0.74180  0.36070  Biso   1.000  C
  H65      1.0000 0.17160  0.78730  0.44100  Biso   1.000  H
  H66      1.0000 0.11680  0.76750  0.34290  Biso   1.000  H
  C60      1.0000 0.18979  0.75770  0.22600  Biso   1.000  C
  C61      1.0000 0.35607  0.43590  0.78240  Biso   1.000  C
  H67      1.0000 0.32610  0.48300  0.75210  Biso   1.000  H
  C62      1.0000 0.39327  0.47680  0.88430  Biso   1.000  C
  H68      1.0000 0.38810  0.54970  0.92450  Biso   1.000  H
  C63      1.0000 0.43851  0.41080  0.92820  Biso   1.000  C
  C64      1.0000 0.44320  0.30520  0.86760  Biso   1.000  C
  H69      1.0000 0.47330  0.25710  0.89460  Biso   1.000  H
  C65      1.0000 0.40385  0.26970  0.76700  Biso   1.000  C
  H70      1.0000 0.40790  0.19670  0.72610  Biso   1.000  H
  C66      1.0000 0.48099  0.45560  0.03510  Biso   1.000  C
  H71      1.0000 0.46140  0.48960  0.11870  Biso   1.000  H
  H72      1.0000 0.50420  0.39250  0.07190  Biso   1.000  H
  Cu7      1.0000 0.20499  0.77231  0.92146  Biso   1.000  Cu
  N7       1.0000 0.13981  0.83310  0.77590  Biso   1.000  N
  O25      1.0000 0.23488  0.92480  0.95430  Biso   1.000  O
  O26      1.0000 0.31199  0.88950  0.08470  Biso   1.000  O
  O27      1.0000 0.33586  0.27390  0.39240  Biso   1.000  O
  O28      1.0000 0.25811  0.24950  0.26130  Biso   1.000  O
  C67      1.0000 0.27874  0.95510  0.02060  Biso   1.000  C
  C68      1.0000 0.28970  0.07980  0.02470  Biso   1.000  C
  H73      1.0000 0.28930  0.10850  0.92380  Biso   1.000  H
  H74      1.0000 0.25850  0.11660  0.07670  Biso   1.000  H
  C69      1.0000 0.34443  0.11590  0.09650  Biso   1.000  C
  H75      1.0000 0.35090  0.06970  0.18450  Biso   1.000  H
  H76      1.0000 0.37560  0.10160  0.02880  Biso   1.000  H
  C70      1.0000 0.34438  0.24180  0.13930  Biso   1.000  C
  H77      1.0000 0.32840  0.28730  0.05900  Biso   1.000  H
  H78      1.0000 0.38320  0.26750  0.15710  Biso   1.000  H
  C71      1.0000 0.31021  0.25770  0.27400  Biso   1.000  C
  C72      1.0000 0.14393  0.93590  0.71760  Biso   1.000  C
  H79      1.0000 0.17390  0.98300  0.74790  Biso   1.000  H
  C73      1.0000 0.10673  0.97680  0.61570  Biso   1.000  C
  H80      1.0000 0.11190  0.04970  0.57550  Biso   1.000  H
  C74      1.0000 0.06149  0.91080  0.57180  Biso   1.000  C
  C75      1.0000 0.05680  0.80520  0.63240  Biso   1.000  C
  H81      1.0000 0.02670  0.75710  0.60540  Biso   1.000  H
  C76      1.0000 0.09615  0.76970  0.73300  Biso   1.000  C
  H82      1.0000 0.09210  0.69670  0.77390  Biso   1.000  H
  C77      1.0000 0.01901  0.95560  0.46490  Biso   1.000  C
  H83      1.0000 0.03860  0.98960  0.38130  Biso   1.000  H
  H84      1.0000 0.99580  0.89250  0.42810  Biso   1.000  H
  Cu8      1.0000 0.70499  0.27231  0.92146  Biso   1.000  Cu
  N8       1.0000 0.63981  0.33310  0.77590  Biso   1.000  N
  O29      1.0000 0.73488  0.42480  0.95430  Biso   1.000  O
  O30      1.0000 0.81199  0.38950  0.08470  Biso   1.000  O
  O31      1.0000 0.83586  0.77390  0.39240  Biso   1.000  O
  O32      1.0000 0.75811  0.74950  0.26130  Biso   1.000  O
  C78      1.0000 0.77874  0.45510  0.02060  Biso   1.000  C
  C79      1.0000 0.78970  0.57980  0.02470  Biso   1.000  C
  H85      1.0000 0.78930  0.60850  0.92380  Biso   1.000  H
  H86      1.0000 0.75850  0.61660  0.07670  Biso   1.000  H
  C80      1.0000 0.84443  0.61590  0.09650  Biso   1.000  C
  H87      1.0000 0.85090  0.56970  0.18450  Biso   1.000  H
  H88      1.0000 0.87560  0.60160  0.02880  Biso   1.000  H
  C81      1.0000 0.84438  0.74180  0.13930  Biso   1.000  C
  H89      1.0000 0.82840  0.78730  0.05900  Biso   1.000  H
  H90      1.0000 0.88320  0.76750  0.15710  Biso   1.000  H
  C82      1.0000 0.81021  0.75770  0.27400  Biso   1.000  C
  C83      1.0000 0.64393  0.43590  0.71760  Biso   1.000  C
  H91      1.0000 0.67390  0.48300  0.74790  Biso   1.000  H
  C84      1.0000 0.60673  0.47680  0.61570  Biso   1.000  C
  H92      1.0000 0.61190  0.54970  0.57550  Biso   1.000  H
  C85      1.0000 0.56149  0.41080  0.57180  Biso   1.000  C
  C86      1.0000 0.55680  0.30520  0.63240  Biso   1.000  C
  H93      1.0000 0.52670  0.25710  0.60540  Biso   1.000  H
  C87      1.0000 0.59615  0.26970  0.73300  Biso   1.000  C
  H94      1.0000 0.59210  0.19670  0.77390  Biso   1.000  H
  C88      1.0000 0.51901  0.45560  0.46490  Biso   1.000  C
  H95      1.0000 0.53860  0.48960  0.38130  Biso   1.000  H
  H96      1.0000 0.49580  0.39250  0.42810  Biso   1.000  H
