data_MABKIK01_clean
_audit_creation_date              2014-07-02
_audit_creation_method            'Materials Studio'
_symmetry_space_group_name_H-M    'P1'
_symmetry_Int_Tables_number       1
_symmetry_cell_setting            triclinic
loop_
_symmetry_equiv_pos_as_xyz
  x,y,z
_cell_length_a                    8.6313
_cell_length_b                    13.0527
_cell_length_c                    13.7646
_cell_angle_alpha                 118.3030
_cell_angle_beta                  91.2969
_cell_angle_gamma                 90.0000
loop_
_atom_site_label
_atom_site_type_symbol
_atom_site_fract_x
_atom_site_fract_y
_atom_site_fract_z
_atom_site_U_iso_or_equiv
_atom_site_adp_type
_atom_site_occupancy
Cu1    Cu    0.55394   0.99905   0.58950   0.01267  Uiso   1.00
Cu2    Cu    0.94606   0.40955   0.41050   0.01267  Uiso   1.00
Cu3    Cu    0.44606   0.00095   0.41050   0.01267  Uiso   1.00
Cu4    Cu    0.05394   0.59045   0.58950   0.01267  Uiso   1.00
H1     H     0.27530   0.65700   0.39460   0.01267  Uiso   1.00
H2     H     0.37100   0.62710   0.28660   0.01267  Uiso   1.00
H3     H     0.58540   0.57260   0.35680   0.01267  Uiso   1.00
H4     H     0.50470   0.61610   0.47340   0.01267  Uiso   1.00
H5     H     0.48350   0.41040   0.36740   0.01267  Uiso   1.00
H6     H     0.39520   0.42310   0.27020   0.01267  Uiso   1.00
H7     H     0.71790   0.82920   0.65140   0.01267  Uiso   1.00
H8     H     0.90740   0.82570   0.77200   0.01267  Uiso   1.00
H9     H     0.90000   0.17600   0.93600   0.01267  Uiso   1.00
H10    H     0.71210   0.17070   0.81160   0.01267  Uiso   1.00
H11    H     0.10810   0.93300   0.91620   0.01267  Uiso   1.00
H12    H     0.10640   0.07240   0.98060   0.01267  Uiso   1.00
H13    H     0.22470   0.26240   0.60540   0.01267  Uiso   1.00
H14    H     0.12900   0.34050   0.71340   0.01267  Uiso   1.00
H15    H     0.91460   0.21580   0.64320   0.01267  Uiso   1.00
H16    H     0.99530   0.14270   0.52660   0.01267  Uiso   1.00
H17    H     0.01650   0.04300   0.63260   0.01267  Uiso   1.00
H18    H     0.10480   0.15290   0.72980   0.01267  Uiso   1.00
H19    H     0.78210   0.17780   0.34860   0.01267  Uiso   1.00
H20    H     0.59260   0.05370   0.22800   0.01267  Uiso   1.00
H21    H     0.60000   0.24000   0.06400   0.01267  Uiso   1.00
H22    H     0.78790   0.35910   0.18840   0.01267  Uiso   1.00
H23    H     0.39190   0.01680   0.08380   0.01267  Uiso   1.00
H24    H     0.39360   0.09180   0.01940   0.01267  Uiso   1.00
H25    H     0.72470   0.34300   0.60540   0.01267  Uiso   1.00
H26    H     0.62900   0.37290   0.71340   0.01267  Uiso   1.00
H27    H     0.41460   0.42740   0.64320   0.01267  Uiso   1.00
H28    H     0.49530   0.38390   0.52660   0.01267  Uiso   1.00
H29    H     0.51650   0.58960   0.63260   0.01267  Uiso   1.00
H30    H     0.60480   0.57690   0.72980   0.01267  Uiso   1.00
H31    H     0.28210   0.17080   0.34860   0.01267  Uiso   1.00
H32    H     0.09260   0.17430   0.22800   0.01267  Uiso   1.00
H33    H     0.10000   0.82400   0.06400   0.01267  Uiso   1.00
H34    H     0.28790   0.82930   0.18840   0.01267  Uiso   1.00
H35    H     0.89190   0.06700   0.08380   0.01267  Uiso   1.00
H36    H     0.89360   0.92760   0.01940   0.01267  Uiso   1.00
H37    H     0.77530   0.73760   0.39460   0.01267  Uiso   1.00
H38    H     0.87100   0.65950   0.28660   0.01267  Uiso   1.00
H39    H     0.08540   0.78420   0.35680   0.01267  Uiso   1.00
H40    H     0.00470   0.85730   0.47340   0.01267  Uiso   1.00
H41    H     0.98350   0.95700   0.36740   0.01267  Uiso   1.00
H42    H     0.89520   0.84710   0.27020   0.01267  Uiso   1.00
H43    H     0.21790   0.82220   0.65140   0.01267  Uiso   1.00
H44    H     0.40740   0.94630   0.77200   0.01267  Uiso   1.00
H45    H     0.40000   0.76000   0.93600   0.01267  Uiso   1.00
H46    H     0.21210   0.64090   0.81160   0.01267  Uiso   1.00
H47    H     0.60810   0.98320   0.91620   0.01267  Uiso   1.00
H48    H     0.60640   0.90820   0.98060   0.01267  Uiso   1.00
C1     C     0.43260   0.78462   0.41764   0.01267  Uiso   1.00
C2     C     0.38000   0.65918   0.36776   0.01267  Uiso   1.00
C3     C     0.48470   0.58034   0.39268   0.01267  Uiso   1.00
C4     C     0.41130   0.45966   0.35132   0.01267  Uiso   1.00
C5     C     0.25740   0.46383   0.40406   0.01267  Uiso   1.00
C6     C     0.75480   0.90070   0.71040   0.01267  Uiso   1.00
C7     C     0.86820   0.89799   0.78218   0.01267  Uiso   1.00
C8     C     0.92380   0.00118   0.86856   0.01267  Uiso   1.00
C9     C     0.86400   0.10324   0.87828   0.01267  Uiso   1.00
C10    C     0.75160   0.09931   0.80382   0.01267  Uiso   1.00
C11    C     0.04040   0.00152   0.95224   0.01267  Uiso   1.00
C12    C     0.06740   0.36698   0.58236   0.01267  Uiso   1.00
C13    C     0.12000   0.29142   0.63224   0.01267  Uiso   1.00
C14    C     0.01530   0.18766   0.60732   0.01267  Uiso   1.00
C15    C     0.08870   0.10834   0.64868   0.01267  Uiso   1.00
C16    C     0.24260   0.05977   0.59594   0.01267  Uiso   1.00
C17    C     0.74520   0.19030   0.28960   0.01267  Uiso   1.00
C18    C     0.63180   0.11581   0.21782   0.01267  Uiso   1.00
C19    C     0.57620   0.13262   0.13144   0.01267  Uiso   1.00
C20    C     0.63600   0.22496   0.12172   0.01267  Uiso   1.00
C21    C     0.74840   0.29549   0.19618   0.01267  Uiso   1.00
C22    C     0.45960   0.04928   0.04776   0.01267  Uiso   1.00
C23    C     0.56740   0.21538   0.58236   0.01267  Uiso   1.00
C24    C     0.62000   0.34082   0.63224   0.01267  Uiso   1.00
C25    C     0.51530   0.41966   0.60732   0.01267  Uiso   1.00
C26    C     0.58870   0.54034   0.64868   0.01267  Uiso   1.00
C27    C     0.74260   0.53617   0.59594   0.01267  Uiso   1.00
C28    C     0.24520   0.09930   0.28960   0.01267  Uiso   1.00
C29    C     0.13180   0.10201   0.21782   0.01267  Uiso   1.00
C30    C     0.07620   0.99882   0.13144   0.01267  Uiso   1.00
C31    C     0.13600   0.89676   0.12172   0.01267  Uiso   1.00
C32    C     0.24840   0.90069   0.19618   0.01267  Uiso   1.00
C33    C     0.95960   0.99848   0.04776   0.01267  Uiso   1.00
C34    C     0.93260   0.63302   0.41764   0.01267  Uiso   1.00
C35    C     0.88000   0.70858   0.36776   0.01267  Uiso   1.00
C36    C     0.98470   0.81234   0.39268   0.01267  Uiso   1.00
C37    C     0.91130   0.89166   0.35132   0.01267  Uiso   1.00
C38    C     0.75740   0.94023   0.40406   0.01267  Uiso   1.00
C39    C     0.25480   0.80970   0.71040   0.01267  Uiso   1.00
C40    C     0.36820   0.88419   0.78218   0.01267  Uiso   1.00
C41    C     0.42380   0.86738   0.86856   0.01267  Uiso   1.00
C42    C     0.36400   0.77504   0.87828   0.01267  Uiso   1.00
C43    C     0.25160   0.70451   0.80382   0.01267  Uiso   1.00
C44    C     0.54040   0.95072   0.95224   0.01267  Uiso   1.00
N1     N     0.69550   0.99986   0.72098   0.01267  Uiso   1.00
N2     N     0.80450   0.27888   0.27902   0.01267  Uiso   1.00
N3     N     0.30450   0.00014   0.27902   0.01267  Uiso   1.00
N4     N     0.19550   0.72112   0.72098   0.01267  Uiso   1.00
O1     O     0.49270   0.83308   0.51336   0.01267  Uiso   1.00
O2     O     0.40840   0.83471   0.36028   0.01267  Uiso   1.00
O3     O     0.15360   0.39001   0.34678   0.01267  Uiso   1.00
O4     O     0.24290   0.54084   0.50090   0.01267  Uiso   1.00
O5     O     0.00730   0.31972   0.48664   0.01267  Uiso   1.00
O6     O     0.09160   0.47443   0.63972   0.01267  Uiso   1.00
O7     O     0.34640   0.04323   0.65322   0.01267  Uiso   1.00
O8     O     0.25710   0.03994   0.49910   0.01267  Uiso   1.00
O9     O     0.50730   0.16692   0.48664   0.01267  Uiso   1.00
O10    O     0.59160   0.16529   0.63972   0.01267  Uiso   1.00
O11    O     0.84640   0.60999   0.65322   0.01267  Uiso   1.00
O12    O     0.75710   0.45916   0.49910   0.01267  Uiso   1.00
O13    O     0.99270   0.68028   0.51336   0.01267  Uiso   1.00
O14    O     0.90840   0.52557   0.36028   0.01267  Uiso   1.00
O15    O     0.65360   0.95677   0.34678   0.01267  Uiso   1.00
O16    O     0.74290   0.96006   0.50090   0.01267  Uiso   1.00
