data_MACKAE_clean
_audit_creation_date              2014-07-02
_audit_creation_method            'Materials Studio'
_symmetry_space_group_name_H-M    'P1'
_symmetry_Int_Tables_number       1
_symmetry_cell_setting            triclinic
loop_
_symmetry_equiv_pos_as_xyz
  x,y,z
_cell_length_a                    14.4537
_cell_length_b                    14.4537
_cell_length_c                    14.4537
_cell_angle_alpha                 109.4710
_cell_angle_beta                  109.4710
_cell_angle_gamma                 109.4710
loop_
_atom_site_label
_atom_site_type_symbol
_atom_site_fract_x
_atom_site_fract_y
_atom_site_fract_z
_atom_site_U_iso_or_equiv
_atom_site_adp_type
_atom_site_occupancy
U1     U     0.61556   0.99042   0.15461   0.01267  Uiso   1.00
U2     U     0.83581   0.46095   0.84539   0.01267  Uiso   1.00
U3     U     0.16419   0.00958   0.62514   0.01267  Uiso   1.00
U4     U     0.38444   0.53905   0.37486   0.01267  Uiso   1.00
U5     U     0.62514   0.16419   0.00958   0.01267  Uiso   1.00
U6     U     0.37486   0.38444   0.53905   0.01267  Uiso   1.00
U7     U     0.15461   0.61556   0.99042   0.01267  Uiso   1.00
U8     U     0.84539   0.83581   0.46095   0.01267  Uiso   1.00
U9     U     0.46095   0.84539   0.83581   0.01267  Uiso   1.00
U10    U     0.99042   0.15461   0.61556   0.01267  Uiso   1.00
U11    U     0.53905   0.37486   0.38444   0.01267  Uiso   1.00
U12    U     0.00958   0.62514   0.16419   0.01267  Uiso   1.00
C1     C     0.72810   0.16820   0.43670   0.01267  Uiso   1.00
C2     C     0.79110   0.22730   0.56000   0.01267  Uiso   1.00
C3     C     0.73150   0.29140   0.56330   0.01267  Uiso   1.00
C4     C     0.66730   0.23110   0.44000   0.01267  Uiso   1.00
C5     C     0.26850   0.83180   0.55990   0.01267  Uiso   1.00
C6     C     0.33270   0.77270   0.56380   0.01267  Uiso   1.00
C7     C     0.27190   0.70860   0.44010   0.01267  Uiso   1.00
C8     C     0.20890   0.76890   0.43620   0.01267  Uiso   1.00
C9     C     0.55990   0.26850   0.83180   0.01267  Uiso   1.00
C10    C     0.56380   0.33270   0.77270   0.01267  Uiso   1.00
C11    C     0.44010   0.27190   0.70860   0.01267  Uiso   1.00
C12    C     0.43620   0.20890   0.76890   0.01267  Uiso   1.00
C13    C     0.43670   0.72810   0.16820   0.01267  Uiso   1.00
C14    C     0.56000   0.79110   0.22730   0.01267  Uiso   1.00
C15    C     0.56330   0.73150   0.29140   0.01267  Uiso   1.00
C16    C     0.44000   0.66730   0.23110   0.01267  Uiso   1.00
C17    C     0.29140   0.56330   0.73150   0.01267  Uiso   1.00
C18    C     0.23110   0.44000   0.66730   0.01267  Uiso   1.00
C19    C     0.16820   0.43670   0.72810   0.01267  Uiso   1.00
C20    C     0.22730   0.56000   0.79110   0.01267  Uiso   1.00
C21    C     0.70860   0.44010   0.27190   0.01267  Uiso   1.00
C22    C     0.76890   0.43620   0.20890   0.01267  Uiso   1.00
C23    C     0.83180   0.55990   0.26850   0.01267  Uiso   1.00
C24    C     0.77270   0.56380   0.33270   0.01267  Uiso   1.00
O1     O     0.49030   0.80180   0.98590   0.01267  Uiso   1.00
O2     O     0.86600   0.22790   0.63470   0.01267  Uiso   1.00
O3     O     0.73040   0.09540   0.36040   0.01267  Uiso   1.00
O4     O     0.81590   0.50440   0.01410   0.01267  Uiso   1.00
O5     O     0.59320   0.23130   0.36530   0.01267  Uiso   1.00
O6     O     0.73500   0.37000   0.63960   0.01267  Uiso   1.00
O7     O     0.18410   0.19820   0.68850   0.01267  Uiso   1.00
O8     O     0.40680   0.77210   0.63810   0.01267  Uiso   1.00
O9     O     0.26500   0.90460   0.63500   0.01267  Uiso   1.00
O10    O     0.50970   0.49560   0.31150   0.01267  Uiso   1.00
O11    O     0.13400   0.76870   0.36190   0.01267  Uiso   1.00
O12    O     0.26960   0.63000   0.36500   0.01267  Uiso   1.00
O13    O     0.68850   0.18410   0.19820   0.01267  Uiso   1.00
O14    O     0.63810   0.40680   0.77210   0.01267  Uiso   1.00
O15    O     0.63500   0.26500   0.90460   0.01267  Uiso   1.00
O16    O     0.31150   0.50970   0.49560   0.01267  Uiso   1.00
O17    O     0.36190   0.13400   0.76870   0.01267  Uiso   1.00
O18    O     0.36500   0.26960   0.63000   0.01267  Uiso   1.00
O19    O     0.98590   0.49030   0.80180   0.01267  Uiso   1.00
O20    O     0.63470   0.86600   0.22790   0.01267  Uiso   1.00
O21    O     0.36040   0.73040   0.09540   0.01267  Uiso   1.00
O22    O     0.01410   0.81590   0.50440   0.01267  Uiso   1.00
O23    O     0.36530   0.59320   0.23130   0.01267  Uiso   1.00
O24    O     0.63960   0.73500   0.37000   0.01267  Uiso   1.00
O25    O     0.50440   0.01410   0.81590   0.01267  Uiso   1.00
O26    O     0.23130   0.36530   0.59320   0.01267  Uiso   1.00
O27    O     0.37000   0.63960   0.73500   0.01267  Uiso   1.00
O28    O     0.80180   0.98590   0.49030   0.01267  Uiso   1.00
O29    O     0.22790   0.63470   0.86600   0.01267  Uiso   1.00
O30    O     0.09540   0.36040   0.73040   0.01267  Uiso   1.00
O31    O     0.49560   0.31150   0.50970   0.01267  Uiso   1.00
O32    O     0.76870   0.36190   0.13400   0.01267  Uiso   1.00
O33    O     0.63000   0.36500   0.26960   0.01267  Uiso   1.00
O34    O     0.19820   0.68850   0.18410   0.01267  Uiso   1.00
O35    O     0.77210   0.63810   0.40680   0.01267  Uiso   1.00
O36    O     0.90460   0.63500   0.26500   0.01267  Uiso   1.00
O37    O     0.54080   1.00000   1.00000   0.01267  Uiso   1.00
O38    O     0.00000   0.54080   0.00000   0.01267  Uiso   1.00
O39    O     0.00000   0.00000   0.54080   0.01267  Uiso   1.00
O40    O     0.45920   0.45920   0.45920   0.01267  Uiso   1.00
