data_image0
_cell_length_a       9.1768
_cell_length_b       10.9017
_cell_length_c       11.3961
_cell_angle_alpha    117.938
_cell_angle_beta     100.535
_cell_angle_gamma    98.517

_symmetry_space_group_name_H-M    "P 1"
_symmetry_int_tables_number       1

loop_
  _symmetry_equiv_pos_as_xyz
  'x, y, z'

loop_
  _atom_site_label
  _atom_site_occupancy
  _atom_site_fract_x
  _atom_site_fract_y
  _atom_site_fract_z
  _atom_site_thermal_displace_type
  _atom_site_B_iso_or_equiv
  _atom_site_type_symbol
  Zn1      1.0000 0.30986  0.37463  0.37705  Biso   1.000  Zn
  O1       1.0000 0.20340  0.39050  0.22520  Biso   1.000  O
  O2       1.0000 0.24150  0.21370  0.40360  Biso   1.000  O
  O3       1.0000 0.03980  0.50640  0.32690  Biso   1.000  O
  O4       1.0000 0.03160  0.29100  0.42240  Biso   1.000  O
  N1       1.0000 0.34730  0.55550  0.56040  Biso   1.000  N
  C1       1.0000 0.93330  0.54910  0.10840  Biso   1.000  C
  H1       1.0000 0.88840  0.58150  0.18050  Biso   1.000  H
  N2       1.0000 0.23220  0.59670  0.61250  Biso   1.000  N
  N3       1.0000 0.48240  0.64070  0.65530  Biso   1.000  N
  C2       1.0000 0.13080  0.99810  0.45640  Biso   1.000  C
  H2       1.0000 0.21970  0.99760  0.42820  Biso   1.000  H
  C3       1.0000 0.11200  0.20950  0.42790  Biso   1.000  C
  C4       1.0000 0.92300  0.10370  0.50990  Biso   1.000  C
  H3       1.0000 0.87200  0.17360  0.51780  Biso   1.000  H
  C5       1.0000 0.11380  0.42940  0.00140  Biso   1.000  C
  H4       1.0000 0.18970  0.38160  0.00210  Biso   1.000  H
  C6       1.0000 0.29550  0.71000  0.74140  Biso   1.000  C
  H5       1.0000 0.24250  0.76070  0.80220  Biso   1.000  H
  C7       1.0000 0.05350  0.10040  0.46440  Biso   1.000  C
  C8       1.0000 0.09830  0.45690  0.23060  Biso   1.000  C
  C9       1.0000 0.04870  0.47840  0.11100  Biso   1.000  C
  C10      1.0000 0.45130  0.73770  0.76740  Biso   1.000  C
  H6       1.0000 0.52350  0.81120  0.84900  Biso   1.000  H
  Zn2      1.0000 0.69014  0.62537  0.62295  Biso   1.000  Zn
  O5       1.0000 0.79660  0.60950  0.77480  Biso   1.000  O
  O6       1.0000 0.75850  0.78630  0.59640  Biso   1.000  O
  O7       1.0000 0.96020  0.49360  0.67310  Biso   1.000  O
  O8       1.0000 0.96840  0.70900  0.57760  Biso   1.000  O
  N4       1.0000 0.65270  0.44450  0.43960  Biso   1.000  N
  C11      1.0000 0.06670  0.45090  0.89160  Biso   1.000  C
  H7       1.0000 0.11160  0.41850  0.81950  Biso   1.000  H
  N5       1.0000 0.76780  0.40330  0.38750  Biso   1.000  N
  N6       1.0000 0.51760  0.35930  0.34470  Biso   1.000  N
  C12      1.0000 0.86920  0.00190  0.54360  Biso   1.000  C
  H8       1.0000 0.78030  0.00240  0.57180  Biso   1.000  H
  C13      1.0000 0.88800  0.79050  0.57210  Biso   1.000  C
  C14      1.0000 0.07700  0.89630  0.49010  Biso   1.000  C
  H9       1.0000 0.12800  0.82640  0.48220  Biso   1.000  H
  C15      1.0000 0.88620  0.57060  0.99860  Biso   1.000  C
  H10      1.0000 0.81030  0.61840  0.99790  Biso   1.000  H
  C16      1.0000 0.70450  0.29000  0.25860  Biso   1.000  C
  H11      1.0000 0.75750  0.23930  0.19780  Biso   1.000  H
  C17      1.0000 0.94650  0.89960  0.53560  Biso   1.000  C
  C18      1.0000 0.90170  0.54310  0.76940  Biso   1.000  C
  C19      1.0000 0.95130  0.52160  0.88900  Biso   1.000  C
  C20      1.0000 0.54870  0.26230  0.23260  Biso   1.000  C
  H12      1.0000 0.47650  0.18880  0.15100  Biso   1.000  H
  Zn3      1.0000 0.00000  0.50000  0.50000  Biso   1.000  Zn
