data_image0
_cell_length_a       8.076
_cell_length_b       12.545
_cell_length_c       15.713
_cell_angle_alpha    71.896
_cell_angle_beta     82.14
_cell_angle_gamma    75.62

_symmetry_space_group_name_H-M    "P 1"
_symmetry_int_tables_number       1

loop_
  _symmetry_equiv_pos_as_xyz
  'x, y, z'

loop_
  _atom_site_label
  _atom_site_occupancy
  _atom_site_fract_x
  _atom_site_fract_y
  _atom_site_fract_z
  _atom_site_thermal_displace_type
  _atom_site_B_iso_or_equiv
  _atom_site_type_symbol
  Nd1      1.0000 0.02523  0.17911  0.86469  Biso   1.000  Nd
  Nd2      1.0000 0.64533  0.37214  0.61446  Biso   1.000  Nd
  O1       1.0000 0.55010  0.44990  0.74610  Biso   1.000  O
  O2       1.0000 0.52590  0.57720  0.54130  Biso   1.000  O
  O3       1.0000 0.33440  0.39130  0.64210  Biso   1.000  O
  O4       1.0000 0.55490  0.21080  0.73520  Biso   1.000  O
  O5       1.0000 0.09910  0.10720  0.72970  Biso   1.000  O
  O6       1.0000 0.11840  0.33290  0.73580  Biso   1.000  O
  O7       1.0000 0.78310  0.32900  0.80210  Biso   1.000  O
  C1       1.0000 0.29500  0.84970  0.85400  Biso   1.000  C
  H1       1.0000 0.22570  0.88980  0.80300  Biso   1.000  H
  H2       1.0000 0.40000  0.87790  0.84230  Biso   1.000  H
  N1       1.0000 0.16900  0.26390  0.99120  Biso   1.000  N
  O8       1.0000 0.59650  0.24280  0.52410  Biso   1.000  O
  O9       1.0000 0.14260  0.98230  0.92960  Biso   1.000  O
  O10      1.0000 0.81820  0.20430  0.99360  Biso   1.000  O
  O11      1.0000 0.89270  0.22240  0.64170  Biso   1.000  O
  N2       1.0000 0.33850  0.72420  0.86290  Biso   1.000  N
  N3       1.0000 0.40600  0.82910  0.62440  Biso   1.000  N
  O12      1.0000 0.34370  0.15530  0.83180  Biso   1.000  O
  C2       1.0000 0.53520  0.32060  0.45770  Biso   1.000  C
  N4       1.0000 0.48190  0.55200  0.87980  Biso   1.000  N
  O13      1.0000 0.17390  0.15900  0.00690  Biso   1.000  O
  C3       1.0000 0.02640  0.14470  0.65850  Biso   1.000  C
  C4       1.0000 0.19810  0.87720  0.93790  Biso   1.000  C
  N5       1.0000 0.25400  0.00280  0.60080  Biso   1.000  N
  O14      1.0000 0.09400  0.33680  0.92020  Biso   1.000  O
  C5       1.0000 0.40040  0.21960  0.76330  Biso   1.000  C
  C6       1.0000 0.65340  0.40790  0.80460  Biso   1.000  C
  C7       1.0000 0.50800  0.90000  0.62410  Biso   1.000  C
  H3       1.0000 0.62530  0.87840  0.63100  Biso   1.000  H
  C8       1.0000 0.49350  0.65920  0.86780  Biso   1.000  C
  H4       1.0000 0.59440  0.68410  0.86350  Biso   1.000  H
  C9       1.0000 0.10300  0.10060  0.58110  Biso   1.000  C
  H5       1.0000 0.13680  0.16320  0.53320  Biso   1.000  H
  H6       1.0000 0.01570  0.07650  0.55940  Biso   1.000  H
  C10      1.0000 0.27180  0.32410  0.70910  Biso   1.000  C
  O15      1.0000 0.22600  0.30430  0.03850  Biso   1.000  O
  C11      1.0000 0.53900  0.29460  0.36870  Biso   1.000  C
  H7       1.0000 0.42540  0.32330  0.34620  Biso   1.000  H
  H8       1.0000 0.61620  0.33550  0.32550  Biso   1.000  H
  C12      1.0000 0.22400  0.65700  0.86900  Biso   1.000  C
  H9       1.0000 0.10640  0.68200  0.86570  Biso   1.000  H
  C13      1.0000 0.62800  0.45420  0.88470  Biso   1.000  C
  H10      1.0000 0.61220  0.39300  0.93870  Biso   1.000  H
  H11      1.0000 0.73150  0.47790  0.88940  Biso   1.000  H
  C14      1.0000 0.31400  0.54870  0.88070  Biso   1.000  C
  H12      1.0000 0.27070  0.48410  0.88800  Biso   1.000  H
  C15      1.0000 0.25000  0.89490  0.60750  Biso   1.000  C
  H13      1.0000 0.15410  0.86980  0.60150  Biso   1.000  H
  C16      1.0000 0.41200  0.00640  0.61230  Biso   1.000  C
  H14      1.0000 0.44960  0.07090  0.61220  Biso   1.000  H
  Nd3      1.0000 0.97477  0.82089  0.13531  Biso   1.000  Nd
  Nd4      1.0000 0.35467  0.62786  0.38554  Biso   1.000  Nd
  O16      1.0000 0.44990  0.55010  0.25390  Biso   1.000  O
  O17      1.0000 0.47410  0.42280  0.45870  Biso   1.000  O
  O18      1.0000 0.66560  0.60870  0.35790  Biso   1.000  O
  O19      1.0000 0.44510  0.78920  0.26480  Biso   1.000  O
  O20      1.0000 0.90090  0.89280  0.27030  Biso   1.000  O
  O21      1.0000 0.88160  0.66710  0.26420  Biso   1.000  O
  O22      1.0000 0.21690  0.67100  0.19790  Biso   1.000  O
  C17      1.0000 0.70500  0.15030  0.14600  Biso   1.000  C
  H15      1.0000 0.77430  0.11020  0.19700  Biso   1.000  H
  H16      1.0000 0.60000  0.12210  0.15770  Biso   1.000  H
  N6       1.0000 0.83100  0.73610  0.00880  Biso   1.000  N
  O23      1.0000 0.40350  0.75720  0.47590  Biso   1.000  O
  O24      1.0000 0.85740  0.01770  0.07040  Biso   1.000  O
  O25      1.0000 0.18180  0.79570  0.00640  Biso   1.000  O
  O26      1.0000 0.10730  0.77760  0.35830  Biso   1.000  O
  N7       1.0000 0.66150  0.27580  0.13710  Biso   1.000  N
  N8       1.0000 0.59400  0.17090  0.37560  Biso   1.000  N
  O27      1.0000 0.65630  0.84470  0.16820  Biso   1.000  O
  C18      1.0000 0.46480  0.67940  0.54230  Biso   1.000  C
  N9       1.0000 0.51810  0.44800  0.12020  Biso   1.000  N
  O28      1.0000 0.82610  0.84100  0.99310  Biso   1.000  O
  C19      1.0000 0.97360  0.85530  0.34150  Biso   1.000  C
  C20      1.0000 0.80190  0.12280  0.06210  Biso   1.000  C
  N10      1.0000 0.74600  0.99720  0.39920  Biso   1.000  N
  O29      1.0000 0.90600  0.66320  0.07980  Biso   1.000  O
  C21      1.0000 0.59960  0.78040  0.23670  Biso   1.000  C
  C22      1.0000 0.34660  0.59210  0.19540  Biso   1.000  C
  C23      1.0000 0.49200  0.10000  0.37590  Biso   1.000  C
  H17      1.0000 0.37470  0.12160  0.36900  Biso   1.000  H
  C24      1.0000 0.50650  0.34080  0.13220  Biso   1.000  C
  H18      1.0000 0.40560  0.31590  0.13650  Biso   1.000  H
  C25      1.0000 0.89700  0.89940  0.41890  Biso   1.000  C
  H19      1.0000 0.86320  0.83680  0.46680  Biso   1.000  H
  H20      1.0000 0.98430  0.92350  0.44060  Biso   1.000  H
  C26      1.0000 0.72820  0.67590  0.29090  Biso   1.000  C
  O30      1.0000 0.77400  0.69570  0.96150  Biso   1.000  O
  C27      1.0000 0.46100  0.70540  0.63130  Biso   1.000  C
  H21      1.0000 0.57460  0.67670  0.65380  Biso   1.000  H
  H22      1.0000 0.38380  0.66450  0.67450  Biso   1.000  H
  C28      1.0000 0.77600  0.34300  0.13100  Biso   1.000  C
  H23      1.0000 0.89360  0.31800  0.13430  Biso   1.000  H
  C29      1.0000 0.37200  0.54580  0.11530  Biso   1.000  C
  H24      1.0000 0.38780  0.60700  0.06130  Biso   1.000  H
  H25      1.0000 0.26850  0.52210  0.11060  Biso   1.000  H
  C30      1.0000 0.68600  0.45130  0.11930  Biso   1.000  C
  H26      1.0000 0.72930  0.51590  0.11200  Biso   1.000  H
  C31      1.0000 0.75000  0.10510  0.39250  Biso   1.000  C
  H27      1.0000 0.84590  0.13020  0.39850  Biso   1.000  H
  C32      1.0000 0.58800  0.99360  0.38770  Biso   1.000  C
  H28      1.0000 0.55040  0.92910  0.38780  Biso   1.000  H
