data_image0
_cell_length_a       10.0338
_cell_length_b       8.2827
_cell_length_c       11.1583
_cell_angle_alpha    90
_cell_angle_beta     90
_cell_angle_gamma    90

_symmetry_space_group_name_H-M    "P 1"
_symmetry_int_tables_number       1

loop_
  _symmetry_equiv_pos_as_xyz
  'x, y, z'

loop_
  _atom_site_label
  _atom_site_occupancy
  _atom_site_fract_x
  _atom_site_fract_y
  _atom_site_fract_z
  _atom_site_thermal_displace_type
  _atom_site_B_iso_or_equiv
  _atom_site_type_symbol
  Cu1      1.0000 0.20437  0.00118  0.26844  Biso   1.000  Cu
  O1       1.0000 0.01490  0.09830  0.18570  Biso   1.000  O
  O2       1.0000 0.87190  0.30150  0.16840  Biso   1.000  O
  O3       1.0000 0.18280  0.10790  0.42870  Biso   1.000  O
  O4       1.0000 0.24280  0.11510  0.61960  Biso   1.000  O
  C1       1.0000 0.96950  0.23210  0.21720  Biso   1.000  C
  H1       1.0000 0.01150  0.28520  0.28260  Biso   1.000  H
  C2       1.0000 0.23050  0.04160  0.52140  Biso   1.000  C
  H2       1.0000 0.25810  0.93200  0.51670  Biso   1.000  H
  Cu2      1.0000 0.29563  0.99882  0.76844  Biso   1.000  Cu
  O5       1.0000 0.48510  0.90170  0.68570  Biso   1.000  O
  O6       1.0000 0.62810  0.69850  0.66840  Biso   1.000  O
  O7       1.0000 0.31720  0.89210  0.92870  Biso   1.000  O
  O8       1.0000 0.25720  0.88490  0.11960  Biso   1.000  O
  C3       1.0000 0.53050  0.76790  0.71720  Biso   1.000  C
  H3       1.0000 0.48850  0.71480  0.78260  Biso   1.000  H
  C4       1.0000 0.26950  0.95840  0.02140  Biso   1.000  C
  H4       1.0000 0.24190  0.06800  0.01670  Biso   1.000  H
  Cu3      1.0000 0.79563  0.50118  0.23156  Biso   1.000  Cu
  O9       1.0000 0.98510  0.59830  0.31430  Biso   1.000  O
  O10      1.0000 0.12810  0.80150  0.33160  Biso   1.000  O
  O11      1.0000 0.81720  0.60790  0.07130  Biso   1.000  O
  O12      1.0000 0.75720  0.61510  0.88040  Biso   1.000  O
  C5       1.0000 0.03050  0.73210  0.28280  Biso   1.000  C
  H5       1.0000 0.98850  0.78520  0.21740  Biso   1.000  H
  C6       1.0000 0.76950  0.54160  0.97860  Biso   1.000  C
  H6       1.0000 0.74190  0.43200  0.98330  Biso   1.000  H
  Cu4      1.0000 0.70437  0.49882  0.73156  Biso   1.000  Cu
  O13      1.0000 0.51490  0.40170  0.81430  Biso   1.000  O
  O14      1.0000 0.37190  0.19850  0.83160  Biso   1.000  O
  O15      1.0000 0.68280  0.39210  0.57130  Biso   1.000  O
  O16      1.0000 0.74280  0.38490  0.38040  Biso   1.000  O
  C7       1.0000 0.46950  0.26790  0.78280  Biso   1.000  C
  H7       1.0000 0.51150  0.21480  0.71740  Biso   1.000  H
  C8       1.0000 0.73050  0.45840  0.47860  Biso   1.000  C
  H8       1.0000 0.75810  0.56800  0.48330  Biso   1.000  H
