data_image0
_cell_length_a       7.987
_cell_length_b       8.534
_cell_length_c       11.259
_cell_angle_alpha    71.961
_cell_angle_beta     84.27
_cell_angle_gamma    68.045

_symmetry_space_group_name_H-M    "P 1"
_symmetry_int_tables_number       1

loop_
  _symmetry_equiv_pos_as_xyz
  'x, y, z'

loop_
  _atom_site_label
  _atom_site_occupancy
  _atom_site_fract_x
  _atom_site_fract_y
  _atom_site_fract_z
  _atom_site_thermal_displace_type
  _atom_site_B_iso_or_equiv
  _atom_site_type_symbol
  Nd1      1.0000 0.78591  0.25810  0.97797  Biso   1.000  Nd
  O1       1.0000 0.93770  0.96340  0.12050  Biso   1.000  O
  O2       1.0000 0.08000  0.27270  0.02510  Biso   1.000  O
  O3       1.0000 0.76120  0.34400  0.17290  Biso   1.000  O
  O4       1.0000 0.51590  0.45780  0.86700  Biso   1.000  O
  O5       1.0000 0.90240  0.29640  0.75580  Biso   1.000  O
  O6       1.0000 0.20080  0.43910  0.07930  Biso   1.000  O
  C1       1.0000 0.08430  0.41410  0.03070  Biso   1.000  C
  N1       1.0000 0.96690  0.18340  0.54830  Biso   1.000  N
  N2       1.0000 0.76890  0.36510  0.40690  Biso   1.000  N
  C2       1.0000 0.04810  0.05680  0.66650  Biso   1.000  C
  H1       1.0000 0.17820  0.01090  0.65840  Biso   1.000  H
  H2       1.0000 0.00680  0.95850  0.68570  Biso   1.000  H
  C3       1.0000 0.79810  0.23240  0.51130  Biso   1.000  C
  H3       1.0000 0.71460  0.18240  0.55160  Biso   1.000  H
  C4       1.0000 0.59600  0.45200  0.33710  Biso   1.000  C
  H4       1.0000 0.54380  0.57450  0.33820  Biso   1.000  H
  H5       1.0000 0.51290  0.39440  0.37840  Biso   1.000  H
  C5       1.0000 0.61730  0.44770  0.20180  Biso   1.000  C
  C6       1.0000 0.04700  0.28500  0.46520  Biso   1.000  C
  H6       1.0000 0.16690  0.27560  0.46900  Biso   1.000  H
  C7       1.0000 0.92800  0.40000  0.37880  Biso   1.000  C
  H7       1.0000 0.94590  0.48740  0.31130  Biso   1.000  H
  C8       1.0000 0.00130  0.13860  0.77330  Biso   1.000  C
  Nd2      1.0000 0.21409  0.74190  0.02203  Biso   1.000  Nd
  O7       1.0000 0.06230  0.03660  0.87950  Biso   1.000  O
  O8       1.0000 0.92000  0.72730  0.97490  Biso   1.000  O
  O9       1.0000 0.23880  0.65600  0.82710  Biso   1.000  O
  O10      1.0000 0.48410  0.54220  0.13300  Biso   1.000  O
  O11      1.0000 0.09760  0.70360  0.24420  Biso   1.000  O
  O12      1.0000 0.79920  0.56090  0.92070  Biso   1.000  O
  C9       1.0000 0.91570  0.58590  0.96930  Biso   1.000  C
  N3       1.0000 0.03310  0.81660  0.45170  Biso   1.000  N
  N4       1.0000 0.23110  0.63490  0.59310  Biso   1.000  N
  C10      1.0000 0.95190  0.94320  0.33350  Biso   1.000  C
  H8       1.0000 0.82180  0.98910  0.34160  Biso   1.000  H
  H9       1.0000 0.99320  0.04150  0.31430  Biso   1.000  H
  C11      1.0000 0.20190  0.76760  0.48870  Biso   1.000  C
  H10      1.0000 0.28540  0.81760  0.44840  Biso   1.000  H
  C12      1.0000 0.40400  0.54800  0.66290  Biso   1.000  C
  H11      1.0000 0.45620  0.42550  0.66180  Biso   1.000  H
  H12      1.0000 0.48710  0.60560  0.62160  Biso   1.000  H
  C13      1.0000 0.38270  0.55230  0.79820  Biso   1.000  C
  C14      1.0000 0.95300  0.71500  0.53480  Biso   1.000  C
  H13      1.0000 0.83310  0.72440  0.53100  Biso   1.000  H
  C15      1.0000 0.07200  0.60000  0.62120  Biso   1.000  C
  H14      1.0000 0.05410  0.51260  0.68870  Biso   1.000  H
  C16      1.0000 0.99870  0.86140  0.22670  Biso   1.000  C
