data_image0
_cell_length_a       10.0729
_cell_length_b       8.2789
_cell_length_c       11.1535
_cell_angle_alpha    90
_cell_angle_beta     90
_cell_angle_gamma    90

_symmetry_space_group_name_H-M    "P 1"
_symmetry_int_tables_number       1

loop_
  _symmetry_equiv_pos_as_xyz
  'x, y, z'

loop_
  _atom_site_label
  _atom_site_occupancy
  _atom_site_fract_x
  _atom_site_fract_y
  _atom_site_fract_z
  _atom_site_thermal_displace_type
  _atom_site_B_iso_or_equiv
  _atom_site_type_symbol
  Cu1      1.0000 0.20435  0.00050  0.26715  Biso   1.000  Cu
  O1       1.0000 0.01440  0.09860  0.18580  Biso   1.000  O
  O2       1.0000 0.87140  0.30030  0.17030  Biso   1.000  O
  O3       1.0000 0.18320  0.10610  0.42762  Biso   1.000  O
  O4       1.0000 0.24380  0.11400  0.61780  Biso   1.000  O
  C1       1.0000 0.96920  0.23140  0.21740  Biso   1.000  C
  H1       1.0000 0.01200  0.28490  0.28210  Biso   1.000  H
  C2       1.0000 0.23130  0.04090  0.51980  Biso   1.000  C
  H2       1.0000 0.25930  0.93150  0.51510  Biso   1.000  H
  Cu2      1.0000 0.29565  0.99950  0.76715  Biso   1.000  Cu
  O5       1.0000 0.48560  0.90140  0.68580  Biso   1.000  O
  O6       1.0000 0.62860  0.69970  0.67030  Biso   1.000  O
  O7       1.0000 0.31680  0.89390  0.92762  Biso   1.000  O
  O8       1.0000 0.25620  0.88600  0.11780  Biso   1.000  O
  C3       1.0000 0.53080  0.76860  0.71740  Biso   1.000  C
  H3       1.0000 0.48800  0.71510  0.78210  Biso   1.000  H
  C4       1.0000 0.26870  0.95910  0.01980  Biso   1.000  C
  H4       1.0000 0.24070  0.06850  0.01510  Biso   1.000  H
  Cu3      1.0000 0.79565  0.50050  0.23285  Biso   1.000  Cu
  O9       1.0000 0.98560  0.59860  0.31420  Biso   1.000  O
  O10      1.0000 0.12860  0.80030  0.32970  Biso   1.000  O
  O11      1.0000 0.81680  0.60610  0.07238  Biso   1.000  O
  O12      1.0000 0.75620  0.61400  0.88220  Biso   1.000  O
  C5       1.0000 0.03080  0.73140  0.28260  Biso   1.000  C
  H5       1.0000 0.98800  0.78490  0.21790  Biso   1.000  H
  C6       1.0000 0.76870  0.54090  0.98020  Biso   1.000  C
  H6       1.0000 0.74070  0.43150  0.98490  Biso   1.000  H
  Cu4      1.0000 0.70435  0.49950  0.73285  Biso   1.000  Cu
  O13      1.0000 0.51440  0.40140  0.81420  Biso   1.000  O
  O14      1.0000 0.37140  0.19970  0.82970  Biso   1.000  O
  O15      1.0000 0.68320  0.39390  0.57238  Biso   1.000  O
  O16      1.0000 0.74380  0.38600  0.38220  Biso   1.000  O
  C7       1.0000 0.46920  0.26860  0.78260  Biso   1.000  C
  H7       1.0000 0.51200  0.21510  0.71790  Biso   1.000  H
  C8       1.0000 0.73130  0.45910  0.48020  Biso   1.000  C
  H8       1.0000 0.75930  0.56850  0.48490  Biso   1.000  H
