data_image0
_cell_length_a       20.796
_cell_length_b       19.485
_cell_length_c       5.972
_cell_angle_alpha    90
_cell_angle_beta     114.096
_cell_angle_gamma    90

_symmetry_space_group_name_H-M    "P 1"
_symmetry_int_tables_number       1

loop_
  _symmetry_equiv_pos_as_xyz
  'x, y, z'

loop_
  _atom_site_label
  _atom_site_occupancy
  _atom_site_fract_x
  _atom_site_fract_y
  _atom_site_fract_z
  _atom_site_thermal_displace_type
  _atom_site_B_iso_or_equiv
  _atom_site_type_symbol
  N1       1.0000 0.61200  0.04020  0.15100  Biso   1.000  N
  H1       1.0000 0.62810  0.05130  0.31070  Biso   1.000  H
  H2       1.0000 0.64190  0.01080  0.12620  Biso   1.000  H
  N2       1.0000 0.65200  0.20110  0.88000  Biso   1.000  N
  H3       1.0000 0.61870  0.22990  0.88750  Biso   1.000  H
  H4       1.0000 0.63780  0.18620  0.72450  Biso   1.000  H
  N3       1.0000 0.84100  0.19610  0.61000  Biso   1.000  N
  H5       1.0000 0.87670  0.22480  0.62800  Biso   1.000  H
  H6       1.0000 0.85010  0.17660  0.75650  Biso   1.000  H
  N4       1.0000 0.90680  0.05500  0.38100  Biso   1.000  N
  H7       1.0000 0.89720  0.07190  0.23080  Biso   1.000  H
  H8       1.0000 0.87150  0.02640  0.36920  Biso   1.000  H
  C1       1.0000 0.59740  0.10030  0.99300  Biso   1.000  C
  H9       1.0000 0.56190  0.12830  0.01570  Biso   1.000  H
  H10      1.0000 0.57890  0.08590  0.82300  Biso   1.000  H
  C2       1.0000 0.66320  0.14250  0.05100  Biso   1.000  C
  H11      1.0000 0.67930  0.15990  0.21750  Biso   1.000  H
  H12      1.0000 0.69990  0.11320  0.04340  Biso   1.000  H
  C3       1.0000 0.83640  0.14300  0.43300  Biso   1.000  C
  H13      1.0000 0.82690  0.16240  0.27270  Biso   1.000  H
  H14      1.0000 0.80050  0.10940  0.41770  Biso   1.000  H
  C4       1.0000 0.90940  0.11240  0.54800  Biso   1.000  C
  H15      1.0000 0.94480  0.14580  0.55590  Biso   1.000  H
  H16      1.0000 0.91960  0.09580  0.71210  Biso   1.000  H
  N5       1.0000 0.11200  0.54020  0.15100  Biso   1.000  N
  H17      1.0000 0.12810  0.55130  0.31070  Biso   1.000  H
  H18      1.0000 0.14190  0.51080  0.12620  Biso   1.000  H
  N6       1.0000 0.15200  0.70110  0.88000  Biso   1.000  N
  H19      1.0000 0.11870  0.72990  0.88750  Biso   1.000  H
  H20      1.0000 0.13780  0.68620  0.72450  Biso   1.000  H
  N7       1.0000 0.34100  0.69610  0.61000  Biso   1.000  N
  H21      1.0000 0.37670  0.72480  0.62800  Biso   1.000  H
  H22      1.0000 0.35010  0.67660  0.75650  Biso   1.000  H
  N8       1.0000 0.40680  0.55500  0.38100  Biso   1.000  N
  H23      1.0000 0.39720  0.57190  0.23080  Biso   1.000  H
  H24      1.0000 0.37150  0.52640  0.36920  Biso   1.000  H
  C5       1.0000 0.09740  0.60030  0.99300  Biso   1.000  C
  H25      1.0000 0.06190  0.62830  0.01570  Biso   1.000  H
  H26      1.0000 0.07890  0.58590  0.82300  Biso   1.000  H
  C6       1.0000 0.16320  0.64250  0.05100  Biso   1.000  C
  H27      1.0000 0.17930  0.65990  0.21750  Biso   1.000  H
  H28      1.0000 0.19990  0.61320  0.04340  Biso   1.000  H
  C7       1.0000 0.33640  0.64300  0.43300  Biso   1.000  C
  H29      1.0000 0.32690  0.66240  0.27270  Biso   1.000  H
  H30      1.0000 0.30050  0.60940  0.41770  Biso   1.000  H
  C8       1.0000 0.40940  0.61240  0.54800  Biso   1.000  C
  H31      1.0000 0.44480  0.64580  0.55590  Biso   1.000  H
  H32      1.0000 0.41960  0.59580  0.71210  Biso   1.000  H
  N9       1.0000 0.38800  0.04020  0.34900  Biso   1.000  N
  H33      1.0000 0.37190  0.05130  0.18930  Biso   1.000  H
  H34      1.0000 0.35810  0.01080  0.37380  Biso   1.000  H
  N10      1.0000 0.34800  0.20110  0.62000  Biso   1.000  N
  H35      1.0000 0.38130  0.22990  0.61250  Biso   1.000  H
  H36      1.0000 0.36220  0.18620  0.77550  Biso   1.000  H
  N11      1.0000 0.15900  0.19610  0.89000  Biso   1.000  N
  H37      1.0000 0.12330  0.22480  0.87200  Biso   1.000  H
  H38      1.0000 0.14990  0.17660  0.74350  Biso   1.000  H
  N12      1.0000 0.09320  0.05500  0.11900  Biso   1.000  N
  H39      1.0000 0.10280  0.07190  0.26920  Biso   1.000  H
  H40      1.0000 0.12850  0.02640  0.13080  Biso   1.000  H
  C9       1.0000 0.40260  0.10030  0.50700  Biso   1.000  C
  H41      1.0000 0.43810  0.12830  0.48430  Biso   1.000  H
  H42      1.0000 0.42110  0.08590  0.67700  Biso   1.000  H
  C10      1.0000 0.33680  0.14250  0.44900  Biso   1.000  C
  H43      1.0000 0.32070  0.15990  0.28250  Biso   1.000  H
  H44      1.0000 0.30010  0.11320  0.45660  Biso   1.000  H
  C11      1.0000 0.16360  0.14300  0.06700  Biso   1.000  C
  H45      1.0000 0.17310  0.16240  0.22730  Biso   1.000  H
  H46      1.0000 0.19950  0.10940  0.08230  Biso   1.000  H
  C12      1.0000 0.09060  0.11240  0.95200  Biso   1.000  C
  H47      1.0000 0.05520  0.14580  0.94410  Biso   1.000  H
  H48      1.0000 0.08040  0.09580  0.78790  Biso   1.000  H
  N13      1.0000 0.88800  0.54020  0.34900  Biso   1.000  N
  H49      1.0000 0.87190  0.55130  0.18930  Biso   1.000  H
  H50      1.0000 0.85810  0.51080  0.37380  Biso   1.000  H
  N14      1.0000 0.84800  0.70110  0.62000  Biso   1.000  N
  H51      1.0000 0.88130  0.72990  0.61250  Biso   1.000  H
  H52      1.0000 0.86220  0.68620  0.77550  Biso   1.000  H
  N15      1.0000 0.65900  0.69610  0.89000  Biso   1.000  N
  H53      1.0000 0.62330  0.72480  0.87200  Biso   1.000  H
  H54      1.0000 0.64990  0.67660  0.74350  Biso   1.000  H
  N16      1.0000 0.59320  0.55500  0.11900  Biso   1.000  N
  H55      1.0000 0.60280  0.57190  0.26920  Biso   1.000  H
  H56      1.0000 0.62850  0.52640  0.13080  Biso   1.000  H
  C13      1.0000 0.90260  0.60030  0.50700  Biso   1.000  C
  H57      1.0000 0.93810  0.62830  0.48430  Biso   1.000  H
  H58      1.0000 0.92110  0.58590  0.67700  Biso   1.000  H
  C14      1.0000 0.83680  0.64250  0.44900  Biso   1.000  C
  H59      1.0000 0.82070  0.65990  0.28250  Biso   1.000  H
  H60      1.0000 0.80010  0.61320  0.45660  Biso   1.000  H
  C15      1.0000 0.66360  0.64300  0.06700  Biso   1.000  C
  H61      1.0000 0.67310  0.66240  0.22730  Biso   1.000  H
  H62      1.0000 0.69950  0.60940  0.08230  Biso   1.000  H
  C16      1.0000 0.59060  0.61240  0.95200  Biso   1.000  C
  H63      1.0000 0.55520  0.64580  0.94410  Biso   1.000  H
  H64      1.0000 0.58040  0.59580  0.78790  Biso   1.000  H
  N17      1.0000 0.38800  0.95980  0.84900  Biso   1.000  N
  H65      1.0000 0.37190  0.94870  0.68930  Biso   1.000  H
  H66      1.0000 0.35810  0.98920  0.87380  Biso   1.000  H
  N18      1.0000 0.34800  0.79890  0.12000  Biso   1.000  N
  H67      1.0000 0.38130  0.77010  0.11250  Biso   1.000  H
  H68      1.0000 0.36220  0.81380  0.27550  Biso   1.000  H
  N19      1.0000 0.15900  0.80390  0.39000  Biso   1.000  N
  H69      1.0000 0.12330  0.77520  0.37200  Biso   1.000  H
  H70      1.0000 0.14990  0.82340  0.24350  Biso   1.000  H
  N20      1.0000 0.09320  0.94500  0.61900  Biso   1.000  N
  H71      1.0000 0.10280  0.92810  0.76920  Biso   1.000  H
  H72      1.0000 0.12850  0.97360  0.63080  Biso   1.000  H
  C17      1.0000 0.40260  0.89970  0.00700  Biso   1.000  C
  H73      1.0000 0.43810  0.87170  0.98430  Biso   1.000  H
  H74      1.0000 0.42110  0.91410  0.17700  Biso   1.000  H
  C18      1.0000 0.33680  0.85750  0.94900  Biso   1.000  C
  H75      1.0000 0.32070  0.84010  0.78250  Biso   1.000  H
  H76      1.0000 0.30010  0.88680  0.95660  Biso   1.000  H
  C19      1.0000 0.16360  0.85700  0.56700  Biso   1.000  C
  H77      1.0000 0.17310  0.83760  0.72730  Biso   1.000  H
  H78      1.0000 0.19950  0.89060  0.58230  Biso   1.000  H
  C20      1.0000 0.09060  0.88760  0.45200  Biso   1.000  C
  H79      1.0000 0.05520  0.85420  0.44410  Biso   1.000  H
  H80      1.0000 0.08040  0.90420  0.28790  Biso   1.000  H
  N21      1.0000 0.88800  0.45980  0.84900  Biso   1.000  N
  H81      1.0000 0.87190  0.44870  0.68930  Biso   1.000  H
  H82      1.0000 0.85810  0.48920  0.87380  Biso   1.000  H
  N22      1.0000 0.84800  0.29890  0.12000  Biso   1.000  N
  H83      1.0000 0.88130  0.27010  0.11250  Biso   1.000  H
  H84      1.0000 0.86220  0.31380  0.27550  Biso   1.000  H
  N23      1.0000 0.65900  0.30390  0.39000  Biso   1.000  N
  H85      1.0000 0.62330  0.27520  0.37200  Biso   1.000  H
  H86      1.0000 0.64990  0.32340  0.24350  Biso   1.000  H
  N24      1.0000 0.59320  0.44500  0.61900  Biso   1.000  N
  H87      1.0000 0.60280  0.42810  0.76920  Biso   1.000  H
  H88      1.0000 0.62850  0.47360  0.63080  Biso   1.000  H
  C21      1.0000 0.90260  0.39970  0.00700  Biso   1.000  C
  H89      1.0000 0.93810  0.37170  0.98430  Biso   1.000  H
  H90      1.0000 0.92110  0.41410  0.17700  Biso   1.000  H
  C22      1.0000 0.83680  0.35750  0.94900  Biso   1.000  C
  H91      1.0000 0.82070  0.34010  0.78250  Biso   1.000  H
  H92      1.0000 0.80010  0.38680  0.95660  Biso   1.000  H
  C23      1.0000 0.66360  0.35700  0.56700  Biso   1.000  C
  H93      1.0000 0.67310  0.33760  0.72730  Biso   1.000  H
  H94      1.0000 0.69950  0.39060  0.58230  Biso   1.000  H
  C24      1.0000 0.59060  0.38760  0.45200  Biso   1.000  C
  H95      1.0000 0.55520  0.35420  0.44410  Biso   1.000  H
  H96      1.0000 0.58040  0.40420  0.28790  Biso   1.000  H
  N25      1.0000 0.61200  0.95980  0.65100  Biso   1.000  N
  H97      1.0000 0.62810  0.94870  0.81070  Biso   1.000  H
  H98      1.0000 0.64190  0.98920  0.62620  Biso   1.000  H
  N26      1.0000 0.65200  0.79890  0.38000  Biso   1.000  N
  H99      1.0000 0.61870  0.77010  0.38750  Biso   1.000  H
  H100     1.0000 0.63780  0.81380  0.22450  Biso   1.000  H
  N27      1.0000 0.84100  0.80390  0.11000  Biso   1.000  N
  H101     1.0000 0.87670  0.77520  0.12800  Biso   1.000  H
  H102     1.0000 0.85010  0.82340  0.25650  Biso   1.000  H
  N28      1.0000 0.90680  0.94500  0.88100  Biso   1.000  N
  H103     1.0000 0.89720  0.92810  0.73080  Biso   1.000  H
  H104     1.0000 0.87150  0.97360  0.86920  Biso   1.000  H
  C25      1.0000 0.59740  0.89970  0.49300  Biso   1.000  C
  H105     1.0000 0.56190  0.87170  0.51570  Biso   1.000  H
  H106     1.0000 0.57890  0.91410  0.32300  Biso   1.000  H
  C26      1.0000 0.66320  0.85750  0.55100  Biso   1.000  C
  H107     1.0000 0.67930  0.84010  0.71750  Biso   1.000  H
  H108     1.0000 0.69990  0.88680  0.54340  Biso   1.000  H
  C27      1.0000 0.83640  0.85700  0.93300  Biso   1.000  C
  H109     1.0000 0.82690  0.83760  0.77270  Biso   1.000  H
  H110     1.0000 0.80050  0.89060  0.91770  Biso   1.000  H
  C28      1.0000 0.90940  0.88760  0.04800  Biso   1.000  C
  H111     1.0000 0.94480  0.85420  0.05590  Biso   1.000  H
  H112     1.0000 0.91960  0.90420  0.21210  Biso   1.000  H
  N29      1.0000 0.11200  0.45980  0.65100  Biso   1.000  N
  H113     1.0000 0.12810  0.44870  0.81070  Biso   1.000  H
  H114     1.0000 0.14190  0.48920  0.62620  Biso   1.000  H
  N30      1.0000 0.15200  0.29890  0.38000  Biso   1.000  N
  H115     1.0000 0.11870  0.27010  0.38750  Biso   1.000  H
  H116     1.0000 0.13780  0.31380  0.22450  Biso   1.000  H
  N31      1.0000 0.34100  0.30390  0.11000  Biso   1.000  N
  H117     1.0000 0.37670  0.27520  0.12800  Biso   1.000  H
  H118     1.0000 0.35010  0.32340  0.25650  Biso   1.000  H
  N32      1.0000 0.40680  0.44500  0.88100  Biso   1.000  N
  H119     1.0000 0.39720  0.42810  0.73080  Biso   1.000  H
  H120     1.0000 0.37150  0.47360  0.86920  Biso   1.000  H
  C29      1.0000 0.09740  0.39970  0.49300  Biso   1.000  C
  H121     1.0000 0.06190  0.37170  0.51570  Biso   1.000  H
  H122     1.0000 0.07890  0.41410  0.32300  Biso   1.000  H
  C30      1.0000 0.16320  0.35750  0.55100  Biso   1.000  C
  H123     1.0000 0.17930  0.34010  0.71750  Biso   1.000  H
  H124     1.0000 0.19990  0.38680  0.54340  Biso   1.000  H
  C31      1.0000 0.33640  0.35700  0.93300  Biso   1.000  C
  H125     1.0000 0.32690  0.33760  0.77270  Biso   1.000  H
  H126     1.0000 0.30050  0.39060  0.91770  Biso   1.000  H
  C32      1.0000 0.40940  0.38760  0.04800  Biso   1.000  C
  H127     1.0000 0.44480  0.35420  0.05590  Biso   1.000  H
  H128     1.0000 0.41960  0.40420  0.21210  Biso   1.000  H
  Ag1      1.0000 0.50000  0.00000  0.00000  Biso   1.000  Ag
  Ag2      1.0000 0.00000  0.50000  0.00000  Biso   1.000  Ag
  Ag3      1.0000 0.50000  0.00000  0.50000  Biso   1.000  Ag
  Ag4      1.0000 0.00000  0.50000  0.50000  Biso   1.000  Ag
  Ag5      1.0000 0.75000  0.25000  0.00000  Biso   1.000  Ag
  Ag6      1.0000 0.25000  0.25000  0.50000  Biso   1.000  Ag
  Ag7      1.0000 0.25000  0.75000  0.00000  Biso   1.000  Ag
  Ag8      1.0000 0.75000  0.75000  0.50000  Biso   1.000  Ag
  Ag9      1.0000 0.75000  0.25000  0.50000  Biso   1.000  Ag
  Ag10     1.0000 0.25000  0.25000  0.00000  Biso   1.000  Ag
  Ag11     1.0000 0.25000  0.75000  0.50000  Biso   1.000  Ag
  Ag12     1.0000 0.75000  0.75000  0.00000  Biso   1.000  Ag
  Ag13     1.0000 0.00000  0.00000  0.50000  Biso   1.000  Ag
  Ag14     1.0000 0.50000  0.50000  0.50000  Biso   1.000  Ag
  Ag15     1.0000 0.00000  0.00000  0.00000  Biso   1.000  Ag
  Ag16     1.0000 0.50000  0.50000  0.00000  Biso   1.000  Ag
