data_image0
_cell_length_a       10.574
_cell_length_b       10.345
_cell_length_c       6.166
_cell_angle_alpha    90
_cell_angle_beta     114.85
_cell_angle_gamma    90

_symmetry_space_group_name_H-M    "P 1"
_symmetry_int_tables_number       1

loop_
  _symmetry_equiv_pos_as_xyz
  'x, y, z'

loop_
  _atom_site_label
  _atom_site_occupancy
  _atom_site_fract_x
  _atom_site_fract_y
  _atom_site_fract_z
  _atom_site_thermal_displace_type
  _atom_site_B_iso_or_equiv
  _atom_site_type_symbol
  C1       1.0000 0.31610  0.21170  0.54800  Biso   1.000  C
  H1       1.0000 0.33230  0.17570  0.70260  Biso   1.000  H
  H2       1.0000 0.39420  0.26720  0.56760  Biso   1.000  H
  N1       1.0000 0.30390  0.10730  0.37930  Biso   1.000  N
  H3       1.0000 0.28290  0.14080  0.23350  Biso   1.000  H
  H4       1.0000 0.23470  0.05340  0.36830  Biso   1.000  H
  C2       1.0000 0.81610  0.71170  0.54800  Biso   1.000  C
  H5       1.0000 0.83230  0.67570  0.70260  Biso   1.000  H
  H6       1.0000 0.89420  0.76720  0.56760  Biso   1.000  H
  N2       1.0000 0.80390  0.60730  0.37930  Biso   1.000  N
  H7       1.0000 0.78290  0.64080  0.23350  Biso   1.000  H
  H8       1.0000 0.73470  0.55340  0.36830  Biso   1.000  H
  C3       1.0000 0.68390  0.21170  0.95200  Biso   1.000  C
  H9       1.0000 0.66770  0.17570  0.79740  Biso   1.000  H
  H10      1.0000 0.60580  0.26720  0.93240  Biso   1.000  H
  N3       1.0000 0.69610  0.10730  0.12070  Biso   1.000  N
  H11      1.0000 0.71710  0.14080  0.26650  Biso   1.000  H
  H12      1.0000 0.76530  0.05340  0.13170  Biso   1.000  H
  C4       1.0000 0.18390  0.71170  0.95200  Biso   1.000  C
  H13      1.0000 0.16770  0.67570  0.79740  Biso   1.000  H
  H14      1.0000 0.10580  0.76720  0.93240  Biso   1.000  H
  N4       1.0000 0.19610  0.60730  0.12070  Biso   1.000  N
  H15      1.0000 0.21710  0.64080  0.26650  Biso   1.000  H
  H16      1.0000 0.26530  0.55340  0.13170  Biso   1.000  H
  C5       1.0000 0.68390  0.78830  0.45200  Biso   1.000  C
  H17      1.0000 0.66770  0.82430  0.29740  Biso   1.000  H
  H18      1.0000 0.60580  0.73280  0.43240  Biso   1.000  H
  N5       1.0000 0.69610  0.89270  0.62070  Biso   1.000  N
  H19      1.0000 0.71710  0.85920  0.76650  Biso   1.000  H
  H20      1.0000 0.76530  0.94660  0.63170  Biso   1.000  H
  C6       1.0000 0.18390  0.28830  0.45200  Biso   1.000  C
  H21      1.0000 0.16770  0.32430  0.29740  Biso   1.000  H
  H22      1.0000 0.10580  0.23280  0.43240  Biso   1.000  H
  N6       1.0000 0.19610  0.39270  0.62070  Biso   1.000  N
  H23      1.0000 0.21710  0.35920  0.76650  Biso   1.000  H
  H24      1.0000 0.26530  0.44660  0.63170  Biso   1.000  H
  C7       1.0000 0.31610  0.78830  0.04800  Biso   1.000  C
  H25      1.0000 0.33230  0.82430  0.20260  Biso   1.000  H
  H26      1.0000 0.39420  0.73280  0.06760  Biso   1.000  H
  N7       1.0000 0.30390  0.89270  0.87930  Biso   1.000  N
  H27      1.0000 0.28290  0.85920  0.73350  Biso   1.000  H
  H28      1.0000 0.23470  0.94660  0.86830  Biso   1.000  H
  C8       1.0000 0.81610  0.28830  0.04800  Biso   1.000  C
  H29      1.0000 0.83230  0.32430  0.20260  Biso   1.000  H
  H30      1.0000 0.89420  0.23280  0.06760  Biso   1.000  H
  N8       1.0000 0.80390  0.39270  0.87930  Biso   1.000  N
  H31      1.0000 0.78290  0.35920  0.73350  Biso   1.000  H
  H32      1.0000 0.73470  0.44660  0.86830  Biso   1.000  H
  Ag1      1.0000 0.50000  0.00000  0.50000  Biso   1.000  Ag
  Ag2      1.0000 0.00000  0.50000  0.50000  Biso   1.000  Ag
  Ag3      1.0000 0.50000  0.00000  0.00000  Biso   1.000  Ag
  Ag4      1.0000 0.00000  0.50000  0.00000  Biso   1.000  Ag
