data_image0
_cell_length_a       10.4255
_cell_length_b       10.5301
_cell_length_c       6.2943
_cell_angle_alpha    90
_cell_angle_beta     115.135
_cell_angle_gamma    90

_symmetry_space_group_name_H-M    "P 1"
_symmetry_int_tables_number       1

loop_
  _symmetry_equiv_pos_as_xyz
  'x, y, z'

loop_
  _atom_site_label
  _atom_site_occupancy
  _atom_site_fract_x
  _atom_site_fract_y
  _atom_site_fract_z
  _atom_site_thermal_displace_type
  _atom_site_B_iso_or_equiv
  _atom_site_type_symbol
  C1       1.0000 0.31660  0.21040  0.54610  Biso   1.000  C
  H1       1.0000 0.39740  0.26510  0.57670  Biso   1.000  H
  H2       1.0000 0.32910  0.17170  0.69350  Biso   1.000  H
  N1       1.0000 0.31250  0.11040  0.38110  Biso   1.000  N
  H3       1.0000 0.29810  0.14640  0.24310  Biso   1.000  H
  H4       1.0000 0.23860  0.05880  0.35580  Biso   1.000  H
  C2       1.0000 0.81660  0.71040  0.54610  Biso   1.000  C
  H5       1.0000 0.89740  0.76510  0.57670  Biso   1.000  H
  H6       1.0000 0.82910  0.67170  0.69350  Biso   1.000  H
  N2       1.0000 0.81250  0.61040  0.38110  Biso   1.000  N
  H7       1.0000 0.79810  0.64640  0.24310  Biso   1.000  H
  H8       1.0000 0.73860  0.55880  0.35580  Biso   1.000  H
  C3       1.0000 0.68340  0.21040  0.95390  Biso   1.000  C
  H9       1.0000 0.60260  0.26510  0.92330  Biso   1.000  H
  H10      1.0000 0.67090  0.17170  0.80650  Biso   1.000  H
  N3       1.0000 0.68750  0.11040  0.11890  Biso   1.000  N
  H11      1.0000 0.70190  0.14640  0.25690  Biso   1.000  H
  H12      1.0000 0.76140  0.05880  0.14420  Biso   1.000  H
  C4       1.0000 0.18340  0.71040  0.95390  Biso   1.000  C
  H13      1.0000 0.10260  0.76510  0.92330  Biso   1.000  H
  H14      1.0000 0.17090  0.67170  0.80650  Biso   1.000  H
  N4       1.0000 0.18750  0.61040  0.11890  Biso   1.000  N
  H15      1.0000 0.20190  0.64640  0.25690  Biso   1.000  H
  H16      1.0000 0.26140  0.55880  0.14420  Biso   1.000  H
  C5       1.0000 0.68340  0.78960  0.45390  Biso   1.000  C
  H17      1.0000 0.60260  0.73490  0.42330  Biso   1.000  H
  H18      1.0000 0.67090  0.82830  0.30650  Biso   1.000  H
  N5       1.0000 0.68750  0.88960  0.61890  Biso   1.000  N
  H19      1.0000 0.70190  0.85360  0.75690  Biso   1.000  H
  H20      1.0000 0.76140  0.94120  0.64420  Biso   1.000  H
  C6       1.0000 0.18340  0.28960  0.45390  Biso   1.000  C
  H21      1.0000 0.10260  0.23490  0.42330  Biso   1.000  H
  H22      1.0000 0.17090  0.32830  0.30650  Biso   1.000  H
  N6       1.0000 0.18750  0.38960  0.61890  Biso   1.000  N
  H23      1.0000 0.20190  0.35360  0.75690  Biso   1.000  H
  H24      1.0000 0.26140  0.44120  0.64420  Biso   1.000  H
  C7       1.0000 0.31660  0.78960  0.04610  Biso   1.000  C
  H25      1.0000 0.39740  0.73490  0.07670  Biso   1.000  H
  H26      1.0000 0.32910  0.82830  0.19350  Biso   1.000  H
  N7       1.0000 0.31250  0.88960  0.88110  Biso   1.000  N
  H27      1.0000 0.29810  0.85360  0.74310  Biso   1.000  H
  H28      1.0000 0.23860  0.94120  0.85580  Biso   1.000  H
  C8       1.0000 0.81660  0.28960  0.04610  Biso   1.000  C
  H29      1.0000 0.89740  0.23490  0.07670  Biso   1.000  H
  H30      1.0000 0.82910  0.32830  0.19350  Biso   1.000  H
  N8       1.0000 0.81250  0.38960  0.88110  Biso   1.000  N
  H31      1.0000 0.79810  0.35360  0.74310  Biso   1.000  H
  H32      1.0000 0.73860  0.44120  0.85580  Biso   1.000  H
  Ag1      1.0000 0.50000  0.00000  0.50000  Biso   1.000  Ag
  Ag2      1.0000 0.00000  0.50000  0.50000  Biso   1.000  Ag
  Ag3      1.0000 0.50000  0.00000  0.00000  Biso   1.000  Ag
  Ag4      1.0000 0.00000  0.50000  0.00000  Biso   1.000  Ag
