data_image0
_cell_length_a       10.4488
_cell_length_b       10.5041
_cell_length_c       6.3065
_cell_angle_alpha    90
_cell_angle_beta     115.272
_cell_angle_gamma    90

_symmetry_space_group_name_H-M    "P 1"
_symmetry_int_tables_number       1

loop_
  _symmetry_equiv_pos_as_xyz
  'x, y, z'

loop_
  _atom_site_label
  _atom_site_occupancy
  _atom_site_fract_x
  _atom_site_fract_y
  _atom_site_fract_z
  _atom_site_thermal_displace_type
  _atom_site_B_iso_or_equiv
  _atom_site_type_symbol
  C1       1.0000 0.31590  0.20990  0.54630  Biso   1.000  C
  H1       1.0000 0.39720  0.26450  0.58080  Biso   1.000  H
  H2       1.0000 0.32670  0.17020  0.69190  Biso   1.000  H
  N1       1.0000 0.31380  0.11080  0.38160  Biso   1.000  N
  H3       1.0000 0.30020  0.14780  0.24490  Biso   1.000  H
  H4       1.0000 0.23970  0.05890  0.35360  Biso   1.000  H
  C2       1.0000 0.81590  0.70990  0.54630  Biso   1.000  C
  H5       1.0000 0.89720  0.76450  0.58080  Biso   1.000  H
  H6       1.0000 0.82670  0.67020  0.69190  Biso   1.000  H
  N2       1.0000 0.81380  0.61080  0.38160  Biso   1.000  N
  H7       1.0000 0.80020  0.64780  0.24490  Biso   1.000  H
  H8       1.0000 0.73970  0.55890  0.35360  Biso   1.000  H
  C3       1.0000 0.68410  0.20990  0.95370  Biso   1.000  C
  H9       1.0000 0.60280  0.26450  0.91920  Biso   1.000  H
  H10      1.0000 0.67330  0.17020  0.80810  Biso   1.000  H
  N3       1.0000 0.68620  0.11080  0.11840  Biso   1.000  N
  H11      1.0000 0.69980  0.14780  0.25510  Biso   1.000  H
  H12      1.0000 0.76030  0.05890  0.14640  Biso   1.000  H
  C4       1.0000 0.18410  0.70990  0.95370  Biso   1.000  C
  H13      1.0000 0.10280  0.76450  0.91920  Biso   1.000  H
  H14      1.0000 0.17330  0.67020  0.80810  Biso   1.000  H
  N4       1.0000 0.18620  0.61080  0.11840  Biso   1.000  N
  H15      1.0000 0.19980  0.64780  0.25510  Biso   1.000  H
  H16      1.0000 0.26030  0.55890  0.14640  Biso   1.000  H
  C5       1.0000 0.68410  0.79010  0.45370  Biso   1.000  C
  H17      1.0000 0.60280  0.73550  0.41920  Biso   1.000  H
  H18      1.0000 0.67330  0.82980  0.30810  Biso   1.000  H
  N5       1.0000 0.68620  0.88920  0.61840  Biso   1.000  N
  H19      1.0000 0.69980  0.85220  0.75510  Biso   1.000  H
  H20      1.0000 0.76030  0.94110  0.64640  Biso   1.000  H
  C6       1.0000 0.18410  0.29010  0.45370  Biso   1.000  C
  H21      1.0000 0.10280  0.23550  0.41920  Biso   1.000  H
  H22      1.0000 0.17330  0.32980  0.30810  Biso   1.000  H
  N6       1.0000 0.18620  0.38920  0.61840  Biso   1.000  N
  H23      1.0000 0.19980  0.35220  0.75510  Biso   1.000  H
  H24      1.0000 0.26030  0.44110  0.64640  Biso   1.000  H
  C7       1.0000 0.31590  0.79010  0.04630  Biso   1.000  C
  H25      1.0000 0.39720  0.73550  0.08080  Biso   1.000  H
  H26      1.0000 0.32670  0.82980  0.19190  Biso   1.000  H
  N7       1.0000 0.31380  0.88920  0.88160  Biso   1.000  N
  H27      1.0000 0.30020  0.85220  0.74490  Biso   1.000  H
  H28      1.0000 0.23970  0.94110  0.85360  Biso   1.000  H
  C8       1.0000 0.81590  0.29010  0.04630  Biso   1.000  C
  H29      1.0000 0.89720  0.23550  0.08080  Biso   1.000  H
  H30      1.0000 0.82670  0.32980  0.19190  Biso   1.000  H
  N8       1.0000 0.81380  0.38920  0.88160  Biso   1.000  N
  H31      1.0000 0.80020  0.35220  0.74490  Biso   1.000  H
  H32      1.0000 0.73970  0.44110  0.85360  Biso   1.000  H
  Ag1      1.0000 0.50000  0.00000  0.50000  Biso   1.000  Ag
  Ag2      1.0000 0.00000  0.50000  0.50000  Biso   1.000  Ag
  Ag3      1.0000 0.50000  0.00000  0.00000  Biso   1.000  Ag
  Ag4      1.0000 0.00000  0.50000  0.00000  Biso   1.000  Ag
