data_image0
_cell_length_a       10.4021
_cell_length_b       10.541
_cell_length_c       6.2832
_cell_angle_alpha    90
_cell_angle_beta     115.06
_cell_angle_gamma    90

_symmetry_space_group_name_H-M    "P 1"
_symmetry_int_tables_number       1

loop_
  _symmetry_equiv_pos_as_xyz
  'x, y, z'

loop_
  _atom_site_label
  _atom_site_occupancy
  _atom_site_fract_x
  _atom_site_fract_y
  _atom_site_fract_z
  _atom_site_thermal_displace_type
  _atom_site_B_iso_or_equiv
  _atom_site_type_symbol
  C1       1.0000 0.31670  0.21050  0.54590  Biso   1.000  C
  H1       1.0000 0.39750  0.26520  0.57550  Biso   1.000  H
  H2       1.0000 0.32950  0.17220  0.69390  Biso   1.000  H
  N1       1.0000 0.31230  0.11020  0.38080  Biso   1.000  N
  H3       1.0000 0.29780  0.14600  0.24240  Biso   1.000  H
  H4       1.0000 0.23830  0.05880  0.35610  Biso   1.000  H
  C2       1.0000 0.81670  0.71050  0.54590  Biso   1.000  C
  H5       1.0000 0.89750  0.76520  0.57550  Biso   1.000  H
  H6       1.0000 0.82950  0.67220  0.69390  Biso   1.000  H
  N2       1.0000 0.81230  0.61020  0.38080  Biso   1.000  N
  H7       1.0000 0.79780  0.64600  0.24240  Biso   1.000  H
  H8       1.0000 0.73830  0.55880  0.35610  Biso   1.000  H
  C3       1.0000 0.68330  0.21050  0.95410  Biso   1.000  C
  H9       1.0000 0.60250  0.26520  0.92450  Biso   1.000  H
  H10      1.0000 0.67050  0.17220  0.80610  Biso   1.000  H
  N3       1.0000 0.68770  0.11020  0.11920  Biso   1.000  N
  H11      1.0000 0.70220  0.14600  0.25760  Biso   1.000  H
  H12      1.0000 0.76170  0.05880  0.14390  Biso   1.000  H
  C4       1.0000 0.18330  0.71050  0.95410  Biso   1.000  C
  H13      1.0000 0.10250  0.76520  0.92450  Biso   1.000  H
  H14      1.0000 0.17050  0.67220  0.80610  Biso   1.000  H
  N4       1.0000 0.18770  0.61020  0.11920  Biso   1.000  N
  H15      1.0000 0.20220  0.64600  0.25760  Biso   1.000  H
  H16      1.0000 0.26170  0.55880  0.14390  Biso   1.000  H
  C5       1.0000 0.68330  0.78950  0.45410  Biso   1.000  C
  H17      1.0000 0.60250  0.73480  0.42450  Biso   1.000  H
  H18      1.0000 0.67050  0.82780  0.30610  Biso   1.000  H
  N5       1.0000 0.68770  0.88980  0.61920  Biso   1.000  N
  H19      1.0000 0.70220  0.85400  0.75760  Biso   1.000  H
  H20      1.0000 0.76170  0.94120  0.64390  Biso   1.000  H
  C6       1.0000 0.18330  0.28950  0.45410  Biso   1.000  C
  H21      1.0000 0.10250  0.23480  0.42450  Biso   1.000  H
  H22      1.0000 0.17050  0.32780  0.30610  Biso   1.000  H
  N6       1.0000 0.18770  0.38980  0.61920  Biso   1.000  N
  H23      1.0000 0.20220  0.35400  0.75760  Biso   1.000  H
  H24      1.0000 0.26170  0.44120  0.64390  Biso   1.000  H
  C7       1.0000 0.31670  0.78950  0.04590  Biso   1.000  C
  H25      1.0000 0.39750  0.73480  0.07550  Biso   1.000  H
  H26      1.0000 0.32950  0.82780  0.19390  Biso   1.000  H
  N7       1.0000 0.31230  0.88980  0.88080  Biso   1.000  N
  H27      1.0000 0.29780  0.85400  0.74240  Biso   1.000  H
  H28      1.0000 0.23830  0.94120  0.85610  Biso   1.000  H
  C8       1.0000 0.81670  0.28950  0.04590  Biso   1.000  C
  H29      1.0000 0.89750  0.23480  0.07550  Biso   1.000  H
  H30      1.0000 0.82950  0.32780  0.19390  Biso   1.000  H
  N8       1.0000 0.81230  0.38980  0.88080  Biso   1.000  N
  H31      1.0000 0.79780  0.35400  0.74240  Biso   1.000  H
  H32      1.0000 0.73830  0.44120  0.85610  Biso   1.000  H
  Ag1      1.0000 0.50000  0.00000  0.50000  Biso   1.000  Ag
  Ag2      1.0000 0.00000  0.50000  0.50000  Biso   1.000  Ag
  Ag3      1.0000 0.50000  0.00000  0.00000  Biso   1.000  Ag
  Ag4      1.0000 0.00000  0.50000  0.00000  Biso   1.000  Ag
