data_image0
_cell_length_a       20.862
_cell_length_b       19.682
_cell_length_c       6.089
_cell_angle_alpha    90
_cell_angle_beta     114.271
_cell_angle_gamma    90

_symmetry_space_group_name_H-M    "P 1"
_symmetry_int_tables_number       1

loop_
  _symmetry_equiv_pos_as_xyz
  'x, y, z'

loop_
  _atom_site_label
  _atom_site_occupancy
  _atom_site_fract_x
  _atom_site_fract_y
  _atom_site_fract_z
  _atom_site_thermal_displace_type
  _atom_site_B_iso_or_equiv
  _atom_site_type_symbol
  N1       1.0000 0.61160  0.04700  0.14100  Biso   1.000  N
  H1       1.0000 0.62630  0.06150  0.29400  Biso   1.000  H
  H2       1.0000 0.64320  0.01760  0.12960  Biso   1.000  H
  N2       1.0000 0.65090  0.20210  0.85400  Biso   1.000  N
  H3       1.0000 0.61670  0.22980  0.85500  Biso   1.000  H
  H4       1.0000 0.63990  0.18750  0.70240  Biso   1.000  H
  N3       1.0000 0.85430  0.19740  0.63500  Biso   1.000  N
  H5       1.0000 0.88850  0.22630  0.64140  Biso   1.000  H
  H6       1.0000 0.86550  0.17980  0.78230  Biso   1.000  H
  N4       1.0000 0.91040  0.05780  0.37900  Biso   1.000  N
  H7       1.0000 0.90480  0.07860  0.24070  Biso   1.000  H
  H8       1.0000 0.87280  0.03090  0.34890  Biso   1.000  H
  C1       1.0000 0.59820  0.10320  0.97300  Biso   1.000  C
  H9       1.0000 0.56210  0.13220  0.98490  Biso   1.000  H
  H10      1.0000 0.58070  0.08560  0.81030  Biso   1.000  H
  C2       1.0000 0.66360  0.14440  0.02500  Biso   1.000  C
  H11      1.0000 0.68090  0.16200  0.18770  Biso   1.000  H
  H12      1.0000 0.69970  0.11520  0.01450  Biso   1.000  H
  C3       1.0000 0.84470  0.14400  0.45900  Biso   1.000  C
  H13      1.0000 0.83470  0.16270  0.30070  Biso   1.000  H
  H14      1.0000 0.80730  0.11320  0.44810  Biso   1.000  H
  C4       1.0000 0.91530  0.10930  0.56400  Biso   1.000  C
  H15      1.0000 0.95300  0.14140  0.58760  Biso   1.000  H
  H16      1.0000 0.92350  0.08790  0.71630  Biso   1.000  H
  N5       1.0000 0.11160  0.54700  0.14100  Biso   1.000  N
  H17      1.0000 0.12630  0.56150  0.29400  Biso   1.000  H
  H18      1.0000 0.14320  0.51760  0.12960  Biso   1.000  H
  N6       1.0000 0.15090  0.70210  0.85400  Biso   1.000  N
  H19      1.0000 0.11670  0.72980  0.85500  Biso   1.000  H
  H20      1.0000 0.13990  0.68750  0.70240  Biso   1.000  H
  N7       1.0000 0.35430  0.69740  0.63500  Biso   1.000  N
  H21      1.0000 0.38850  0.72630  0.64140  Biso   1.000  H
  H22      1.0000 0.36550  0.67980  0.78230  Biso   1.000  H
  N8       1.0000 0.41040  0.55780  0.37900  Biso   1.000  N
  H23      1.0000 0.40480  0.57860  0.24070  Biso   1.000  H
  H24      1.0000 0.37280  0.53090  0.34890  Biso   1.000  H
  C5       1.0000 0.09820  0.60320  0.97300  Biso   1.000  C
  H25      1.0000 0.06210  0.63220  0.98490  Biso   1.000  H
  H26      1.0000 0.08070  0.58560  0.81030  Biso   1.000  H
  C6       1.0000 0.16360  0.64440  0.02500  Biso   1.000  C
  H27      1.0000 0.18090  0.66200  0.18770  Biso   1.000  H
  H28      1.0000 0.19970  0.61520  0.01450  Biso   1.000  H
  C7       1.0000 0.34470  0.64400  0.45900  Biso   1.000  C
  H29      1.0000 0.33470  0.66270  0.30070  Biso   1.000  H
  H30      1.0000 0.30730  0.61320  0.44810  Biso   1.000  H
  C8       1.0000 0.41530  0.60930  0.56400  Biso   1.000  C
  H31      1.0000 0.45300  0.64140  0.58760  Biso   1.000  H
  H32      1.0000 0.42350  0.58790  0.71630  Biso   1.000  H
  N9       1.0000 0.38840  0.04700  0.35900  Biso   1.000  N
  H33      1.0000 0.37370  0.06150  0.20600  Biso   1.000  H
  H34      1.0000 0.35680  0.01760  0.37040  Biso   1.000  H
  N10      1.0000 0.34910  0.20210  0.64600  Biso   1.000  N
  H35      1.0000 0.38330  0.22980  0.64500  Biso   1.000  H
  H36      1.0000 0.36010  0.18750  0.79760  Biso   1.000  H
  N11      1.0000 0.14570  0.19740  0.86500  Biso   1.000  N
  H37      1.0000 0.11150  0.22630  0.85860  Biso   1.000  H
  H38      1.0000 0.13450  0.17980  0.71770  Biso   1.000  H
  N12      1.0000 0.08960  0.05780  0.12100  Biso   1.000  N
  H39      1.0000 0.09520  0.07860  0.25930  Biso   1.000  H
  H40      1.0000 0.12720  0.03090  0.15110  Biso   1.000  H
  C9       1.0000 0.40180  0.10320  0.52700  Biso   1.000  C
  H41      1.0000 0.43790  0.13220  0.51510  Biso   1.000  H
  H42      1.0000 0.41930  0.08560  0.68970  Biso   1.000  H
  C10      1.0000 0.33640  0.14440  0.47500  Biso   1.000  C
  H43      1.0000 0.31910  0.16200  0.31230  Biso   1.000  H
  H44      1.0000 0.30030  0.11520  0.48550  Biso   1.000  H
  C11      1.0000 0.15530  0.14400  0.04100  Biso   1.000  C
  H45      1.0000 0.16530  0.16270  0.19930  Biso   1.000  H
  H46      1.0000 0.19270  0.11320  0.05190  Biso   1.000  H
  C12      1.0000 0.08470  0.10930  0.93600  Biso   1.000  C
  H47      1.0000 0.04700  0.14140  0.91240  Biso   1.000  H
  H48      1.0000 0.07650  0.08790  0.78370  Biso   1.000  H
  N13      1.0000 0.88840  0.54700  0.35900  Biso   1.000  N
  H49      1.0000 0.87370  0.56150  0.20600  Biso   1.000  H
  H50      1.0000 0.85680  0.51760  0.37040  Biso   1.000  H
  N14      1.0000 0.84910  0.70210  0.64600  Biso   1.000  N
  H51      1.0000 0.88330  0.72980  0.64500  Biso   1.000  H
  H52      1.0000 0.86010  0.68750  0.79760  Biso   1.000  H
  N15      1.0000 0.64570  0.69740  0.86500  Biso   1.000  N
  H53      1.0000 0.61150  0.72630  0.85860  Biso   1.000  H
  H54      1.0000 0.63450  0.67980  0.71770  Biso   1.000  H
  N16      1.0000 0.58960  0.55780  0.12100  Biso   1.000  N
  H55      1.0000 0.59520  0.57860  0.25930  Biso   1.000  H
  H56      1.0000 0.62720  0.53090  0.15110  Biso   1.000  H
  C13      1.0000 0.90180  0.60320  0.52700  Biso   1.000  C
  H57      1.0000 0.93790  0.63220  0.51510  Biso   1.000  H
  H58      1.0000 0.91930  0.58560  0.68970  Biso   1.000  H
  C14      1.0000 0.83640  0.64440  0.47500  Biso   1.000  C
  H59      1.0000 0.81910  0.66200  0.31230  Biso   1.000  H
  H60      1.0000 0.80030  0.61520  0.48550  Biso   1.000  H
  C15      1.0000 0.65530  0.64400  0.04100  Biso   1.000  C
  H61      1.0000 0.66530  0.66270  0.19930  Biso   1.000  H
  H62      1.0000 0.69270  0.61320  0.05190  Biso   1.000  H
  C16      1.0000 0.58470  0.60930  0.93600  Biso   1.000  C
  H63      1.0000 0.54700  0.64140  0.91240  Biso   1.000  H
  H64      1.0000 0.57650  0.58790  0.78370  Biso   1.000  H
  N17      1.0000 0.38840  0.95300  0.85900  Biso   1.000  N
  H65      1.0000 0.37370  0.93850  0.70600  Biso   1.000  H
  H66      1.0000 0.35680  0.98240  0.87040  Biso   1.000  H
  N18      1.0000 0.34910  0.79790  0.14600  Biso   1.000  N
  H67      1.0000 0.38330  0.77020  0.14500  Biso   1.000  H
  H68      1.0000 0.36010  0.81250  0.29760  Biso   1.000  H
  N19      1.0000 0.14570  0.80260  0.36500  Biso   1.000  N
  H69      1.0000 0.11150  0.77370  0.35860  Biso   1.000  H
  H70      1.0000 0.13450  0.82020  0.21770  Biso   1.000  H
  N20      1.0000 0.08960  0.94220  0.62100  Biso   1.000  N
  H71      1.0000 0.09520  0.92140  0.75930  Biso   1.000  H
  H72      1.0000 0.12720  0.96910  0.65110  Biso   1.000  H
  C17      1.0000 0.40180  0.89680  0.02700  Biso   1.000  C
  H73      1.0000 0.43790  0.86780  0.01510  Biso   1.000  H
  H74      1.0000 0.41930  0.91440  0.18970  Biso   1.000  H
  C18      1.0000 0.33640  0.85560  0.97500  Biso   1.000  C
  H75      1.0000 0.31910  0.83800  0.81230  Biso   1.000  H
  H76      1.0000 0.30030  0.88480  0.98550  Biso   1.000  H
  C19      1.0000 0.15530  0.85600  0.54100  Biso   1.000  C
  H77      1.0000 0.16530  0.83730  0.69930  Biso   1.000  H
  H78      1.0000 0.19270  0.88680  0.55190  Biso   1.000  H
  C20      1.0000 0.08470  0.89070  0.43600  Biso   1.000  C
  H79      1.0000 0.04700  0.85860  0.41240  Biso   1.000  H
  H80      1.0000 0.07650  0.91210  0.28370  Biso   1.000  H
  N21      1.0000 0.88840  0.45300  0.85900  Biso   1.000  N
  H81      1.0000 0.87370  0.43850  0.70600  Biso   1.000  H
  H82      1.0000 0.85680  0.48240  0.87040  Biso   1.000  H
  N22      1.0000 0.84910  0.29790  0.14600  Biso   1.000  N
  H83      1.0000 0.88330  0.27020  0.14500  Biso   1.000  H
  H84      1.0000 0.86010  0.31250  0.29760  Biso   1.000  H
  N23      1.0000 0.64570  0.30260  0.36500  Biso   1.000  N
  H85      1.0000 0.61150  0.27370  0.35860  Biso   1.000  H
  H86      1.0000 0.63450  0.32020  0.21770  Biso   1.000  H
  N24      1.0000 0.58960  0.44220  0.62100  Biso   1.000  N
  H87      1.0000 0.59520  0.42140  0.75930  Biso   1.000  H
  H88      1.0000 0.62720  0.46910  0.65110  Biso   1.000  H
  C21      1.0000 0.90180  0.39680  0.02700  Biso   1.000  C
  H89      1.0000 0.93790  0.36780  0.01510  Biso   1.000  H
  H90      1.0000 0.91930  0.41440  0.18970  Biso   1.000  H
  C22      1.0000 0.83640  0.35560  0.97500  Biso   1.000  C
  H91      1.0000 0.81910  0.33800  0.81230  Biso   1.000  H
  H92      1.0000 0.80030  0.38480  0.98550  Biso   1.000  H
  C23      1.0000 0.65530  0.35600  0.54100  Biso   1.000  C
  H93      1.0000 0.66530  0.33730  0.69930  Biso   1.000  H
  H94      1.0000 0.69270  0.38680  0.55190  Biso   1.000  H
  C24      1.0000 0.58470  0.39070  0.43600  Biso   1.000  C
  H95      1.0000 0.54700  0.35860  0.41240  Biso   1.000  H
  H96      1.0000 0.57650  0.41210  0.28370  Biso   1.000  H
  N25      1.0000 0.61160  0.95300  0.64100  Biso   1.000  N
  H97      1.0000 0.62630  0.93850  0.79400  Biso   1.000  H
  H98      1.0000 0.64320  0.98240  0.62960  Biso   1.000  H
  N26      1.0000 0.65090  0.79790  0.35400  Biso   1.000  N
  H99      1.0000 0.61670  0.77020  0.35500  Biso   1.000  H
  H100     1.0000 0.63990  0.81250  0.20240  Biso   1.000  H
  N27      1.0000 0.85430  0.80260  0.13500  Biso   1.000  N
  H101     1.0000 0.88850  0.77370  0.14140  Biso   1.000  H
  H102     1.0000 0.86550  0.82020  0.28230  Biso   1.000  H
  N28      1.0000 0.91040  0.94220  0.87900  Biso   1.000  N
  H103     1.0000 0.90480  0.92140  0.74070  Biso   1.000  H
  H104     1.0000 0.87280  0.96910  0.84890  Biso   1.000  H
  C25      1.0000 0.59820  0.89680  0.47300  Biso   1.000  C
  H105     1.0000 0.56210  0.86780  0.48490  Biso   1.000  H
  H106     1.0000 0.58070  0.91440  0.31030  Biso   1.000  H
  C26      1.0000 0.66360  0.85560  0.52500  Biso   1.000  C
  H107     1.0000 0.68090  0.83800  0.68770  Biso   1.000  H
  H108     1.0000 0.69970  0.88480  0.51450  Biso   1.000  H
  C27      1.0000 0.84470  0.85600  0.95900  Biso   1.000  C
  H109     1.0000 0.83470  0.83730  0.80070  Biso   1.000  H
  H110     1.0000 0.80730  0.88680  0.94810  Biso   1.000  H
  C28      1.0000 0.91530  0.89070  0.06400  Biso   1.000  C
  H111     1.0000 0.95300  0.85860  0.08760  Biso   1.000  H
  H112     1.0000 0.92350  0.91210  0.21630  Biso   1.000  H
  N29      1.0000 0.11160  0.45300  0.64100  Biso   1.000  N
  H113     1.0000 0.12630  0.43850  0.79400  Biso   1.000  H
  H114     1.0000 0.14320  0.48240  0.62960  Biso   1.000  H
  N30      1.0000 0.15090  0.29790  0.35400  Biso   1.000  N
  H115     1.0000 0.11670  0.27020  0.35500  Biso   1.000  H
  H116     1.0000 0.13990  0.31250  0.20240  Biso   1.000  H
  N31      1.0000 0.35430  0.30260  0.13500  Biso   1.000  N
  H117     1.0000 0.38850  0.27370  0.14140  Biso   1.000  H
  H118     1.0000 0.36550  0.32020  0.28230  Biso   1.000  H
  N32      1.0000 0.41040  0.44220  0.87900  Biso   1.000  N
  H119     1.0000 0.40480  0.42140  0.74070  Biso   1.000  H
  H120     1.0000 0.37280  0.46910  0.84890  Biso   1.000  H
  C29      1.0000 0.09820  0.39680  0.47300  Biso   1.000  C
  H121     1.0000 0.06210  0.36780  0.48490  Biso   1.000  H
  H122     1.0000 0.08070  0.41440  0.31030  Biso   1.000  H
  C30      1.0000 0.16360  0.35560  0.52500  Biso   1.000  C
  H123     1.0000 0.18090  0.33800  0.68770  Biso   1.000  H
  H124     1.0000 0.19970  0.38480  0.51450  Biso   1.000  H
  C31      1.0000 0.34470  0.35600  0.95900  Biso   1.000  C
  H125     1.0000 0.33470  0.33730  0.80070  Biso   1.000  H
  H126     1.0000 0.30730  0.38680  0.94810  Biso   1.000  H
  C32      1.0000 0.41530  0.39070  0.06400  Biso   1.000  C
  H127     1.0000 0.45300  0.35860  0.08760  Biso   1.000  H
  H128     1.0000 0.42350  0.41210  0.21630  Biso   1.000  H
  Ag1      1.0000 0.50000  0.00000  0.00000  Biso   1.000  Ag
  Ag2      1.0000 0.00000  0.50000  0.00000  Biso   1.000  Ag
  Ag3      1.0000 0.50000  0.00000  0.50000  Biso   1.000  Ag
  Ag4      1.0000 0.00000  0.50000  0.50000  Biso   1.000  Ag
  Ag5      1.0000 0.75000  0.25000  0.00000  Biso   1.000  Ag
  Ag6      1.0000 0.25000  0.25000  0.50000  Biso   1.000  Ag
  Ag7      1.0000 0.25000  0.75000  0.00000  Biso   1.000  Ag
  Ag8      1.0000 0.75000  0.75000  0.50000  Biso   1.000  Ag
  Ag9      1.0000 0.75000  0.25000  0.50000  Biso   1.000  Ag
  Ag10     1.0000 0.25000  0.25000  0.00000  Biso   1.000  Ag
  Ag11     1.0000 0.25000  0.75000  0.50000  Biso   1.000  Ag
  Ag12     1.0000 0.75000  0.75000  0.00000  Biso   1.000  Ag
  Ag13     1.0000 0.00000  0.00000  0.50000  Biso   1.000  Ag
  Ag14     1.0000 0.50000  0.50000  0.50000  Biso   1.000  Ag
  Ag15     1.0000 0.00000  0.00000  0.00000  Biso   1.000  Ag
  Ag16     1.0000 0.50000  0.50000  0.00000  Biso   1.000  Ag
