data_image0
_cell_length_a       10.2875
_cell_length_b       10.6125
_cell_length_c       6.24
_cell_angle_alpha    90
_cell_angle_beta     114.688
_cell_angle_gamma    90

_symmetry_space_group_name_H-M    "P 1"
_symmetry_int_tables_number       1

loop_
  _symmetry_equiv_pos_as_xyz
  'x, y, z'

loop_
  _atom_site_label
  _atom_site_occupancy
  _atom_site_fract_x
  _atom_site_fract_y
  _atom_site_fract_z
  _atom_site_thermal_displace_type
  _atom_site_B_iso_or_equiv
  _atom_site_type_symbol
  C1       1.0000 0.31740  0.21090  0.54520  Biso   1.000  C
  H1       1.0000 0.40010  0.26610  0.57030  Biso   1.000  H
  H2       1.0000 0.33240  0.17370  0.69920  Biso   1.000  H
  N1       1.0000 0.31110  0.10930  0.38060  Biso   1.000  N
  H3       1.0000 0.29540  0.14410  0.23680  Biso   1.000  H
  H4       1.0000 0.23490  0.05750  0.35920  Biso   1.000  H
  C2       1.0000 0.81740  0.71090  0.54520  Biso   1.000  C
  H5       1.0000 0.90010  0.76610  0.57030  Biso   1.000  H
  H6       1.0000 0.83240  0.67370  0.69920  Biso   1.000  H
  N2       1.0000 0.81110  0.60930  0.38060  Biso   1.000  N
  H7       1.0000 0.79540  0.64410  0.23680  Biso   1.000  H
  H8       1.0000 0.73490  0.55750  0.35920  Biso   1.000  H
  C3       1.0000 0.68260  0.21090  0.95480  Biso   1.000  C
  H9       1.0000 0.59990  0.26610  0.92970  Biso   1.000  H
  H10      1.0000 0.66760  0.17370  0.80080  Biso   1.000  H
  N3       1.0000 0.68890  0.10930  0.11940  Biso   1.000  N
  H11      1.0000 0.70460  0.14410  0.26320  Biso   1.000  H
  H12      1.0000 0.76510  0.05750  0.14080  Biso   1.000  H
  C4       1.0000 0.18260  0.71090  0.95480  Biso   1.000  C
  H13      1.0000 0.09990  0.76610  0.92970  Biso   1.000  H
  H14      1.0000 0.16760  0.67370  0.80080  Biso   1.000  H
  N4       1.0000 0.18890  0.60930  0.11940  Biso   1.000  N
  H15      1.0000 0.20460  0.64410  0.26320  Biso   1.000  H
  H16      1.0000 0.26510  0.55750  0.14080  Biso   1.000  H
  C5       1.0000 0.68260  0.78910  0.45480  Biso   1.000  C
  H17      1.0000 0.59990  0.73390  0.42970  Biso   1.000  H
  H18      1.0000 0.66760  0.82630  0.30080  Biso   1.000  H
  N5       1.0000 0.68890  0.89070  0.61940  Biso   1.000  N
  H19      1.0000 0.70460  0.85590  0.76320  Biso   1.000  H
  H20      1.0000 0.76510  0.94250  0.64080  Biso   1.000  H
  C6       1.0000 0.18260  0.28910  0.45480  Biso   1.000  C
  H21      1.0000 0.09990  0.23390  0.42970  Biso   1.000  H
  H22      1.0000 0.16760  0.32630  0.30080  Biso   1.000  H
  N6       1.0000 0.18890  0.39070  0.61940  Biso   1.000  N
  H23      1.0000 0.20460  0.35590  0.76320  Biso   1.000  H
  H24      1.0000 0.26510  0.44250  0.64080  Biso   1.000  H
  C7       1.0000 0.31740  0.78910  0.04520  Biso   1.000  C
  H25      1.0000 0.40010  0.73390  0.07030  Biso   1.000  H
  H26      1.0000 0.33240  0.82630  0.19920  Biso   1.000  H
  N7       1.0000 0.31110  0.89070  0.88060  Biso   1.000  N
  H27      1.0000 0.29540  0.85590  0.73680  Biso   1.000  H
  H28      1.0000 0.23490  0.94250  0.85920  Biso   1.000  H
  C8       1.0000 0.81740  0.28910  0.04520  Biso   1.000  C
  H29      1.0000 0.90010  0.23390  0.07030  Biso   1.000  H
  H30      1.0000 0.83240  0.32630  0.19920  Biso   1.000  H
  N8       1.0000 0.81110  0.39070  0.88060  Biso   1.000  N
  H31      1.0000 0.79540  0.35590  0.73680  Biso   1.000  H
  H32      1.0000 0.73490  0.44250  0.85920  Biso   1.000  H
  Ag1      1.0000 0.50000  0.00000  0.50000  Biso   1.000  Ag
  Ag2      1.0000 0.00000  0.50000  0.50000  Biso   1.000  Ag
  Ag3      1.0000 0.50000  0.00000  0.00000  Biso   1.000  Ag
  Ag4      1.0000 0.00000  0.50000  0.00000  Biso   1.000  Ag
