data_image0
_cell_length_a       10.4869
_cell_length_b       10.4798
_cell_length_c       6.3279
_cell_angle_alpha    90
_cell_angle_beta     115.431
_cell_angle_gamma    90

_symmetry_space_group_name_H-M    "P 1"
_symmetry_int_tables_number       1

loop_
  _symmetry_equiv_pos_as_xyz
  'x, y, z'

loop_
  _atom_site_label
  _atom_site_occupancy
  _atom_site_fract_x
  _atom_site_fract_y
  _atom_site_fract_z
  _atom_site_thermal_displace_type
  _atom_site_B_iso_or_equiv
  _atom_site_type_symbol
  C1       1.0000 0.31540  0.20950  0.54640  Biso   1.000  C
  H1       1.0000 0.39700  0.26390  0.58370  Biso   1.000  H
  H2       1.0000 0.32500  0.16880  0.69020  Biso   1.000  H
  N1       1.0000 0.31430  0.11120  0.38210  Biso   1.000  N
  H3       1.0000 0.30120  0.14890  0.24650  Biso   1.000  H
  H4       1.0000 0.24040  0.05900  0.35230  Biso   1.000  H
  C2       1.0000 0.81540  0.70950  0.54640  Biso   1.000  C
  H5       1.0000 0.89700  0.76390  0.58370  Biso   1.000  H
  H6       1.0000 0.82500  0.66880  0.69020  Biso   1.000  H
  N2       1.0000 0.81430  0.61120  0.38210  Biso   1.000  N
  H7       1.0000 0.80120  0.64890  0.24650  Biso   1.000  H
  H8       1.0000 0.74040  0.55900  0.35230  Biso   1.000  H
  C3       1.0000 0.68460  0.20950  0.95360  Biso   1.000  C
  H9       1.0000 0.60300  0.26390  0.91630  Biso   1.000  H
  H10      1.0000 0.67500  0.16880  0.80980  Biso   1.000  H
  N3       1.0000 0.68570  0.11120  0.11790  Biso   1.000  N
  H11      1.0000 0.69880  0.14890  0.25350  Biso   1.000  H
  H12      1.0000 0.75960  0.05900  0.14770  Biso   1.000  H
  C4       1.0000 0.18460  0.70950  0.95360  Biso   1.000  C
  H13      1.0000 0.10300  0.76390  0.91630  Biso   1.000  H
  H14      1.0000 0.17500  0.66880  0.80980  Biso   1.000  H
  N4       1.0000 0.18570  0.61120  0.11790  Biso   1.000  N
  H15      1.0000 0.19880  0.64890  0.25350  Biso   1.000  H
  H16      1.0000 0.25960  0.55900  0.14770  Biso   1.000  H
  C5       1.0000 0.68460  0.79050  0.45360  Biso   1.000  C
  H17      1.0000 0.60300  0.73610  0.41630  Biso   1.000  H
  H18      1.0000 0.67500  0.83120  0.30980  Biso   1.000  H
  N5       1.0000 0.68570  0.88880  0.61790  Biso   1.000  N
  H19      1.0000 0.69880  0.85110  0.75350  Biso   1.000  H
  H20      1.0000 0.75960  0.94100  0.64770  Biso   1.000  H
  C6       1.0000 0.18460  0.29050  0.45360  Biso   1.000  C
  H21      1.0000 0.10300  0.23610  0.41630  Biso   1.000  H
  H22      1.0000 0.17500  0.33120  0.30980  Biso   1.000  H
  N6       1.0000 0.18570  0.38880  0.61790  Biso   1.000  N
  H23      1.0000 0.19880  0.35110  0.75350  Biso   1.000  H
  H24      1.0000 0.25960  0.44100  0.64770  Biso   1.000  H
  C7       1.0000 0.31540  0.79050  0.04640  Biso   1.000  C
  H25      1.0000 0.39700  0.73610  0.08370  Biso   1.000  H
  H26      1.0000 0.32500  0.83120  0.19020  Biso   1.000  H
  N7       1.0000 0.31430  0.88880  0.88210  Biso   1.000  N
  H27      1.0000 0.30120  0.85110  0.74650  Biso   1.000  H
  H28      1.0000 0.24040  0.94100  0.85230  Biso   1.000  H
  C8       1.0000 0.81540  0.29050  0.04640  Biso   1.000  C
  H29      1.0000 0.89700  0.23610  0.08370  Biso   1.000  H
  H30      1.0000 0.82500  0.33120  0.19020  Biso   1.000  H
  N8       1.0000 0.81430  0.38880  0.88210  Biso   1.000  N
  H31      1.0000 0.80120  0.35110  0.74650  Biso   1.000  H
  H32      1.0000 0.74040  0.44100  0.85230  Biso   1.000  H
  Ag1      1.0000 0.50000  0.00000  0.50000  Biso   1.000  Ag
  Ag2      1.0000 0.00000  0.50000  0.50000  Biso   1.000  Ag
  Ag3      1.0000 0.50000  0.00000  0.00000  Biso   1.000  Ag
  Ag4      1.0000 0.00000  0.50000  0.00000  Biso   1.000  Ag
