data_image0
_cell_length_a       20.264
_cell_length_b       19.64
_cell_length_c       5.9757
_cell_angle_alpha    90
_cell_angle_beta     113.84
_cell_angle_gamma    90

_symmetry_space_group_name_H-M    "P 1"
_symmetry_int_tables_number       1

loop_
  _symmetry_equiv_pos_as_xyz
  'x, y, z'

loop_
  _atom_site_label
  _atom_site_occupancy
  _atom_site_fract_x
  _atom_site_fract_y
  _atom_site_fract_z
  _atom_site_thermal_displace_type
  _atom_site_B_iso_or_equiv
  _atom_site_type_symbol
  N1       1.0000 0.60330  0.04410  0.13400  Biso   1.000  N
  H1       1.0000 0.61700  0.05880  0.28900  Biso   1.000  H
  H2       1.0000 0.63660  0.01510  0.12560  Biso   1.000  H
  N2       1.0000 0.64000  0.20910  0.87900  Biso   1.000  N
  H3       1.0000 0.61000  0.23920  0.90260  Biso   1.000  H
  H4       1.0000 0.62220  0.19650  0.72110  Biso   1.000  H
  N3       1.0000 0.85180  0.19980  0.62400  Biso   1.000  N
  H5       1.0000 0.88590  0.22750  0.61310  Biso   1.000  H
  H6       1.0000 0.86590  0.18580  0.77960  Biso   1.000  H
  N4       1.0000 0.90150  0.05160  0.37690  Biso   1.000  N
  H7       1.0000 0.89020  0.06830  0.22560  Biso   1.000  H
  H8       1.0000 0.86600  0.02330  0.37280  Biso   1.000  H
  C1       1.0000 0.59020  0.10050  0.96300  Biso   1.000  C
  H9       1.0000 0.54720  0.12480  0.95040  Biso   1.000  H
  H10      1.0000 0.58200  0.08280  0.80250  Biso   1.000  H
  C2       1.0000 0.65320  0.14900  0.04500  Biso   1.000  C
  H11      1.0000 0.66280  0.16480  0.20900  Biso   1.000  H
  H12      1.0000 0.69570  0.12500  0.05090  Biso   1.000  H
  C3       1.0000 0.83830  0.14230  0.45800  Biso   1.000  C
  H13      1.0000 0.82400  0.15720  0.29020  Biso   1.000  H
  H14      1.0000 0.80150  0.11250  0.46800  Biso   1.000  H
  C4       1.0000 0.91100  0.10790  0.55400  Biso   1.000  C
  H15      1.0000 0.94830  0.13920  0.55620  Biso   1.000  H
  H16      1.0000 0.92340  0.09040  0.71750  Biso   1.000  H
  N5       1.0000 0.10330  0.54410  0.13400  Biso   1.000  N
  H17      1.0000 0.11700  0.55880  0.28900  Biso   1.000  H
  H18      1.0000 0.13660  0.51510  0.12560  Biso   1.000  H
  N6       1.0000 0.14000  0.70910  0.87900  Biso   1.000  N
  H19      1.0000 0.11000  0.73920  0.90260  Biso   1.000  H
  H20      1.0000 0.12220  0.69650  0.72110  Biso   1.000  H
  N7       1.0000 0.35180  0.69980  0.62400  Biso   1.000  N
  H21      1.0000 0.38590  0.72750  0.61310  Biso   1.000  H
  H22      1.0000 0.36590  0.68580  0.77960  Biso   1.000  H
  N8       1.0000 0.40150  0.55160  0.37690  Biso   1.000  N
  H23      1.0000 0.39020  0.56830  0.22560  Biso   1.000  H
  H24      1.0000 0.36600  0.52330  0.37280  Biso   1.000  H
  C5       1.0000 0.09020  0.60050  0.96300  Biso   1.000  C
  H25      1.0000 0.04720  0.62480  0.95040  Biso   1.000  H
  H26      1.0000 0.08200  0.58280  0.80250  Biso   1.000  H
  C6       1.0000 0.15320  0.64900  0.04500  Biso   1.000  C
  H27      1.0000 0.16280  0.66480  0.20900  Biso   1.000  H
  H28      1.0000 0.19570  0.62500  0.05090  Biso   1.000  H
  C7       1.0000 0.33830  0.64230  0.45800  Biso   1.000  C
  H29      1.0000 0.32400  0.65720  0.29020  Biso   1.000  H
  H30      1.0000 0.30150  0.61250  0.46800  Biso   1.000  H
  C8       1.0000 0.41100  0.60790  0.55400  Biso   1.000  C
  H31      1.0000 0.44830  0.63920  0.55620  Biso   1.000  H
  H32      1.0000 0.42340  0.59040  0.71750  Biso   1.000  H
  N9       1.0000 0.39670  0.04410  0.36600  Biso   1.000  N
  H33      1.0000 0.38300  0.05880  0.21100  Biso   1.000  H
  H34      1.0000 0.36340  0.01510  0.37440  Biso   1.000  H
  N10      1.0000 0.36000  0.20910  0.62100  Biso   1.000  N
  H35      1.0000 0.39000  0.23920  0.59740  Biso   1.000  H
  H36      1.0000 0.37780  0.19650  0.77890  Biso   1.000  H
  N11      1.0000 0.14820  0.19980  0.87600  Biso   1.000  N
  H37      1.0000 0.11410  0.22750  0.88690  Biso   1.000  H
  H38      1.0000 0.13410  0.18580  0.72040  Biso   1.000  H
  N12      1.0000 0.09850  0.05160  0.12310  Biso   1.000  N
  H39      1.0000 0.10980  0.06830  0.27440  Biso   1.000  H
  H40      1.0000 0.13400  0.02330  0.12720  Biso   1.000  H
  C9       1.0000 0.40980  0.10050  0.53700  Biso   1.000  C
  H41      1.0000 0.45280  0.12480  0.54960  Biso   1.000  H
  H42      1.0000 0.41800  0.08280  0.69750  Biso   1.000  H
  C10      1.0000 0.34680  0.14900  0.45500  Biso   1.000  C
  H43      1.0000 0.33720  0.16480  0.29100  Biso   1.000  H
  H44      1.0000 0.30430  0.12500  0.44910  Biso   1.000  H
  C11      1.0000 0.16170  0.14230  0.04200  Biso   1.000  C
  H45      1.0000 0.17600  0.15720  0.20980  Biso   1.000  H
  H46      1.0000 0.19850  0.11250  0.03200  Biso   1.000  H
  C12      1.0000 0.08900  0.10790  0.94600  Biso   1.000  C
  H47      1.0000 0.05170  0.13920  0.94380  Biso   1.000  H
  H48      1.0000 0.07660  0.09040  0.78250  Biso   1.000  H
  N13      1.0000 0.89670  0.54410  0.36600  Biso   1.000  N
  H49      1.0000 0.88300  0.55880  0.21100  Biso   1.000  H
  H50      1.0000 0.86340  0.51510  0.37440  Biso   1.000  H
  N14      1.0000 0.86000  0.70910  0.62100  Biso   1.000  N
  H51      1.0000 0.89000  0.73920  0.59740  Biso   1.000  H
  H52      1.0000 0.87780  0.69650  0.77890  Biso   1.000  H
  N15      1.0000 0.64820  0.69980  0.87600  Biso   1.000  N
  H53      1.0000 0.61410  0.72750  0.88690  Biso   1.000  H
  H54      1.0000 0.63410  0.68580  0.72040  Biso   1.000  H
  N16      1.0000 0.59850  0.55160  0.12310  Biso   1.000  N
  H55      1.0000 0.60980  0.56830  0.27440  Biso   1.000  H
  H56      1.0000 0.63400  0.52330  0.12720  Biso   1.000  H
  C13      1.0000 0.90980  0.60050  0.53700  Biso   1.000  C
  H57      1.0000 0.95280  0.62480  0.54960  Biso   1.000  H
  H58      1.0000 0.91800  0.58280  0.69750  Biso   1.000  H
  C14      1.0000 0.84680  0.64900  0.45500  Biso   1.000  C
  H59      1.0000 0.83720  0.66480  0.29100  Biso   1.000  H
  H60      1.0000 0.80430  0.62500  0.44910  Biso   1.000  H
  C15      1.0000 0.66170  0.64230  0.04200  Biso   1.000  C
  H61      1.0000 0.67600  0.65720  0.20980  Biso   1.000  H
  H62      1.0000 0.69850  0.61250  0.03200  Biso   1.000  H
  C16      1.0000 0.58900  0.60790  0.94600  Biso   1.000  C
  H63      1.0000 0.55170  0.63920  0.94380  Biso   1.000  H
  H64      1.0000 0.57660  0.59040  0.78250  Biso   1.000  H
  N17      1.0000 0.39670  0.95590  0.86600  Biso   1.000  N
  H65      1.0000 0.38300  0.94120  0.71100  Biso   1.000  H
  H66      1.0000 0.36340  0.98490  0.87440  Biso   1.000  H
  N18      1.0000 0.36000  0.79090  0.12100  Biso   1.000  N
  H67      1.0000 0.39000  0.76080  0.09740  Biso   1.000  H
  H68      1.0000 0.37780  0.80350  0.27890  Biso   1.000  H
  N19      1.0000 0.14820  0.80020  0.37600  Biso   1.000  N
  H69      1.0000 0.11410  0.77250  0.38690  Biso   1.000  H
  H70      1.0000 0.13410  0.81420  0.22040  Biso   1.000  H
  N20      1.0000 0.09850  0.94840  0.62310  Biso   1.000  N
  H71      1.0000 0.10980  0.93170  0.77440  Biso   1.000  H
  H72      1.0000 0.13400  0.97670  0.62720  Biso   1.000  H
  C17      1.0000 0.40980  0.89950  0.03700  Biso   1.000  C
  H73      1.0000 0.45280  0.87520  0.04960  Biso   1.000  H
  H74      1.0000 0.41800  0.91720  0.19750  Biso   1.000  H
  C18      1.0000 0.34680  0.85100  0.95500  Biso   1.000  C
  H75      1.0000 0.33720  0.83520  0.79100  Biso   1.000  H
  H76      1.0000 0.30430  0.87500  0.94910  Biso   1.000  H
  C19      1.0000 0.16170  0.85770  0.54200  Biso   1.000  C
  H77      1.0000 0.17600  0.84280  0.70980  Biso   1.000  H
  H78      1.0000 0.19850  0.88750  0.53200  Biso   1.000  H
  C20      1.0000 0.08900  0.89210  0.44600  Biso   1.000  C
  H79      1.0000 0.05170  0.86080  0.44380  Biso   1.000  H
  H80      1.0000 0.07660  0.90960  0.28250  Biso   1.000  H
  N21      1.0000 0.89670  0.45590  0.86600  Biso   1.000  N
  H81      1.0000 0.88300  0.44120  0.71100  Biso   1.000  H
  H82      1.0000 0.86340  0.48490  0.87440  Biso   1.000  H
  N22      1.0000 0.86000  0.29090  0.12100  Biso   1.000  N
  H83      1.0000 0.89000  0.26080  0.09740  Biso   1.000  H
  H84      1.0000 0.87780  0.30350  0.27890  Biso   1.000  H
  N23      1.0000 0.64820  0.30020  0.37600  Biso   1.000  N
  H85      1.0000 0.61410  0.27250  0.38690  Biso   1.000  H
  H86      1.0000 0.63410  0.31420  0.22040  Biso   1.000  H
  N24      1.0000 0.59850  0.44840  0.62310  Biso   1.000  N
  H87      1.0000 0.60980  0.43170  0.77440  Biso   1.000  H
  H88      1.0000 0.63400  0.47670  0.62720  Biso   1.000  H
  C21      1.0000 0.90980  0.39950  0.03700  Biso   1.000  C
  H89      1.0000 0.95280  0.37520  0.04960  Biso   1.000  H
  H90      1.0000 0.91800  0.41720  0.19750  Biso   1.000  H
  C22      1.0000 0.84680  0.35100  0.95500  Biso   1.000  C
  H91      1.0000 0.83720  0.33520  0.79100  Biso   1.000  H
  H92      1.0000 0.80430  0.37500  0.94910  Biso   1.000  H
  C23      1.0000 0.66170  0.35770  0.54200  Biso   1.000  C
  H93      1.0000 0.67600  0.34280  0.70980  Biso   1.000  H
  H94      1.0000 0.69850  0.38750  0.53200  Biso   1.000  H
  C24      1.0000 0.58900  0.39210  0.44600  Biso   1.000  C
  H95      1.0000 0.55170  0.36080  0.44380  Biso   1.000  H
  H96      1.0000 0.57660  0.40960  0.28250  Biso   1.000  H
  N25      1.0000 0.60330  0.95590  0.63400  Biso   1.000  N
  H97      1.0000 0.61700  0.94120  0.78900  Biso   1.000  H
  H98      1.0000 0.63660  0.98490  0.62560  Biso   1.000  H
  N26      1.0000 0.64000  0.79090  0.37900  Biso   1.000  N
  H99      1.0000 0.61000  0.76080  0.40260  Biso   1.000  H
  H100     1.0000 0.62220  0.80350  0.22110  Biso   1.000  H
  N27      1.0000 0.85180  0.80020  0.12400  Biso   1.000  N
  H101     1.0000 0.88590  0.77250  0.11310  Biso   1.000  H
  H102     1.0000 0.86590  0.81420  0.27960  Biso   1.000  H
  N28      1.0000 0.90150  0.94840  0.87690  Biso   1.000  N
  H103     1.0000 0.89020  0.93170  0.72560  Biso   1.000  H
  H104     1.0000 0.86600  0.97670  0.87280  Biso   1.000  H
  C25      1.0000 0.59020  0.89950  0.46300  Biso   1.000  C
  H105     1.0000 0.54720  0.87520  0.45040  Biso   1.000  H
  H106     1.0000 0.58200  0.91720  0.30250  Biso   1.000  H
  C26      1.0000 0.65320  0.85100  0.54500  Biso   1.000  C
  H107     1.0000 0.66280  0.83520  0.70900  Biso   1.000  H
  H108     1.0000 0.69570  0.87500  0.55090  Biso   1.000  H
  C27      1.0000 0.83830  0.85770  0.95800  Biso   1.000  C
  H109     1.0000 0.82400  0.84280  0.79020  Biso   1.000  H
  H110     1.0000 0.80150  0.88750  0.96800  Biso   1.000  H
  C28      1.0000 0.91100  0.89210  0.05400  Biso   1.000  C
  H111     1.0000 0.94830  0.86080  0.05620  Biso   1.000  H
  H112     1.0000 0.92340  0.90960  0.21750  Biso   1.000  H
  N29      1.0000 0.10330  0.45590  0.63400  Biso   1.000  N
  H113     1.0000 0.11700  0.44120  0.78900  Biso   1.000  H
  H114     1.0000 0.13660  0.48490  0.62560  Biso   1.000  H
  N30      1.0000 0.14000  0.29090  0.37900  Biso   1.000  N
  H115     1.0000 0.11000  0.26080  0.40260  Biso   1.000  H
  H116     1.0000 0.12220  0.30350  0.22110  Biso   1.000  H
  N31      1.0000 0.35180  0.30020  0.12400  Biso   1.000  N
  H117     1.0000 0.38590  0.27250  0.11310  Biso   1.000  H
  H118     1.0000 0.36590  0.31420  0.27960  Biso   1.000  H
  N32      1.0000 0.40150  0.44840  0.87690  Biso   1.000  N
  H119     1.0000 0.39020  0.43170  0.72560  Biso   1.000  H
  H120     1.0000 0.36600  0.47670  0.87280  Biso   1.000  H
  C29      1.0000 0.09020  0.39950  0.46300  Biso   1.000  C
  H121     1.0000 0.04720  0.37520  0.45040  Biso   1.000  H
  H122     1.0000 0.08200  0.41720  0.30250  Biso   1.000  H
  C30      1.0000 0.15320  0.35100  0.54500  Biso   1.000  C
  H123     1.0000 0.16280  0.33520  0.70900  Biso   1.000  H
  H124     1.0000 0.19570  0.37500  0.55090  Biso   1.000  H
  C31      1.0000 0.33830  0.35770  0.95800  Biso   1.000  C
  H125     1.0000 0.32400  0.34280  0.79020  Biso   1.000  H
  H126     1.0000 0.30150  0.38750  0.96800  Biso   1.000  H
  C32      1.0000 0.41100  0.39210  0.05400  Biso   1.000  C
  H127     1.0000 0.44830  0.36080  0.05620  Biso   1.000  H
  H128     1.0000 0.42340  0.40960  0.21750  Biso   1.000  H
  Ag1      1.0000 0.50000  0.00000  0.00000  Biso   1.000  Ag
  Ag2      1.0000 0.00000  0.50000  0.00000  Biso   1.000  Ag
  Ag3      1.0000 0.50000  0.00000  0.50000  Biso   1.000  Ag
  Ag4      1.0000 0.00000  0.50000  0.50000  Biso   1.000  Ag
  Ag5      1.0000 0.75000  0.25000  0.00000  Biso   1.000  Ag
  Ag6      1.0000 0.25000  0.25000  0.50000  Biso   1.000  Ag
  Ag7      1.0000 0.25000  0.75000  0.00000  Biso   1.000  Ag
  Ag8      1.0000 0.75000  0.75000  0.50000  Biso   1.000  Ag
  Ag9      1.0000 0.75000  0.25000  0.50000  Biso   1.000  Ag
  Ag10     1.0000 0.25000  0.25000  0.00000  Biso   1.000  Ag
  Ag11     1.0000 0.25000  0.75000  0.50000  Biso   1.000  Ag
  Ag12     1.0000 0.75000  0.75000  0.00000  Biso   1.000  Ag
  Ag13     1.0000 0.00000  0.00000  0.50000  Biso   1.000  Ag
  Ag14     1.0000 0.50000  0.50000  0.50000  Biso   1.000  Ag
  Ag15     1.0000 0.00000  0.00000  0.00000  Biso   1.000  Ag
  Ag16     1.0000 0.50000  0.50000  0.00000  Biso   1.000  Ag
