data_image0
_cell_length_a       10.3612
_cell_length_b       10.5686
_cell_length_c       6.2669
_cell_angle_alpha    90
_cell_angle_beta     114.907
_cell_angle_gamma    90

_symmetry_space_group_name_H-M    "P 1"
_symmetry_int_tables_number       1

loop_
  _symmetry_equiv_pos_as_xyz
  'x, y, z'

loop_
  _atom_site_label
  _atom_site_occupancy
  _atom_site_fract_x
  _atom_site_fract_y
  _atom_site_fract_z
  _atom_site_thermal_displace_type
  _atom_site_B_iso_or_equiv
  _atom_site_type_symbol
  C1       1.0000 0.31670  0.21060  0.54520  Biso   1.000  C
  H1       1.0000 0.39850  0.26560  0.57320  Biso   1.000  H
  H2       1.0000 0.33050  0.17260  0.69590  Biso   1.000  H
  N1       1.0000 0.31190  0.10990  0.38080  Biso   1.000  N
  H3       1.0000 0.29680  0.14530  0.23990  Biso   1.000  H
  H4       1.0000 0.23690  0.05810  0.35730  Biso   1.000  H
  C2       1.0000 0.81670  0.71060  0.54520  Biso   1.000  C
  H5       1.0000 0.89850  0.76560  0.57320  Biso   1.000  H
  H6       1.0000 0.83050  0.67260  0.69590  Biso   1.000  H
  N2       1.0000 0.81190  0.60990  0.38080  Biso   1.000  N
  H7       1.0000 0.79680  0.64530  0.23990  Biso   1.000  H
  H8       1.0000 0.73690  0.55810  0.35730  Biso   1.000  H
  C3       1.0000 0.68330  0.21060  0.95480  Biso   1.000  C
  H9       1.0000 0.60150  0.26560  0.92680  Biso   1.000  H
  H10      1.0000 0.66950  0.17260  0.80410  Biso   1.000  H
  N3       1.0000 0.68810  0.10990  0.11920  Biso   1.000  N
  H11      1.0000 0.70320  0.14530  0.26010  Biso   1.000  H
  H12      1.0000 0.76310  0.05810  0.14270  Biso   1.000  H
  C4       1.0000 0.18330  0.71060  0.95480  Biso   1.000  C
  H13      1.0000 0.10150  0.76560  0.92680  Biso   1.000  H
  H14      1.0000 0.16950  0.67260  0.80410  Biso   1.000  H
  N4       1.0000 0.18810  0.60990  0.11920  Biso   1.000  N
  H15      1.0000 0.20320  0.64530  0.26010  Biso   1.000  H
  H16      1.0000 0.26310  0.55810  0.14270  Biso   1.000  H
  C5       1.0000 0.68330  0.78940  0.45480  Biso   1.000  C
  H17      1.0000 0.60150  0.73440  0.42680  Biso   1.000  H
  H18      1.0000 0.66950  0.82740  0.30410  Biso   1.000  H
  N5       1.0000 0.68810  0.89010  0.61920  Biso   1.000  N
  H19      1.0000 0.70320  0.85470  0.76010  Biso   1.000  H
  H20      1.0000 0.76310  0.94190  0.64270  Biso   1.000  H
  C6       1.0000 0.18330  0.28940  0.45480  Biso   1.000  C
  H21      1.0000 0.10150  0.23440  0.42680  Biso   1.000  H
  H22      1.0000 0.16950  0.32740  0.30410  Biso   1.000  H
  N6       1.0000 0.18810  0.39010  0.61920  Biso   1.000  N
  H23      1.0000 0.20320  0.35470  0.76010  Biso   1.000  H
  H24      1.0000 0.26310  0.44190  0.64270  Biso   1.000  H
  C7       1.0000 0.31670  0.78940  0.04520  Biso   1.000  C
  H25      1.0000 0.39850  0.73440  0.07320  Biso   1.000  H
  H26      1.0000 0.33050  0.82740  0.19590  Biso   1.000  H
  N7       1.0000 0.31190  0.89010  0.88080  Biso   1.000  N
  H27      1.0000 0.29680  0.85470  0.73990  Biso   1.000  H
  H28      1.0000 0.23690  0.94190  0.85730  Biso   1.000  H
  C8       1.0000 0.81670  0.28940  0.04520  Biso   1.000  C
  H29      1.0000 0.89850  0.23440  0.07320  Biso   1.000  H
  H30      1.0000 0.83050  0.32740  0.19590  Biso   1.000  H
  N8       1.0000 0.81190  0.39010  0.88080  Biso   1.000  N
  H31      1.0000 0.79680  0.35470  0.73990  Biso   1.000  H
  H32      1.0000 0.73690  0.44190  0.85730  Biso   1.000  H
  Ag1      1.0000 0.50000  0.00000  0.50000  Biso   1.000  Ag
  Ag2      1.0000 0.00000  0.50000  0.50000  Biso   1.000  Ag
  Ag3      1.0000 0.50000  0.00000  0.00000  Biso   1.000  Ag
  Ag4      1.0000 0.00000  0.50000  0.00000  Biso   1.000  Ag
