data_image0
_cell_length_a       10.3428
_cell_length_b       10.5749
_cell_length_c       6.2597
_cell_angle_alpha    90
_cell_angle_beta     114.852
_cell_angle_gamma    90

_symmetry_space_group_name_H-M    "P 1"
_symmetry_int_tables_number       1

loop_
  _symmetry_equiv_pos_as_xyz
  'x, y, z'

loop_
  _atom_site_label
  _atom_site_occupancy
  _atom_site_fract_x
  _atom_site_fract_y
  _atom_site_fract_z
  _atom_site_thermal_displace_type
  _atom_site_B_iso_or_equiv
  _atom_site_type_symbol
  C1       1.0000 0.31710  0.21070  0.54590  Biso   1.000  C
  H1       1.0000 0.39890  0.26560  0.57340  Biso   1.000  H
  H2       1.0000 0.33080  0.17290  0.69690  Biso   1.000  H
  N1       1.0000 0.31150  0.10980  0.38070  Biso   1.000  N
  H3       1.0000 0.29630  0.14510  0.23960  Biso   1.000  H
  H4       1.0000 0.23640  0.05820  0.35780  Biso   1.000  H
  C2       1.0000 0.81710  0.71070  0.54590  Biso   1.000  C
  H5       1.0000 0.89890  0.76560  0.57340  Biso   1.000  H
  H6       1.0000 0.83080  0.67290  0.69690  Biso   1.000  H
  N2       1.0000 0.81150  0.60980  0.38070  Biso   1.000  N
  H7       1.0000 0.79630  0.64510  0.23960  Biso   1.000  H
  H8       1.0000 0.73640  0.55820  0.35780  Biso   1.000  H
  C3       1.0000 0.68290  0.21070  0.95410  Biso   1.000  C
  H9       1.0000 0.60110  0.26560  0.92660  Biso   1.000  H
  H10      1.0000 0.66920  0.17290  0.80310  Biso   1.000  H
  N3       1.0000 0.68850  0.10980  0.11930  Biso   1.000  N
  H11      1.0000 0.70370  0.14510  0.26040  Biso   1.000  H
  H12      1.0000 0.76360  0.05820  0.14220  Biso   1.000  H
  C4       1.0000 0.18290  0.71070  0.95410  Biso   1.000  C
  H13      1.0000 0.10110  0.76560  0.92660  Biso   1.000  H
  H14      1.0000 0.16920  0.67290  0.80310  Biso   1.000  H
  N4       1.0000 0.18850  0.60980  0.11930  Biso   1.000  N
  H15      1.0000 0.20370  0.64510  0.26040  Biso   1.000  H
  H16      1.0000 0.26360  0.55820  0.14220  Biso   1.000  H
  C5       1.0000 0.68290  0.78930  0.45410  Biso   1.000  C
  H17      1.0000 0.60110  0.73440  0.42660  Biso   1.000  H
  H18      1.0000 0.66920  0.82710  0.30310  Biso   1.000  H
  N5       1.0000 0.68850  0.89020  0.61930  Biso   1.000  N
  H19      1.0000 0.70370  0.85490  0.76040  Biso   1.000  H
  H20      1.0000 0.76360  0.94180  0.64220  Biso   1.000  H
  C6       1.0000 0.18290  0.28930  0.45410  Biso   1.000  C
  H21      1.0000 0.10110  0.23440  0.42660  Biso   1.000  H
  H22      1.0000 0.16920  0.32710  0.30310  Biso   1.000  H
  N6       1.0000 0.18850  0.39020  0.61930  Biso   1.000  N
  H23      1.0000 0.20370  0.35490  0.76040  Biso   1.000  H
  H24      1.0000 0.26360  0.44180  0.64220  Biso   1.000  H
  C7       1.0000 0.31710  0.78930  0.04590  Biso   1.000  C
  H25      1.0000 0.39890  0.73440  0.07340  Biso   1.000  H
  H26      1.0000 0.33080  0.82710  0.19690  Biso   1.000  H
  N7       1.0000 0.31150  0.89020  0.88070  Biso   1.000  N
  H27      1.0000 0.29630  0.85490  0.73960  Biso   1.000  H
  H28      1.0000 0.23640  0.94180  0.85780  Biso   1.000  H
  C8       1.0000 0.81710  0.28930  0.04590  Biso   1.000  C
  H29      1.0000 0.89890  0.23440  0.07340  Biso   1.000  H
  H30      1.0000 0.83080  0.32710  0.19690  Biso   1.000  H
  N8       1.0000 0.81150  0.39020  0.88070  Biso   1.000  N
  H31      1.0000 0.79630  0.35490  0.73960  Biso   1.000  H
  H32      1.0000 0.73640  0.44180  0.85780  Biso   1.000  H
  Ag1      1.0000 0.50000  0.00000  0.50000  Biso   1.000  Ag
  Ag2      1.0000 0.00000  0.50000  0.50000  Biso   1.000  Ag
  Ag3      1.0000 0.50000  0.00000  0.00000  Biso   1.000  Ag
  Ag4      1.0000 0.00000  0.50000  0.00000  Biso   1.000  Ag
