data_image0
_cell_length_a       20.775
_cell_length_b       19.479
_cell_length_c       5.952
_cell_angle_alpha    90
_cell_angle_beta     114.1
_cell_angle_gamma    90

_symmetry_space_group_name_H-M    "P 1"
_symmetry_int_tables_number       1

loop_
  _symmetry_equiv_pos_as_xyz
  'x, y, z'

loop_
  _atom_site_label
  _atom_site_occupancy
  _atom_site_fract_x
  _atom_site_fract_y
  _atom_site_fract_z
  _atom_site_thermal_displace_type
  _atom_site_B_iso_or_equiv
  _atom_site_type_symbol
  N1       1.0000 0.60800  0.04610  0.15300  Biso   1.000  N
  H1       1.0000 0.62070  0.06060  0.30910  Biso   1.000  H
  H2       1.0000 0.64040  0.01650  0.14690  Biso   1.000  H
  N2       1.0000 0.65400  0.20360  0.87900  Biso   1.000  N
  H3       1.0000 0.62090  0.23280  0.88610  Biso   1.000  H
  H4       1.0000 0.63980  0.18920  0.72210  Biso   1.000  H
  N3       1.0000 0.85360  0.19930  0.64100  Biso   1.000  N
  H5       1.0000 0.88760  0.22800  0.64220  Biso   1.000  H
  H6       1.0000 0.86520  0.18260  0.79400  Biso   1.000  H
  N4       1.0000 0.90300  0.05250  0.38300  Biso   1.000  N
  H7       1.0000 0.89050  0.06960  0.23070  Biso   1.000  H
  H8       1.0000 0.86850  0.02370  0.38040  Biso   1.000  H
  C1       1.0000 0.59670  0.10320  0.98400  Biso   1.000  C
  H9       1.0000 0.55990  0.13270  0.99030  Biso   1.000  H
  H10      1.0000 0.58110  0.08570  0.81730  Biso   1.000  H
  C2       1.0000 0.66320  0.14440  0.04700  Biso   1.000  C
  H11      1.0000 0.67900  0.16130  0.21420  Biso   1.000  H
  H12      1.0000 0.69980  0.11470  0.03950  Biso   1.000  H
  C3       1.0000 0.84120  0.14420  0.46300  Biso   1.000  C
  H13      1.0000 0.82910  0.16220  0.29850  Biso   1.000  H
  H14      1.0000 0.80430  0.11350  0.46080  Biso   1.000  H
  C4       1.0000 0.91210  0.10900  0.56100  Biso   1.000  C
  H15      1.0000 0.94890  0.14030  0.56620  Biso   1.000  H
  H16      1.0000 0.92380  0.09110  0.72550  Biso   1.000  H
  N5       1.0000 0.10800  0.54610  0.15300  Biso   1.000  N
  H17      1.0000 0.12070  0.56060  0.30910  Biso   1.000  H
  H18      1.0000 0.14040  0.51650  0.14690  Biso   1.000  H
  N6       1.0000 0.15400  0.70360  0.87900  Biso   1.000  N
  H19      1.0000 0.12090  0.73280  0.88610  Biso   1.000  H
  H20      1.0000 0.13980  0.68920  0.72210  Biso   1.000  H
  N7       1.0000 0.35360  0.69930  0.64100  Biso   1.000  N
  H21      1.0000 0.38760  0.72800  0.64220  Biso   1.000  H
  H22      1.0000 0.36520  0.68260  0.79400  Biso   1.000  H
  N8       1.0000 0.40300  0.55250  0.38300  Biso   1.000  N
  H23      1.0000 0.39050  0.56960  0.23070  Biso   1.000  H
  H24      1.0000 0.36850  0.52370  0.38040  Biso   1.000  H
  C5       1.0000 0.09670  0.60320  0.98400  Biso   1.000  C
  H25      1.0000 0.05990  0.63270  0.99030  Biso   1.000  H
  H26      1.0000 0.08110  0.58570  0.81730  Biso   1.000  H
  C6       1.0000 0.16320  0.64440  0.04700  Biso   1.000  C
  H27      1.0000 0.17900  0.66130  0.21420  Biso   1.000  H
  H28      1.0000 0.19980  0.61470  0.03950  Biso   1.000  H
  C7       1.0000 0.34120  0.64420  0.46300  Biso   1.000  C
  H29      1.0000 0.32910  0.66220  0.29850  Biso   1.000  H
  H30      1.0000 0.30430  0.61350  0.46080  Biso   1.000  H
  C8       1.0000 0.41210  0.60900  0.56100  Biso   1.000  C
  H31      1.0000 0.44890  0.64030  0.56620  Biso   1.000  H
  H32      1.0000 0.42380  0.59110  0.72550  Biso   1.000  H
  N9       1.0000 0.39200  0.04610  0.34700  Biso   1.000  N
  H33      1.0000 0.37930  0.06060  0.19090  Biso   1.000  H
  H34      1.0000 0.35960  0.01650  0.35310  Biso   1.000  H
  N10      1.0000 0.34600  0.20360  0.62100  Biso   1.000  N
  H35      1.0000 0.37910  0.23280  0.61390  Biso   1.000  H
  H36      1.0000 0.36020  0.18920  0.77790  Biso   1.000  H
  N11      1.0000 0.14640  0.19930  0.85900  Biso   1.000  N
  H37      1.0000 0.11240  0.22800  0.85780  Biso   1.000  H
  H38      1.0000 0.13480  0.18260  0.70600  Biso   1.000  H
  N12      1.0000 0.09700  0.05250  0.11700  Biso   1.000  N
  H39      1.0000 0.10950  0.06960  0.26930  Biso   1.000  H
  H40      1.0000 0.13150  0.02370  0.11960  Biso   1.000  H
  C9       1.0000 0.40330  0.10320  0.51600  Biso   1.000  C
  H41      1.0000 0.44010  0.13270  0.50970  Biso   1.000  H
  H42      1.0000 0.41890  0.08570  0.68270  Biso   1.000  H
  C10      1.0000 0.33680  0.14440  0.45300  Biso   1.000  C
  H43      1.0000 0.32100  0.16130  0.28580  Biso   1.000  H
  H44      1.0000 0.30020  0.11470  0.46050  Biso   1.000  H
  C11      1.0000 0.15880  0.14420  0.03700  Biso   1.000  C
  H45      1.0000 0.17090  0.16220  0.20150  Biso   1.000  H
  H46      1.0000 0.19570  0.11350  0.03920  Biso   1.000  H
  C12      1.0000 0.08790  0.10900  0.93900  Biso   1.000  C
  H47      1.0000 0.05110  0.14030  0.93380  Biso   1.000  H
  H48      1.0000 0.07620  0.09110  0.77450  Biso   1.000  H
  N13      1.0000 0.89200  0.54610  0.34700  Biso   1.000  N
  H49      1.0000 0.87930  0.56060  0.19090  Biso   1.000  H
  H50      1.0000 0.85960  0.51650  0.35310  Biso   1.000  H
  N14      1.0000 0.84600  0.70360  0.62100  Biso   1.000  N
  H51      1.0000 0.87910  0.73280  0.61390  Biso   1.000  H
  H52      1.0000 0.86020  0.68920  0.77790  Biso   1.000  H
  N15      1.0000 0.64640  0.69930  0.85900  Biso   1.000  N
  H53      1.0000 0.61240  0.72800  0.85780  Biso   1.000  H
  H54      1.0000 0.63480  0.68260  0.70600  Biso   1.000  H
  N16      1.0000 0.59700  0.55250  0.11700  Biso   1.000  N
  H55      1.0000 0.60950  0.56960  0.26930  Biso   1.000  H
  H56      1.0000 0.63150  0.52370  0.11960  Biso   1.000  H
  C13      1.0000 0.90330  0.60320  0.51600  Biso   1.000  C
  H57      1.0000 0.94010  0.63270  0.50970  Biso   1.000  H
  H58      1.0000 0.91890  0.58570  0.68270  Biso   1.000  H
  C14      1.0000 0.83680  0.64440  0.45300  Biso   1.000  C
  H59      1.0000 0.82100  0.66130  0.28580  Biso   1.000  H
  H60      1.0000 0.80020  0.61470  0.46050  Biso   1.000  H
  C15      1.0000 0.65880  0.64420  0.03700  Biso   1.000  C
  H61      1.0000 0.67090  0.66220  0.20150  Biso   1.000  H
  H62      1.0000 0.69570  0.61350  0.03920  Biso   1.000  H
  C16      1.0000 0.58790  0.60900  0.93900  Biso   1.000  C
  H63      1.0000 0.55110  0.64030  0.93380  Biso   1.000  H
  H64      1.0000 0.57620  0.59110  0.77450  Biso   1.000  H
  N17      1.0000 0.39200  0.95390  0.84700  Biso   1.000  N
  H65      1.0000 0.37930  0.93940  0.69090  Biso   1.000  H
  H66      1.0000 0.35960  0.98350  0.85310  Biso   1.000  H
  N18      1.0000 0.34600  0.79640  0.12100  Biso   1.000  N
  H67      1.0000 0.37910  0.76720  0.11390  Biso   1.000  H
  H68      1.0000 0.36020  0.81080  0.27790  Biso   1.000  H
  N19      1.0000 0.14640  0.80070  0.35900  Biso   1.000  N
  H69      1.0000 0.11240  0.77200  0.35780  Biso   1.000  H
  H70      1.0000 0.13480  0.81740  0.20600  Biso   1.000  H
  N20      1.0000 0.09700  0.94750  0.61700  Biso   1.000  N
  H71      1.0000 0.10950  0.93040  0.76930  Biso   1.000  H
  H72      1.0000 0.13150  0.97630  0.61960  Biso   1.000  H
  C17      1.0000 0.40330  0.89680  0.01600  Biso   1.000  C
  H73      1.0000 0.44010  0.86730  0.00970  Biso   1.000  H
  H74      1.0000 0.41890  0.91430  0.18270  Biso   1.000  H
  C18      1.0000 0.33680  0.85560  0.95300  Biso   1.000  C
  H75      1.0000 0.32100  0.83870  0.78580  Biso   1.000  H
  H76      1.0000 0.30020  0.88530  0.96050  Biso   1.000  H
  C19      1.0000 0.15880  0.85580  0.53700  Biso   1.000  C
  H77      1.0000 0.17090  0.83780  0.70150  Biso   1.000  H
  H78      1.0000 0.19570  0.88650  0.53920  Biso   1.000  H
  C20      1.0000 0.08790  0.89100  0.43900  Biso   1.000  C
  H79      1.0000 0.05110  0.85970  0.43380  Biso   1.000  H
  H80      1.0000 0.07620  0.90890  0.27450  Biso   1.000  H
  N21      1.0000 0.89200  0.45390  0.84700  Biso   1.000  N
  H81      1.0000 0.87930  0.43940  0.69090  Biso   1.000  H
  H82      1.0000 0.85960  0.48350  0.85310  Biso   1.000  H
  N22      1.0000 0.84600  0.29640  0.12100  Biso   1.000  N
  H83      1.0000 0.87910  0.26720  0.11390  Biso   1.000  H
  H84      1.0000 0.86020  0.31080  0.27790  Biso   1.000  H
  N23      1.0000 0.64640  0.30070  0.35900  Biso   1.000  N
  H85      1.0000 0.61240  0.27200  0.35780  Biso   1.000  H
  H86      1.0000 0.63480  0.31740  0.20600  Biso   1.000  H
  N24      1.0000 0.59700  0.44750  0.61700  Biso   1.000  N
  H87      1.0000 0.60950  0.43040  0.76930  Biso   1.000  H
  H88      1.0000 0.63150  0.47630  0.61960  Biso   1.000  H
  C21      1.0000 0.90330  0.39680  0.01600  Biso   1.000  C
  H89      1.0000 0.94010  0.36730  0.00970  Biso   1.000  H
  H90      1.0000 0.91890  0.41430  0.18270  Biso   1.000  H
  C22      1.0000 0.83680  0.35560  0.95300  Biso   1.000  C
  H91      1.0000 0.82100  0.33870  0.78580  Biso   1.000  H
  H92      1.0000 0.80020  0.38530  0.96050  Biso   1.000  H
  C23      1.0000 0.65880  0.35580  0.53700  Biso   1.000  C
  H93      1.0000 0.67090  0.33780  0.70150  Biso   1.000  H
  H94      1.0000 0.69570  0.38650  0.53920  Biso   1.000  H
  C24      1.0000 0.58790  0.39100  0.43900  Biso   1.000  C
  H95      1.0000 0.55110  0.35970  0.43380  Biso   1.000  H
  H96      1.0000 0.57620  0.40890  0.27450  Biso   1.000  H
  N25      1.0000 0.60800  0.95390  0.65300  Biso   1.000  N
  H97      1.0000 0.62070  0.93940  0.80910  Biso   1.000  H
  H98      1.0000 0.64040  0.98350  0.64690  Biso   1.000  H
  N26      1.0000 0.65400  0.79640  0.37900  Biso   1.000  N
  H99      1.0000 0.62090  0.76720  0.38610  Biso   1.000  H
  H100     1.0000 0.63980  0.81080  0.22210  Biso   1.000  H
  N27      1.0000 0.85360  0.80070  0.14100  Biso   1.000  N
  H101     1.0000 0.88760  0.77200  0.14220  Biso   1.000  H
  H102     1.0000 0.86520  0.81740  0.29400  Biso   1.000  H
  N28      1.0000 0.90300  0.94750  0.88300  Biso   1.000  N
  H103     1.0000 0.89050  0.93040  0.73070  Biso   1.000  H
  H104     1.0000 0.86850  0.97630  0.88040  Biso   1.000  H
  C25      1.0000 0.59670  0.89680  0.48400  Biso   1.000  C
  H105     1.0000 0.55990  0.86730  0.49030  Biso   1.000  H
  H106     1.0000 0.58110  0.91430  0.31730  Biso   1.000  H
  C26      1.0000 0.66320  0.85560  0.54700  Biso   1.000  C
  H107     1.0000 0.67900  0.83870  0.71420  Biso   1.000  H
  H108     1.0000 0.69980  0.88530  0.53950  Biso   1.000  H
  C27      1.0000 0.84120  0.85580  0.96300  Biso   1.000  C
  H109     1.0000 0.82910  0.83780  0.79850  Biso   1.000  H
  H110     1.0000 0.80430  0.88650  0.96080  Biso   1.000  H
  C28      1.0000 0.91210  0.89100  0.06100  Biso   1.000  C
  H111     1.0000 0.94890  0.85970  0.06620  Biso   1.000  H
  H112     1.0000 0.92380  0.90890  0.22550  Biso   1.000  H
  N29      1.0000 0.10800  0.45390  0.65300  Biso   1.000  N
  H113     1.0000 0.12070  0.43940  0.80910  Biso   1.000  H
  H114     1.0000 0.14040  0.48350  0.64690  Biso   1.000  H
  N30      1.0000 0.15400  0.29640  0.37900  Biso   1.000  N
  H115     1.0000 0.12090  0.26720  0.38610  Biso   1.000  H
  H116     1.0000 0.13980  0.31080  0.22210  Biso   1.000  H
  N31      1.0000 0.35360  0.30070  0.14100  Biso   1.000  N
  H117     1.0000 0.38760  0.27200  0.14220  Biso   1.000  H
  H118     1.0000 0.36520  0.31740  0.29400  Biso   1.000  H
  N32      1.0000 0.40300  0.44750  0.88300  Biso   1.000  N
  H119     1.0000 0.39050  0.43040  0.73070  Biso   1.000  H
  H120     1.0000 0.36850  0.47630  0.88040  Biso   1.000  H
  C29      1.0000 0.09670  0.39680  0.48400  Biso   1.000  C
  H121     1.0000 0.05990  0.36730  0.49030  Biso   1.000  H
  H122     1.0000 0.08110  0.41430  0.31730  Biso   1.000  H
  C30      1.0000 0.16320  0.35560  0.54700  Biso   1.000  C
  H123     1.0000 0.17900  0.33870  0.71420  Biso   1.000  H
  H124     1.0000 0.19980  0.38530  0.53950  Biso   1.000  H
  C31      1.0000 0.34120  0.35580  0.96300  Biso   1.000  C
  H125     1.0000 0.32910  0.33780  0.79850  Biso   1.000  H
  H126     1.0000 0.30430  0.38650  0.96080  Biso   1.000  H
  C32      1.0000 0.41210  0.39100  0.06100  Biso   1.000  C
  H127     1.0000 0.44890  0.35970  0.06620  Biso   1.000  H
  H128     1.0000 0.42380  0.40890  0.22550  Biso   1.000  H
  Ag1      1.0000 0.50000  0.00000  0.00000  Biso   1.000  Ag
  Ag2      1.0000 0.00000  0.50000  0.00000  Biso   1.000  Ag
  Ag3      1.0000 0.50000  0.00000  0.50000  Biso   1.000  Ag
  Ag4      1.0000 0.00000  0.50000  0.50000  Biso   1.000  Ag
  Ag5      1.0000 0.75000  0.25000  0.00000  Biso   1.000  Ag
  Ag6      1.0000 0.25000  0.25000  0.50000  Biso   1.000  Ag
  Ag7      1.0000 0.25000  0.75000  0.00000  Biso   1.000  Ag
  Ag8      1.0000 0.75000  0.75000  0.50000  Biso   1.000  Ag
  Ag9      1.0000 0.75000  0.25000  0.50000  Biso   1.000  Ag
  Ag10     1.0000 0.25000  0.25000  0.00000  Biso   1.000  Ag
  Ag11     1.0000 0.25000  0.75000  0.50000  Biso   1.000  Ag
  Ag12     1.0000 0.75000  0.75000  0.00000  Biso   1.000  Ag
  Ag13     1.0000 0.00000  0.00000  0.50000  Biso   1.000  Ag
  Ag14     1.0000 0.50000  0.50000  0.50000  Biso   1.000  Ag
  Ag15     1.0000 0.00000  0.00000  0.00000  Biso   1.000  Ag
  Ag16     1.0000 0.50000  0.50000  0.00000  Biso   1.000  Ag
