data_image0
_cell_length_a       10.1895
_cell_length_b       10.6838
_cell_length_c       6.2096
_cell_angle_alpha    90
_cell_angle_beta     114.389
_cell_angle_gamma    90

_symmetry_space_group_name_H-M    "P 1"
_symmetry_int_tables_number       1

loop_
  _symmetry_equiv_pos_as_xyz
  'x, y, z'

loop_
  _atom_site_label
  _atom_site_occupancy
  _atom_site_fract_x
  _atom_site_fract_y
  _atom_site_fract_z
  _atom_site_thermal_displace_type
  _atom_site_B_iso_or_equiv
  _atom_site_type_symbol
  N1       1.0000 0.31040  0.10920  0.37960  Biso   1.000  N
  C1       1.0000 0.31810  0.21100  0.54500  Biso   1.000  C
  H1       1.0000 0.29490  0.14320  0.23500  Biso   1.000  H
  H2       1.0000 0.23330  0.05840  0.35920  Biso   1.000  H
  H3       1.0000 0.40140  0.26550  0.56800  Biso   1.000  H
  H4       1.0000 0.33360  0.17460  0.70030  Biso   1.000  H
  N2       1.0000 0.81040  0.60920  0.37960  Biso   1.000  N
  C2       1.0000 0.81810  0.71100  0.54500  Biso   1.000  C
  H5       1.0000 0.79490  0.64320  0.23500  Biso   1.000  H
  H6       1.0000 0.73330  0.55840  0.35920  Biso   1.000  H
  H7       1.0000 0.90140  0.76550  0.56800  Biso   1.000  H
  H8       1.0000 0.83360  0.67460  0.70030  Biso   1.000  H
  N3       1.0000 0.68960  0.10920  0.12040  Biso   1.000  N
  C3       1.0000 0.68190  0.21100  0.95500  Biso   1.000  C
  H9       1.0000 0.70510  0.14320  0.26500  Biso   1.000  H
  H10      1.0000 0.76670  0.05840  0.14080  Biso   1.000  H
  H11      1.0000 0.59860  0.26550  0.93200  Biso   1.000  H
  H12      1.0000 0.66640  0.17460  0.79970  Biso   1.000  H
  N4       1.0000 0.18960  0.60920  0.12040  Biso   1.000  N
  C4       1.0000 0.18190  0.71100  0.95500  Biso   1.000  C
  H13      1.0000 0.20510  0.64320  0.26500  Biso   1.000  H
  H14      1.0000 0.26670  0.55840  0.14080  Biso   1.000  H
  H15      1.0000 0.09860  0.76550  0.93200  Biso   1.000  H
  H16      1.0000 0.16640  0.67460  0.79970  Biso   1.000  H
  N5       1.0000 0.68960  0.89080  0.62040  Biso   1.000  N
  C5       1.0000 0.68190  0.78900  0.45500  Biso   1.000  C
  H17      1.0000 0.70510  0.85680  0.76500  Biso   1.000  H
  H18      1.0000 0.76670  0.94160  0.64080  Biso   1.000  H
  H19      1.0000 0.59860  0.73450  0.43200  Biso   1.000  H
  H20      1.0000 0.66640  0.82540  0.29970  Biso   1.000  H
  N6       1.0000 0.18960  0.39080  0.62040  Biso   1.000  N
  C6       1.0000 0.18190  0.28900  0.45500  Biso   1.000  C
  H21      1.0000 0.20510  0.35680  0.76500  Biso   1.000  H
  H22      1.0000 0.26670  0.44160  0.64080  Biso   1.000  H
  H23      1.0000 0.09860  0.23450  0.43200  Biso   1.000  H
  H24      1.0000 0.16640  0.32540  0.29970  Biso   1.000  H
  N7       1.0000 0.31040  0.89080  0.87960  Biso   1.000  N
  C7       1.0000 0.31810  0.78900  0.04500  Biso   1.000  C
  H25      1.0000 0.29490  0.85680  0.73500  Biso   1.000  H
  H26      1.0000 0.23330  0.94160  0.85920  Biso   1.000  H
  H27      1.0000 0.40140  0.73450  0.06800  Biso   1.000  H
  H28      1.0000 0.33360  0.82540  0.20030  Biso   1.000  H
  N8       1.0000 0.81040  0.39080  0.87960  Biso   1.000  N
  C8       1.0000 0.81810  0.28900  0.04500  Biso   1.000  C
  H29      1.0000 0.79490  0.35680  0.73500  Biso   1.000  H
  H30      1.0000 0.73330  0.44160  0.85920  Biso   1.000  H
  H31      1.0000 0.90140  0.23450  0.06800  Biso   1.000  H
  H32      1.0000 0.83360  0.32540  0.20030  Biso   1.000  H
  Ag1      1.0000 0.50000  0.00000  0.50000  Biso   1.000  Ag
  Ag2      1.0000 0.00000  0.50000  0.50000  Biso   1.000  Ag
  Ag3      1.0000 0.50000  0.00000  0.00000  Biso   1.000  Ag
  Ag4      1.0000 0.00000  0.50000  0.00000  Biso   1.000  Ag
