data_image0
_cell_length_a       10.1645
_cell_length_b       10.7048
_cell_length_c       6.2049
_cell_angle_alpha    90
_cell_angle_beta     114.277
_cell_angle_gamma    90

_symmetry_space_group_name_H-M    "P 1"
_symmetry_int_tables_number       1

loop_
  _symmetry_equiv_pos_as_xyz
  'x, y, z'

loop_
  _atom_site_label
  _atom_site_occupancy
  _atom_site_fract_x
  _atom_site_fract_y
  _atom_site_fract_z
  _atom_site_thermal_displace_type
  _atom_site_B_iso_or_equiv
  _atom_site_type_symbol
  C1       1.0000 0.31800  0.21130  0.54400  Biso   1.000  C
  H1       1.0000 0.40100  0.26580  0.56520  Biso   1.000  H
  H2       1.0000 0.33440  0.17550  0.70010  Biso   1.000  H
  N1       1.0000 0.31050  0.10880  0.37970  Biso   1.000  N
  H3       1.0000 0.29480  0.14220  0.23450  Biso   1.000  H
  H4       1.0000 0.23330  0.05820  0.36030  Biso   1.000  H
  C2       1.0000 0.81800  0.71130  0.54400  Biso   1.000  C
  H5       1.0000 0.90100  0.76580  0.56520  Biso   1.000  H
  H6       1.0000 0.83440  0.67550  0.70010  Biso   1.000  H
  N2       1.0000 0.81050  0.60880  0.37970  Biso   1.000  N
  H7       1.0000 0.79480  0.64220  0.23450  Biso   1.000  H
  H8       1.0000 0.73330  0.55820  0.36030  Biso   1.000  H
  C3       1.0000 0.68200  0.21130  0.95600  Biso   1.000  C
  H9       1.0000 0.59900  0.26580  0.93480  Biso   1.000  H
  H10      1.0000 0.66560  0.17550  0.79990  Biso   1.000  H
  N3       1.0000 0.68950  0.10880  0.12030  Biso   1.000  N
  H11      1.0000 0.70520  0.14220  0.26550  Biso   1.000  H
  H12      1.0000 0.76670  0.05820  0.13970  Biso   1.000  H
  C4       1.0000 0.18200  0.71130  0.95600  Biso   1.000  C
  H13      1.0000 0.09900  0.76580  0.93480  Biso   1.000  H
  H14      1.0000 0.16560  0.67550  0.79990  Biso   1.000  H
  N4       1.0000 0.18950  0.60880  0.12030  Biso   1.000  N
  H15      1.0000 0.20520  0.64220  0.26550  Biso   1.000  H
  H16      1.0000 0.26670  0.55820  0.13970  Biso   1.000  H
  C5       1.0000 0.68200  0.78870  0.45600  Biso   1.000  C
  H17      1.0000 0.59900  0.73420  0.43480  Biso   1.000  H
  H18      1.0000 0.66560  0.82450  0.29990  Biso   1.000  H
  N5       1.0000 0.68950  0.89120  0.62030  Biso   1.000  N
  H19      1.0000 0.70520  0.85780  0.76550  Biso   1.000  H
  H20      1.0000 0.76670  0.94180  0.63970  Biso   1.000  H
  C6       1.0000 0.18200  0.28870  0.45600  Biso   1.000  C
  H21      1.0000 0.09900  0.23420  0.43480  Biso   1.000  H
  H22      1.0000 0.16560  0.32450  0.29990  Biso   1.000  H
  N6       1.0000 0.18950  0.39120  0.62030  Biso   1.000  N
  H23      1.0000 0.20520  0.35780  0.76550  Biso   1.000  H
  H24      1.0000 0.26670  0.44180  0.63970  Biso   1.000  H
  C7       1.0000 0.31800  0.78870  0.04400  Biso   1.000  C
  H25      1.0000 0.40100  0.73420  0.06520  Biso   1.000  H
  H26      1.0000 0.33440  0.82450  0.20010  Biso   1.000  H
  N7       1.0000 0.31050  0.89120  0.87970  Biso   1.000  N
  H27      1.0000 0.29480  0.85780  0.73450  Biso   1.000  H
  H28      1.0000 0.23330  0.94180  0.86030  Biso   1.000  H
  C8       1.0000 0.81800  0.28870  0.04400  Biso   1.000  C
  H29      1.0000 0.90100  0.23420  0.06520  Biso   1.000  H
  H30      1.0000 0.83440  0.32450  0.20010  Biso   1.000  H
  N8       1.0000 0.81050  0.39120  0.87970  Biso   1.000  N
  H31      1.0000 0.79480  0.35780  0.73450  Biso   1.000  H
  H32      1.0000 0.73330  0.44180  0.86030  Biso   1.000  H
  Ag1      1.0000 0.50000  0.00000  0.50000  Biso   1.000  Ag
  Ag2      1.0000 0.00000  0.50000  0.50000  Biso   1.000  Ag
  Ag3      1.0000 0.50000  0.00000  0.00000  Biso   1.000  Ag
  Ag4      1.0000 0.00000  0.50000  0.00000  Biso   1.000  Ag
