data_image0
_cell_length_a       10.508
_cell_length_b       10.464
_cell_length_c       6.336
_cell_angle_alpha    90
_cell_angle_beta     115.49
_cell_angle_gamma    90

_symmetry_space_group_name_H-M    "P 1"
_symmetry_int_tables_number       1

loop_
  _symmetry_equiv_pos_as_xyz
  'x, y, z'

loop_
  _atom_site_label
  _atom_site_occupancy
  _atom_site_fract_x
  _atom_site_fract_y
  _atom_site_fract_z
  _atom_site_thermal_displace_type
  _atom_site_B_iso_or_equiv
  _atom_site_type_symbol
  C1       1.0000 0.31510  0.20970  0.54610  Biso   1.000  C
  H1       1.0000 0.39640  0.26460  0.58390  Biso   1.000  H
  H2       1.0000 0.32460  0.16880  0.68960  Biso   1.000  H
  N1       1.0000 0.31500  0.11160  0.38250  Biso   1.000  N
  H3       1.0000 0.30210  0.14960  0.24740  Biso   1.000  H
  H4       1.0000 0.24110  0.05930  0.35190  Biso   1.000  H
  C2       1.0000 0.81510  0.70970  0.54610  Biso   1.000  C
  H5       1.0000 0.89640  0.76460  0.58390  Biso   1.000  H
  H6       1.0000 0.82460  0.66880  0.68960  Biso   1.000  H
  N2       1.0000 0.81500  0.61160  0.38250  Biso   1.000  N
  H7       1.0000 0.80210  0.64960  0.24740  Biso   1.000  H
  H8       1.0000 0.74110  0.55930  0.35190  Biso   1.000  H
  C3       1.0000 0.68490  0.20970  0.95390  Biso   1.000  C
  H9       1.0000 0.60360  0.26460  0.91610  Biso   1.000  H
  H10      1.0000 0.67540  0.16880  0.81040  Biso   1.000  H
  N3       1.0000 0.68500  0.11160  0.11750  Biso   1.000  N
  H11      1.0000 0.69790  0.14960  0.25260  Biso   1.000  H
  H12      1.0000 0.75890  0.05930  0.14810  Biso   1.000  H
  C4       1.0000 0.18490  0.70970  0.95390  Biso   1.000  C
  H13      1.0000 0.10360  0.76460  0.91610  Biso   1.000  H
  H14      1.0000 0.17540  0.66880  0.81040  Biso   1.000  H
  N4       1.0000 0.18500  0.61160  0.11750  Biso   1.000  N
  H15      1.0000 0.19790  0.64960  0.25260  Biso   1.000  H
  H16      1.0000 0.25890  0.55930  0.14810  Biso   1.000  H
  C5       1.0000 0.68490  0.79030  0.45390  Biso   1.000  C
  H17      1.0000 0.60360  0.73540  0.41610  Biso   1.000  H
  H18      1.0000 0.67540  0.83120  0.31040  Biso   1.000  H
  N5       1.0000 0.68500  0.88840  0.61750  Biso   1.000  N
  H19      1.0000 0.69790  0.85040  0.75260  Biso   1.000  H
  H20      1.0000 0.75890  0.94070  0.64810  Biso   1.000  H
  C6       1.0000 0.18490  0.29030  0.45390  Biso   1.000  C
  H21      1.0000 0.10360  0.23540  0.41610  Biso   1.000  H
  H22      1.0000 0.17540  0.33120  0.31040  Biso   1.000  H
  N6       1.0000 0.18500  0.38840  0.61750  Biso   1.000  N
  H23      1.0000 0.19790  0.35040  0.75260  Biso   1.000  H
  H24      1.0000 0.25890  0.44070  0.64810  Biso   1.000  H
  C7       1.0000 0.31510  0.79030  0.04610  Biso   1.000  C
  H25      1.0000 0.39640  0.73540  0.08390  Biso   1.000  H
  H26      1.0000 0.32460  0.83120  0.18960  Biso   1.000  H
  N7       1.0000 0.31500  0.88840  0.88250  Biso   1.000  N
  H27      1.0000 0.30210  0.85040  0.74740  Biso   1.000  H
  H28      1.0000 0.24110  0.94070  0.85190  Biso   1.000  H
  C8       1.0000 0.81510  0.29030  0.04610  Biso   1.000  C
  H29      1.0000 0.89640  0.23540  0.08390  Biso   1.000  H
  H30      1.0000 0.82460  0.33120  0.18960  Biso   1.000  H
  N8       1.0000 0.81500  0.38840  0.88250  Biso   1.000  N
  H31      1.0000 0.80210  0.35040  0.74740  Biso   1.000  H
  H32      1.0000 0.74110  0.44070  0.85190  Biso   1.000  H
  Ag1      1.0000 0.50000  0.00000  0.50000  Biso   1.000  Ag
  Ag2      1.0000 0.00000  0.50000  0.50000  Biso   1.000  Ag
  Ag3      1.0000 0.50000  0.00000  0.00000  Biso   1.000  Ag
  Ag4      1.0000 0.00000  0.50000  0.00000  Biso   1.000  Ag
