data_MAHTAR01_clean
_audit_creation_date              2014-07-02
_audit_creation_method            'Materials Studio'
_symmetry_space_group_name_H-M    'P1'
_symmetry_Int_Tables_number       1
_symmetry_cell_setting            triclinic
loop_
_symmetry_equiv_pos_as_xyz
  x,y,z
_cell_length_a                    9.5347
_cell_length_b                    13.3778
_cell_length_c                    14.4744
_cell_angle_alpha                 79.9477
_cell_angle_beta                  70.7697
_cell_angle_gamma                 69.1230
loop_
_atom_site_label
_atom_site_type_symbol
_atom_site_fract_x
_atom_site_fract_y
_atom_site_fract_z
_atom_site_U_iso_or_equiv
_atom_site_adp_type
_atom_site_occupancy
Mn1    Mn    0.52041   0.46752   0.88456   0.01267  Uiso   1.00
Mn2    Mn    0.87249   0.03248   0.61544   0.01267  Uiso   1.00
Mn3    Mn    0.47959   0.53248   0.11544   0.01267  Uiso   1.00
Mn4    Mn    0.12751   0.96752   0.38456   0.01267  Uiso   1.00
Mn5    Mn    0.78888   0.25000   0.75000   0.01267  Uiso   1.00
Mn6    Mn    0.21112   0.75000   0.25000   0.01267  Uiso   1.00
H1     H     0.77630   0.09210   0.97930   0.01267  Uiso   1.00
H2     H     0.88640   0.95620   0.08100   0.01267  Uiso   1.00
H3     H     0.79980   0.16890   0.27070   0.01267  Uiso   1.00
H4     H     0.67640   0.30460   0.17340   0.01267  Uiso   1.00
H5     H     0.44310   0.64330   0.58970   0.01267  Uiso   1.00
H6     H     0.57020   0.32720   0.56920   0.01267  Uiso   1.00
H7     H     0.84770   0.40790   0.52070   0.01267  Uiso   1.00
H8     H     0.92360   0.54380   0.41900   0.01267  Uiso   1.00
H9     H     0.23940   0.33110   0.22930   0.01267  Uiso   1.00
H10    H     0.15440   0.19540   0.32660   0.01267  Uiso   1.00
H11    H     0.67610   0.85670   0.91030   0.01267  Uiso   1.00
H12    H     0.46660   0.17280   0.93080   0.01267  Uiso   1.00
H13    H     0.22370   0.90790   0.02070   0.01267  Uiso   1.00
H14    H     0.11360   0.04380   0.91900   0.01267  Uiso   1.00
H15    H     0.20020   0.83110   0.72930   0.01267  Uiso   1.00
H16    H     0.32360   0.69540   0.82660   0.01267  Uiso   1.00
H17    H     0.55690   0.35670   0.41030   0.01267  Uiso   1.00
H18    H     0.42980   0.67280   0.43080   0.01267  Uiso   1.00
H19    H     0.15230   0.59210   0.47930   0.01267  Uiso   1.00
H20    H     0.07640   0.45620   0.58100   0.01267  Uiso   1.00
H21    H     0.76060   0.66890   0.77070   0.01267  Uiso   1.00
H22    H     0.84560   0.80460   0.67340   0.01267  Uiso   1.00
H23    H     0.32390   0.14330   0.08970   0.01267  Uiso   1.00
H24    H     0.53340   0.82720   0.06920   0.01267  Uiso   1.00
C1     C     0.65010   0.30100   0.99800   0.01267  Uiso   1.00
C2     C     0.71740   0.21230   0.06530   0.01267  Uiso   1.00
C3     C     0.77980   0.10770   0.03850   0.01267  Uiso   1.00
C4     C     0.84710   0.02660   0.09900   0.01267  Uiso   1.00
C5     C     0.85690   0.04880   0.18620   0.01267  Uiso   1.00
C6     C     0.79400   0.15280   0.21240   0.01267  Uiso   1.00
C7     C     0.72180   0.23470   0.15350   0.01267  Uiso   1.00
C8     C     0.94580   0.96270   0.24770   0.01267  Uiso   1.00
C9     C     0.51620   0.46340   0.69900   0.01267  Uiso   1.00
C10    C     0.50600   0.48150   0.59610   0.01267  Uiso   1.00
C11    C     0.46550   0.58560   0.55360   0.01267  Uiso   1.00
C12    C     0.54130   0.39700   0.54160   0.01267  Uiso   1.00
C13    C     0.94910   0.19900   0.50200   0.01267  Uiso   1.00
C14    C     0.99500   0.28770   0.43470   0.01267  Uiso   1.00
C15    C     0.92600   0.39230   0.46150   0.01267  Uiso   1.00
C16    C     0.97270   0.47340   0.40100   0.01267  Uiso   1.00
C17    C     0.09190   0.45120   0.31380   0.01267  Uiso   1.00
C18    C     0.15920   0.34720   0.28760   0.01267  Uiso   1.00
C19    C     0.11000   0.26530   0.34650   0.01267  Uiso   1.00
C20    C     0.15620   0.53730   0.25230   0.01267  Uiso   1.00
C21    C     0.67860   0.03660   0.80100   0.01267  Uiso   1.00
C22    C     0.58360   0.01850   0.90390   0.01267  Uiso   1.00
C23    C     0.60470   0.91440   0.94640   0.01267  Uiso   1.00
C24    C     0.47990   0.10300   0.95840   0.01267  Uiso   1.00
C25    C     0.34990   0.69900   0.00200   0.01267  Uiso   1.00
C26    C     0.28260   0.78770   0.93470   0.01267  Uiso   1.00
C27    C     0.22020   0.89230   0.96150   0.01267  Uiso   1.00
C28    C     0.15290   0.97340   0.90100   0.01267  Uiso   1.00
C29    C     0.14310   0.95120   0.81380   0.01267  Uiso   1.00
C30    C     0.20600   0.84720   0.78760   0.01267  Uiso   1.00
C31    C     0.27820   0.76530   0.84650   0.01267  Uiso   1.00
C32    C     0.05420   0.03730   0.75230   0.01267  Uiso   1.00
C33    C     0.48380   0.53660   0.30100   0.01267  Uiso   1.00
C34    C     0.49400   0.51850   0.40390   0.01267  Uiso   1.00
C35    C     0.53450   0.41440   0.44640   0.01267  Uiso   1.00
C36    C     0.45870   0.60300   0.45840   0.01267  Uiso   1.00
C37    C     0.05090   0.80100   0.49800   0.01267  Uiso   1.00
C38    C     0.00500   0.71230   0.56530   0.01267  Uiso   1.00
C39    C     0.07400   0.60770   0.53850   0.01267  Uiso   1.00
C40    C     0.02730   0.52660   0.59900   0.01267  Uiso   1.00
C41    C     0.90810   0.54880   0.68620   0.01267  Uiso   1.00
C42    C     0.84080   0.65280   0.71240   0.01267  Uiso   1.00
C43    C     0.89000   0.73470   0.65350   0.01267  Uiso   1.00
C44    C     0.84380   0.46270   0.74770   0.01267  Uiso   1.00
C45    C     0.32140   0.96340   0.19900   0.01267  Uiso   1.00
C46    C     0.41640   0.98150   0.09610   0.01267  Uiso   1.00
C47    C     0.39530   0.08560   0.05360   0.01267  Uiso   1.00
C48    C     0.52010   0.89700   0.04160   0.01267  Uiso   1.00
O1     O     0.57758   0.39394   0.02830   0.01267  Uiso   1.00
O2     O     0.46670   0.54180   0.74980   0.01267  Uiso   1.00
O3     O     0.57598   0.36944   0.73180   0.01267  Uiso   1.00
O4     O     0.66620   0.28400   0.91220   0.01267  Uiso   1.00
O5     O     0.01765   0.87220   0.21490   0.01267  Uiso   1.00
O6     O     0.94132   0.98936   0.32800   0.01267  Uiso   1.00
O7     O     0.99982   0.10606   0.47170   0.01267  Uiso   1.00
O8     O     0.75830   0.95820   0.75020   0.01267  Uiso   1.00
O9     O     0.67722   0.13056   0.76820   0.01267  Uiso   1.00
O10    O     0.86240   0.21600   0.58780   0.01267  Uiso   1.00
O11    O     0.10475   0.62780   0.28510   0.01267  Uiso   1.00
O12    O     0.25868   0.51064   0.17200   0.01267  Uiso   1.00
O13    O     0.42242   0.60606   0.97170   0.01267  Uiso   1.00
O14    O     0.53330   0.45820   0.25020   0.01267  Uiso   1.00
O15    O     0.42402   0.63056   0.26820   0.01267  Uiso   1.00
O16    O     0.33380   0.71600   0.08780   0.01267  Uiso   1.00
O17    O     0.98235   0.12780   0.78510   0.01267  Uiso   1.00
O18    O     0.05868   0.01064   0.67200   0.01267  Uiso   1.00
O19    O     0.00018   0.89394   0.52830   0.01267  Uiso   1.00
O20    O     0.24170   0.04180   0.24980   0.01267  Uiso   1.00
O21    O     0.32278   0.86944   0.23180   0.01267  Uiso   1.00
O22    O     0.13760   0.78400   0.41220   0.01267  Uiso   1.00
O23    O     0.89525   0.37220   0.71490   0.01267  Uiso   1.00
O24    O     0.74132   0.48936   0.82800   0.01267  Uiso   1.00
