data_MAJHUC_clean
_audit_creation_date              2014-07-02
_audit_creation_method            'Materials Studio'
_symmetry_space_group_name_H-M    'P1'
_symmetry_Int_Tables_number       1
_symmetry_cell_setting            triclinic
loop_
_symmetry_equiv_pos_as_xyz
  x,y,z
_cell_length_a                    11.3475
_cell_length_b                    11.7860
_cell_length_c                    21.2030
_cell_angle_alpha                 96.2590
_cell_angle_beta                  90.9780
_cell_angle_gamma                 108.2580
loop_
_atom_site_label
_atom_site_type_symbol
_atom_site_fract_x
_atom_site_fract_y
_atom_site_fract_z
_atom_site_U_iso_or_equiv
_atom_site_adp_type
_atom_site_occupancy
Mn1    Mn    0.13715   0.47770   0.24059   0.01267  Uiso   1.00
Mn2    Mn    0.86285   0.52230   0.75941   0.01267  Uiso   1.00
Mn3    Mn    0.00000   0.00000   0.50000   0.01267  Uiso   1.00
Mn4    Mn    0.50000   0.50000   0.00000   0.01267  Uiso   1.00
H1     H     0.02930   0.66090   0.32080   0.01267  Uiso   1.00
H2     H     0.60150   0.60100   0.87060   0.01267  Uiso   1.00
H3     H     0.54570   0.60740   0.76690   0.01267  Uiso   1.00
H4     H     0.34140   0.64630   0.15810   0.01267  Uiso   1.00
H5     H     0.26320   0.41210   0.90200   0.01267  Uiso   1.00
H6     H     0.19820   0.41270   0.79980   0.01267  Uiso   1.00
H7     H     0.54450   0.76910   0.16220   0.01267  Uiso   1.00
H8     H     0.56240   0.74280   0.34860   0.01267  Uiso   1.00
H9     H     0.09540   0.12230   0.37710   0.01267  Uiso   1.00
H10    H     0.96370   0.82600   0.31760   0.01267  Uiso   1.00
H11    H     0.36140   0.62020   0.33950   0.01267  Uiso   1.00
H12    H     0.76080   0.79210   0.28080   0.01267  Uiso   1.00
H13    H     0.72710   0.91080   0.29390   0.01267  Uiso   1.00
H14    H     0.88630   0.38440   0.15220   0.01267  Uiso   1.00
H15    H     0.68850   0.25100   0.13950   0.01267  Uiso   1.00
H16    H     0.74850   0.13680   0.30510   0.01267  Uiso   1.00
H17    H     0.01800   0.80950   0.13110   0.01267  Uiso   1.00
H18    H     0.76320   0.81920   0.17010   0.01267  Uiso   1.00
H19    H     0.75190   0.94730   0.19040   0.01267  Uiso   1.00
H20    H     0.20690   0.88260   0.45100   0.01267  Uiso   1.00
H21    H     0.32730   0.86590   0.36700   0.01267  Uiso   1.00
H22    H     0.28700   0.42570   0.68250   0.01267  Uiso   1.00
H23    H     0.24820   0.53970   0.70350   0.01267  Uiso   1.00
H24    H     0.44750   0.66200   0.67950   0.01267  Uiso   1.00
H25    H     0.47870   0.54520   0.65430   0.01267  Uiso   1.00
H26    H     0.08600   0.64750   0.13930   0.01267  Uiso   1.00
H27    H     0.21190   0.11220   0.29060   0.01267  Uiso   1.00
H28    H     0.31900   0.99390   0.22350   0.01267  Uiso   1.00
H29    H     0.36990   0.90140   0.25350   0.01267  Uiso   1.00
H30    H     0.94580   0.26950   0.31150   0.01267  Uiso   1.00
H31    H     0.57010   0.00680   0.19740   0.01267  Uiso   1.00
H32    H     0.51820   0.10790   0.17930   0.01267  Uiso   1.00
H33    H     0.34110   0.75950   0.52750   0.01267  Uiso   1.00
H34    H     0.59260   0.59840   0.56380   0.01267  Uiso   1.00
H35    H     0.90020   0.35530   0.56330   0.01267  Uiso   1.00
H36    H     0.94400   0.99170   0.25620   0.01267  Uiso   1.00
H37    H     0.96220   0.98130   0.18280   0.01267  Uiso   1.00
H38    H     0.32700   0.50110   0.57200   0.01267  Uiso   1.00
H39    H     0.28520   0.61090   0.59870   0.01267  Uiso   1.00
H40    H     0.87720   0.32610   0.03670   0.01267  Uiso   1.00
H41    H     0.53570   0.05400   0.30410   0.01267  Uiso   1.00
H42    H     0.48030   0.15220   0.28480   0.01267  Uiso   1.00
H43    H     0.72730   0.72400   0.50300   0.01267  Uiso   1.00
H44    H     0.48370   0.87950   0.46720   0.01267  Uiso   1.00
H45    H     0.97070   0.33910   0.67920   0.01267  Uiso   1.00
H46    H     0.39850   0.39900   0.12940   0.01267  Uiso   1.00
H47    H     0.45430   0.39260   0.23310   0.01267  Uiso   1.00
H48    H     0.65860   0.35370   0.84190   0.01267  Uiso   1.00
H49    H     0.73680   0.58790   0.09800   0.01267  Uiso   1.00
H50    H     0.80180   0.58730   0.20020   0.01267  Uiso   1.00
H51    H     0.45550   0.23090   0.83780   0.01267  Uiso   1.00
H52    H     0.43760   0.25720   0.65140   0.01267  Uiso   1.00
H53    H     0.90460   0.87770   0.62290   0.01267  Uiso   1.00
H54    H     0.03630   0.17400   0.68240   0.01267  Uiso   1.00
H55    H     0.63860   0.37980   0.66050   0.01267  Uiso   1.00
H56    H     0.23920   0.20790   0.71920   0.01267  Uiso   1.00
H57    H     0.27290   0.08920   0.70610   0.01267  Uiso   1.00
H58    H     0.11370   0.61560   0.84780   0.01267  Uiso   1.00
H59    H     0.31150   0.74900   0.86050   0.01267  Uiso   1.00
H60    H     0.25150   0.86320   0.69490   0.01267  Uiso   1.00
H61    H     0.98200   0.19050   0.86890   0.01267  Uiso   1.00
H62    H     0.23680   0.18080   0.82990   0.01267  Uiso   1.00
H63    H     0.24810   0.05270   0.80960   0.01267  Uiso   1.00
H64    H     0.79310   0.11740   0.54900   0.01267  Uiso   1.00
H65    H     0.67270   0.13410   0.63300   0.01267  Uiso   1.00
H66    H     0.71300   0.57430   0.31750   0.01267  Uiso   1.00
H67    H     0.75180   0.46030   0.29650   0.01267  Uiso   1.00
H68    H     0.55250   0.33800   0.32050   0.01267  Uiso   1.00
H69    H     0.52130   0.45480   0.34570   0.01267  Uiso   1.00
H70    H     0.91400   0.35250   0.86070   0.01267  Uiso   1.00
H71    H     0.78810   0.88780   0.70940   0.01267  Uiso   1.00
H72    H     0.68100   0.00610   0.77650   0.01267  Uiso   1.00
H73    H     0.63010   0.09860   0.74650   0.01267  Uiso   1.00
H74    H     0.05420   0.73050   0.68850   0.01267  Uiso   1.00
H75    H     0.42990   0.99320   0.80260   0.01267  Uiso   1.00
H76    H     0.48180   0.89210   0.82070   0.01267  Uiso   1.00
H77    H     0.65890   0.24050   0.47250   0.01267  Uiso   1.00
H78    H     0.40740   0.40160   0.43620   0.01267  Uiso   1.00
H79    H     0.09980   0.64470   0.43670   0.01267  Uiso   1.00
H80    H     0.05600   0.00830   0.74380   0.01267  Uiso   1.00
H81    H     0.03780   0.01870   0.81720   0.01267  Uiso   1.00
H82    H     0.67300   0.49890   0.42800   0.01267  Uiso   1.00
H83    H     0.71480   0.38910   0.40130   0.01267  Uiso   1.00
H84    H     0.12280   0.67390   0.96330   0.01267  Uiso   1.00
H85    H     0.46430   0.94600   0.69590   0.01267  Uiso   1.00
H86    H     0.51970   0.84780   0.71520   0.01267  Uiso   1.00
H87    H     0.27270   0.27600   0.49700   0.01267  Uiso   1.00
H88    H     0.51630   0.12050   0.53280   0.01267  Uiso   1.00
C1     C     0.96790   0.24313   0.46486   0.01267  Uiso   1.00
C2     C     0.11540   0.43710   0.38513   0.01267  Uiso   1.00
C3     C     0.99230   0.37787   0.48266   0.01267  Uiso   1.00
C4     C     0.02690   0.69090   0.28218   0.01267  Uiso   1.00
C5     C     0.51920   0.56280   0.85623   0.01267  Uiso   1.00
C6     C     0.48630   0.56670   0.79328   0.01267  Uiso   1.00
C7     C     0.05390   0.46669   0.44453   0.01267  Uiso   1.00
C8     C     0.38690   0.66510   0.19686   0.01267  Uiso   1.00
C9     C     0.32080   0.45190   0.87465   0.01267  Uiso   1.00
C10    C     0.28100   0.45170   0.81288   0.01267  Uiso   1.00
C11    C     0.50970   0.73940   0.19879   0.01267  Uiso   1.00
C12    C     0.57950   0.76860   0.25593   0.01267  Uiso   1.00
C13    C     0.51980   0.72330   0.30907   0.01267  Uiso   1.00
C14    C     0.14150   0.06930   0.37476   0.01267  Uiso   1.00
C15    C     0.10360   0.37790   0.08851   0.01267  Uiso   1.00
C16    C     0.98640   0.79030   0.28052   0.01267  Uiso   1.00
C17    C     0.97960   0.83670   0.22301   0.01267  Uiso   1.00
C18    C     0.36420   0.50960   0.76967   0.01267  Uiso   1.00
C19    C     0.39840   0.65000   0.30332   0.01267  Uiso   1.00
C20    C     0.71720   0.84110   0.26299   0.01267  Uiso   1.00
C21    C     0.85880   0.33290   0.18299   0.01267  Uiso   1.00
C22    C     0.73870   0.25280   0.17500   0.01267  Uiso   1.00
C23    C     0.69370   0.17500   0.22064   0.01267  Uiso   1.00
C24    C     0.77460   0.18490   0.27277   0.01267  Uiso   1.00
C25    C     0.01900   0.78090   0.17024   0.01267  Uiso   1.00
C26    C     0.78250   0.88530   0.20416   0.01267  Uiso   1.00
C27    C     0.20720   0.92860   0.41798   0.01267  Uiso   1.00
C28    C     0.28060   0.91830   0.36759   0.01267  Uiso   1.00
C29    C     0.28400   0.98740   0.31760   0.01267  Uiso   1.00
C30    C     0.31800   0.50870   0.70198   0.01267  Uiso   1.00
C31    C     0.41190   0.58000   0.65921   0.01267  Uiso   1.00
C32    C     0.05970   0.68270   0.17546   0.01267  Uiso   1.00
C33    C     0.21230   0.06410   0.32254   0.01267  Uiso   1.00
C34    C     0.36130   0.98100   0.26087   0.01267  Uiso   1.00
C35    C     0.89350   0.26610   0.27662   0.01267  Uiso   1.00
C36    C     0.56380   0.08540   0.21229   0.01267  Uiso   1.00
C37    C     0.26910   0.58480   0.02779   0.01267  Uiso   1.00
C38    C     0.41880   0.74950   0.52326   0.01267  Uiso   1.00
C39    C     0.56740   0.65490   0.54459   0.01267  Uiso   1.00
C40    C     0.94020   0.41330   0.53766   0.01267  Uiso   1.00
C41    C     0.92510   0.93670   0.21723   0.01267  Uiso   1.00
C42    C     0.35630   0.58240   0.59381   0.01267  Uiso   1.00
C43    C     0.92660   0.39640   0.02213   0.01267  Uiso   1.00
C44    C     0.48960   0.07450   0.27062   0.01267  Uiso   1.00
C45    C     0.64850   0.73120   0.50751   0.01267  Uiso   1.00
C46    C     0.50590   0.82180   0.48682   0.01267  Uiso   1.00
C47    C     0.44890   0.66280   0.55302   0.01267  Uiso   1.00
C48    C     0.12830   0.54310   0.01612   0.01267  Uiso   1.00
C49    C     0.05370   0.43820   0.03926   0.01267  Uiso   1.00
C50    C     0.03210   0.75687   0.53514   0.01267  Uiso   1.00
C51    C     0.88460   0.56290   0.61487   0.01267  Uiso   1.00
C52    C     0.00770   0.62213   0.51734   0.01267  Uiso   1.00
C53    C     0.97310   0.30910   0.71782   0.01267  Uiso   1.00
C54    C     0.48080   0.43720   0.14377   0.01267  Uiso   1.00
C55    C     0.51370   0.43330   0.20672   0.01267  Uiso   1.00
C56    C     0.94610   0.53331   0.55547   0.01267  Uiso   1.00
C57    C     0.61310   0.33490   0.80314   0.01267  Uiso   1.00
C58    C     0.67920   0.54810   0.12535   0.01267  Uiso   1.00
C59    C     0.71900   0.54830   0.18712   0.01267  Uiso   1.00
C60    C     0.49030   0.26060   0.80121   0.01267  Uiso   1.00
C61    C     0.42050   0.23140   0.74407   0.01267  Uiso   1.00
C62    C     0.48020   0.27670   0.69093   0.01267  Uiso   1.00
C63    C     0.85850   0.93070   0.62524   0.01267  Uiso   1.00
C64    C     0.89640   0.62210   0.91149   0.01267  Uiso   1.00
C65    C     0.01360   0.20970   0.71948   0.01267  Uiso   1.00
C66    C     0.02040   0.16330   0.77699   0.01267  Uiso   1.00
C67    C     0.63580   0.49040   0.23033   0.01267  Uiso   1.00
C68    C     0.60160   0.35000   0.69668   0.01267  Uiso   1.00
C69    C     0.28280   0.15890   0.73701   0.01267  Uiso   1.00
C70    C     0.14120   0.66710   0.81701   0.01267  Uiso   1.00
C71    C     0.26130   0.74720   0.82500   0.01267  Uiso   1.00
C72    C     0.30630   0.82500   0.77936   0.01267  Uiso   1.00
C73    C     0.22540   0.81510   0.72723   0.01267  Uiso   1.00
C74    C     0.98100   0.21910   0.82976   0.01267  Uiso   1.00
C75    C     0.21750   0.11470   0.79584   0.01267  Uiso   1.00
C76    C     0.79280   0.07140   0.58202   0.01267  Uiso   1.00
C77    C     0.71940   0.08170   0.63241   0.01267  Uiso   1.00
C78    C     0.71600   0.01260   0.68240   0.01267  Uiso   1.00
C79    C     0.68200   0.49130   0.29802   0.01267  Uiso   1.00
C80    C     0.58810   0.42000   0.34079   0.01267  Uiso   1.00
C81    C     0.94030   0.31730   0.82454   0.01267  Uiso   1.00
C82    C     0.78770   0.93590   0.67746   0.01267  Uiso   1.00
C83    C     0.63870   0.01900   0.73913   0.01267  Uiso   1.00
C84    C     0.10650   0.73390   0.72338   0.01267  Uiso   1.00
C85    C     0.43620   0.91460   0.78771   0.01267  Uiso   1.00
C86    C     0.73090   0.41520   0.97221   0.01267  Uiso   1.00
C87    C     0.58120   0.25050   0.47674   0.01267  Uiso   1.00
C88    C     0.43260   0.34510   0.45541   0.01267  Uiso   1.00
C89    C     0.05980   0.58670   0.46234   0.01267  Uiso   1.00
C90    C     0.07490   0.06330   0.78277   0.01267  Uiso   1.00
C91    C     0.64370   0.41760   0.40619   0.01267  Uiso   1.00
C92    C     0.07340   0.60360   0.97787   0.01267  Uiso   1.00
C93    C     0.51040   0.92550   0.72938   0.01267  Uiso   1.00
C94    C     0.35150   0.26880   0.49249   0.01267  Uiso   1.00
C95    C     0.49410   0.17820   0.51318   0.01267  Uiso   1.00
C96    C     0.55110   0.33720   0.44698   0.01267  Uiso   1.00
C97    C     0.87170   0.45690   0.98388   0.01267  Uiso   1.00
C98    C     0.94630   0.56180   0.96074   0.01267  Uiso   1.00
N1     N     0.43910   0.50700   0.89741   0.01267  Uiso   1.00
N2     N     0.13648   0.00126   0.42198   0.01267  Uiso   1.00
N3     N     0.06290   0.63613   0.23059   0.01267  Uiso   1.00
N4     N     0.93779   0.34070   0.23237   0.01267  Uiso   1.00
N5     N     0.62000   0.81330   0.47829   0.01267  Uiso   1.00
N6     N     0.33022   0.61899   0.24748   0.01267  Uiso   1.00
N7     N     0.56090   0.49300   0.10259   0.01267  Uiso   1.00
N8     N     0.86352   0.99874   0.57802   0.01267  Uiso   1.00
N9     N     0.93710   0.36387   0.76941   0.01267  Uiso   1.00
N10    N     0.06221   0.65930   0.76763   0.01267  Uiso   1.00
N11    N     0.38000   0.18670   0.52171   0.01267  Uiso   1.00
N12    N     0.66978   0.38101   0.75252   0.01267  Uiso   1.00
O1     O     0.12368   0.50655   0.34214   0.01267  Uiso   1.00
O2     O     0.02560   0.19191   0.49797   0.01267  Uiso   1.00
O3     O     0.15322   0.34796   0.38138   0.01267  Uiso   1.00
O4     O     0.88631   0.19187   0.42159   0.01267  Uiso   1.00
O5     O     0.15044   0.44396   0.13954   0.01267  Uiso   1.00
O6     O     0.08960   0.26740   0.07721   0.01267  Uiso   1.00
O7     O     0.31887   0.50349   0.02765   0.01267  Uiso   1.00
O8     O     0.32552   0.69530   0.03500   0.01267  Uiso   1.00
O9     O     0.87632   0.49345   0.65786   0.01267  Uiso   1.00
O10    O     0.97440   0.80809   0.50203   0.01267  Uiso   1.00
O11    O     0.84678   0.65204   0.61862   0.01267  Uiso   1.00
O12    O     0.11369   0.80813   0.57841   0.01267  Uiso   1.00
O13    O     0.84956   0.55604   0.86046   0.01267  Uiso   1.00
O14    O     0.91040   0.73260   0.92279   0.01267  Uiso   1.00
O15    O     0.68113   0.49651   0.97235   0.01267  Uiso   1.00
O16    O     0.67448   0.30470   0.96500   0.01267  Uiso   1.00
