data_MAJHOW_clean
_audit_creation_date              2014-07-02
_audit_creation_method            'Materials Studio'
_symmetry_space_group_name_H-M    'P1'
_symmetry_Int_Tables_number       1
_symmetry_cell_setting            triclinic
loop_
_symmetry_equiv_pos_as_xyz
  x,y,z
_cell_length_a                    12.6100
_cell_length_b                    18.0030
_cell_length_c                    19.3560
_cell_angle_alpha                 104.3700
_cell_angle_beta                  90.0000
_cell_angle_gamma                 90.0000
loop_
_atom_site_label
_atom_site_type_symbol
_atom_site_fract_x
_atom_site_fract_y
_atom_site_fract_z
_atom_site_U_iso_or_equiv
_atom_site_adp_type
_atom_site_occupancy
Cu1    Cu    0.74280   0.74849   0.01047   0.01267  Uiso   1.00
Cu2    Cu    0.25790   0.75720   0.03527   0.01267  Uiso   1.00
Cu3    Cu    0.24280   0.75151   0.48953   0.01267  Uiso   1.00
Cu4    Cu    0.75790   0.74280   0.46473   0.01267  Uiso   1.00
Cu5    Cu    0.25720   0.25151   0.98953   0.01267  Uiso   1.00
Cu6    Cu    0.74210   0.24280   0.96473   0.01267  Uiso   1.00
Cu7    Cu    0.75720   0.24849   0.51047   0.01267  Uiso   1.00
Cu8    Cu    0.24210   0.25720   0.53527   0.01267  Uiso   1.00
H1     H     0.03850   0.21420   0.58720   0.01267  Uiso   1.00
H2     H     0.90140   0.13090   0.55250   0.01267  Uiso   1.00
H3     H     0.06630   0.03820   0.37390   0.01267  Uiso   1.00
H4     H     0.19910   0.12230   0.41840   0.01267  Uiso   1.00
H5     H     0.80870   0.05030   0.43750   0.01267  Uiso   1.00
H6     H     0.86800   0.98520   0.46240   0.01267  Uiso   1.00
H7     H     0.94070   0.94050   0.34890   0.01267  Uiso   1.00
H8     H     0.88440   0.00700   0.32360   0.01267  Uiso   1.00
H9     H     0.71790   0.95640   0.34950   0.01267  Uiso   1.00
H10    H     0.77880   0.88660   0.36520   0.01267  Uiso   1.00
H11    H     0.62130   0.90780   0.24270   0.01267  Uiso   1.00
H12    H     0.61110   0.84220   0.12670   0.01267  Uiso   1.00
H13    H     0.92380   0.84180   0.24330   0.01267  Uiso   1.00
H14    H     0.90470   0.78070   0.12530   0.01267  Uiso   1.00
H15    H     0.67800   0.01780   0.98460   0.01267  Uiso   1.00
H16    H     0.45120   0.28040   0.46930   0.01267  Uiso   1.00
H17    H     0.58660   0.36570   0.48680   0.01267  Uiso   1.00
H18    H     0.41500   0.49950   0.64270   0.01267  Uiso   1.00
H19    H     0.28560   0.41180   0.61920   0.01267  Uiso   1.00
H20    H     0.67720   0.47390   0.56800   0.01267  Uiso   1.00
H21    H     0.60040   0.53930   0.55970   0.01267  Uiso   1.00
H22    H     0.63500   0.49820   0.68580   0.01267  Uiso   1.00
H23    H     0.56040   0.56450   0.67720   0.01267  Uiso   1.00
H24    H     0.78110   0.56730   0.66430   0.01267  Uiso   1.00
H25    H     0.70640   0.63370   0.65540   0.01267  Uiso   1.00
H26    H     0.57400   0.67020   0.77340   0.01267  Uiso   1.00
H27    H     0.58560   0.72780   0.89260   0.01267  Uiso   1.00
H28    H     0.87520   0.60030   0.77510   0.01267  Uiso   1.00
H29    H     0.87640   0.65280   0.89580   0.01267  Uiso   1.00
H30    H     0.82270   0.47760   0.01130   0.01267  Uiso   1.00
H31    H     0.53850   0.28580   0.91280   0.01267  Uiso   1.00
H32    H     0.40140   0.36910   0.94750   0.01267  Uiso   1.00
H33    H     0.56630   0.46180   0.12610   0.01267  Uiso   1.00
H34    H     0.69910   0.37770   0.08160   0.01267  Uiso   1.00
H35    H     0.30870   0.44970   0.06250   0.01267  Uiso   1.00
H36    H     0.36800   0.51480   0.03760   0.01267  Uiso   1.00
H37    H     0.44070   0.55950   0.15110   0.01267  Uiso   1.00
H38    H     0.38440   0.49300   0.17640   0.01267  Uiso   1.00
H39    H     0.21790   0.54360   0.15050   0.01267  Uiso   1.00
H40    H     0.27880   0.61340   0.13480   0.01267  Uiso   1.00
H41    H     0.12130   0.59220   0.25730   0.01267  Uiso   1.00
H42    H     0.11110   0.65780   0.37330   0.01267  Uiso   1.00
H43    H     0.42380   0.65820   0.25670   0.01267  Uiso   1.00
H44    H     0.40470   0.71930   0.37470   0.01267  Uiso   1.00
H45    H     0.17800   0.48220   0.51540   0.01267  Uiso   1.00
H46    H     0.95120   0.21960   0.03070   0.01267  Uiso   1.00
H47    H     0.08660   0.13430   0.01320   0.01267  Uiso   1.00
H48    H     0.91500   0.00050   0.85730   0.01267  Uiso   1.00
H49    H     0.78560   0.08820   0.88080   0.01267  Uiso   1.00
H50    H     0.17720   0.02610   0.93200   0.01267  Uiso   1.00
H51    H     0.10040   0.96070   0.94030   0.01267  Uiso   1.00
H52    H     0.13500   0.00180   0.81420   0.01267  Uiso   1.00
H53    H     0.06040   0.93550   0.82280   0.01267  Uiso   1.00
H54    H     0.28110   0.93270   0.83570   0.01267  Uiso   1.00
H55    H     0.20640   0.86630   0.84460   0.01267  Uiso   1.00
H56    H     0.07400   0.82980   0.72660   0.01267  Uiso   1.00
H57    H     0.08560   0.77220   0.60740   0.01267  Uiso   1.00
H58    H     0.37520   0.89970   0.72490   0.01267  Uiso   1.00
H59    H     0.37640   0.84720   0.60420   0.01267  Uiso   1.00
H60    H     0.32270   0.02240   0.48870   0.01267  Uiso   1.00
H61    H     0.96150   0.78580   0.41280   0.01267  Uiso   1.00
H62    H     0.09860   0.86910   0.44750   0.01267  Uiso   1.00
H63    H     0.93370   0.96180   0.62610   0.01267  Uiso   1.00
H64    H     0.80090   0.87770   0.58160   0.01267  Uiso   1.00
H65    H     0.19130   0.94970   0.56250   0.01267  Uiso   1.00
H66    H     0.13200   0.01480   0.53760   0.01267  Uiso   1.00
H67    H     0.05930   0.05950   0.65110   0.01267  Uiso   1.00
H68    H     0.11560   0.99300   0.67640   0.01267  Uiso   1.00
H69    H     0.28210   0.04360   0.65050   0.01267  Uiso   1.00
H70    H     0.22120   0.11340   0.63480   0.01267  Uiso   1.00
H71    H     0.37870   0.09220   0.75730   0.01267  Uiso   1.00
H72    H     0.38890   0.15780   0.87330   0.01267  Uiso   1.00
H73    H     0.07620   0.15820   0.75670   0.01267  Uiso   1.00
H74    H     0.09530   0.21930   0.87470   0.01267  Uiso   1.00
H75    H     0.32200   0.98220   0.01540   0.01267  Uiso   1.00
H76    H     0.54880   0.71960   0.53070   0.01267  Uiso   1.00
H77    H     0.41340   0.63430   0.51320   0.01267  Uiso   1.00
H78    H     0.58500   0.50050   0.35730   0.01267  Uiso   1.00
H79    H     0.71440   0.58820   0.38080   0.01267  Uiso   1.00
H80    H     0.32280   0.52610   0.43200   0.01267  Uiso   1.00
H81    H     0.39960   0.46070   0.44030   0.01267  Uiso   1.00
H82    H     0.36500   0.50180   0.31420   0.01267  Uiso   1.00
H83    H     0.43960   0.43550   0.32280   0.01267  Uiso   1.00
H84    H     0.21890   0.43270   0.33570   0.01267  Uiso   1.00
H85    H     0.29360   0.36630   0.34460   0.01267  Uiso   1.00
H86    H     0.42600   0.32980   0.22660   0.01267  Uiso   1.00
H87    H     0.41440   0.27220   0.10740   0.01267  Uiso   1.00
H88    H     0.12480   0.39970   0.22490   0.01267  Uiso   1.00
H89    H     0.12360   0.34720   0.10420   0.01267  Uiso   1.00
H90    H     0.17730   0.52240   0.98870   0.01267  Uiso   1.00
H91    H     0.46150   0.71420   0.08720   0.01267  Uiso   1.00
H92    H     0.59860   0.63090   0.05250   0.01267  Uiso   1.00
H93    H     0.43370   0.53820   0.87390   0.01267  Uiso   1.00
H94    H     0.30090   0.62230   0.91840   0.01267  Uiso   1.00
H95    H     0.69130   0.55030   0.93750   0.01267  Uiso   1.00
H96    H     0.63200   0.48520   0.96240   0.01267  Uiso   1.00
H97    H     0.55930   0.44050   0.84890   0.01267  Uiso   1.00
H98    H     0.61560   0.50700   0.82360   0.01267  Uiso   1.00
H99    H     0.78210   0.45640   0.84950   0.01267  Uiso   1.00
H100   H     0.72120   0.38660   0.86520   0.01267  Uiso   1.00
H101   H     0.87870   0.40780   0.74270   0.01267  Uiso   1.00
H102   H     0.88890   0.34220   0.62670   0.01267  Uiso   1.00
H103   H     0.57620   0.34180   0.74330   0.01267  Uiso   1.00
H104   H     0.59530   0.28070   0.62530   0.01267  Uiso   1.00
H105   H     0.82200   0.51780   0.48460   0.01267  Uiso   1.00
H106   H     0.04880   0.78040   0.96930   0.01267  Uiso   1.00
H107   H     0.91340   0.86570   0.98680   0.01267  Uiso   1.00
H108   H     0.08500   0.99950   0.14270   0.01267  Uiso   1.00
H109   H     0.21440   0.91180   0.11920   0.01267  Uiso   1.00
H110   H     0.82280   0.97390   0.06800   0.01267  Uiso   1.00
H111   H     0.89960   0.03930   0.05970   0.01267  Uiso   1.00
H112   H     0.86500   0.99820   0.18580   0.01267  Uiso   1.00
H113   H     0.93960   0.06450   0.17720   0.01267  Uiso   1.00
H114   H     0.71890   0.06730   0.16430   0.01267  Uiso   1.00
H115   H     0.79360   0.13370   0.15540   0.01267  Uiso   1.00
H116   H     0.92600   0.17020   0.27340   0.01267  Uiso   1.00
H117   H     0.91440   0.22780   0.39260   0.01267  Uiso   1.00
H118   H     0.62480   0.10030   0.27510   0.01267  Uiso   1.00
H119   H     0.62360   0.15280   0.39580   0.01267  Uiso   1.00
H120   H     0.67730   0.97760   0.51130   0.01267  Uiso   1.00
C1     C     0.04400   0.17770   0.54390   0.01267  Uiso   1.00
C2     C     0.96040   0.12830   0.52320   0.01267  Uiso   1.00
C3     C     0.96480   0.07380   0.45720   0.01267  Uiso   1.00
C4     C     0.05810   0.07310   0.41790   0.01267  Uiso   1.00
C5     C     0.13720   0.12440   0.44490   0.01267  Uiso   1.00
C6     C     0.87340   0.02020   0.43160   0.01267  Uiso   1.00
C7     C     0.87840   0.97310   0.35530   0.01267  Uiso   1.00
C8     C     0.77970   0.92390   0.33660   0.01267  Uiso   1.00
C9     C     0.77080   0.88110   0.25770   0.01267  Uiso   1.00
C10    C     0.68030   0.88120   0.22060   0.01267  Uiso   1.00
C11    C     0.67540   0.84210   0.15020   0.01267  Uiso   1.00
C12    C     0.85900   0.84250   0.22050   0.01267  Uiso   1.00
C13    C     0.84650   0.80600   0.14990   0.01267  Uiso   1.00
C14    C     0.64870   0.87250   0.97700   0.01267  Uiso   1.00
C15    C     0.56930   0.93730   0.98660   0.01267  Uiso   1.00
C16    C     0.60590   0.01080   0.99090   0.01267  Uiso   1.00
C17    C     0.45890   0.92680   0.99600   0.01267  Uiso   1.00
C18    C     0.40830   0.85060   0.98650   0.01267  Uiso   1.00
C19    C     0.44450   0.32520   0.50540   0.01267  Uiso   1.00
C20    C     0.52680   0.37630   0.51570   0.01267  Uiso   1.00
C21    C     0.52160   0.44330   0.56860   0.01267  Uiso   1.00
C22    C     0.42510   0.45470   0.60710   0.01267  Uiso   1.00
C23    C     0.34820   0.40190   0.59310   0.01267  Uiso   1.00
C24    C     0.61180   0.50030   0.58560   0.01267  Uiso   1.00
C25    C     0.62570   0.53770   0.66020   0.01267  Uiso   1.00
C26    C     0.71520   0.59370   0.68050   0.01267  Uiso   1.00
C27    C     0.72430   0.62970   0.75730   0.01267  Uiso   1.00
C28    C     0.63770   0.66770   0.79690   0.01267  Uiso   1.00
C29    C     0.64380   0.70130   0.86900   0.01267  Uiso   1.00
C30    C     0.81510   0.62520   0.79730   0.01267  Uiso   1.00
C31    C     0.81560   0.65780   0.87020   0.01267  Uiso   1.00
C32    C     0.85000   0.62440   0.04790   0.01267  Uiso   1.00
C33    C     0.93040   0.56130   0.02600   0.01267  Uiso   1.00
C34    C     0.89450   0.48690   0.00650   0.01267  Uiso   1.00
C35    C     0.03820   0.57540   0.02030   0.01267  Uiso   1.00
C36    C     0.08670   0.65350   0.05050   0.01267  Uiso   1.00
C37    C     0.54400   0.32230   0.95610   0.01267  Uiso   1.00
C38    C     0.46040   0.37170   0.97680   0.01267  Uiso   1.00
C39    C     0.46480   0.42620   0.04280   0.01267  Uiso   1.00
C40    C     0.55810   0.42690   0.08210   0.01267  Uiso   1.00
C41    C     0.63720   0.37560   0.05510   0.01267  Uiso   1.00
C42    C     0.37340   0.47980   0.06840   0.01267  Uiso   1.00
C43    C     0.37840   0.52690   0.14470   0.01267  Uiso   1.00
C44    C     0.27970   0.57610   0.16340   0.01267  Uiso   1.00
C45    C     0.27080   0.61890   0.24230   0.01267  Uiso   1.00
C46    C     0.18030   0.61880   0.27940   0.01267  Uiso   1.00
C47    C     0.17540   0.65790   0.34980   0.01267  Uiso   1.00
C48    C     0.35900   0.65750   0.27950   0.01267  Uiso   1.00
C49    C     0.34650   0.69400   0.35010   0.01267  Uiso   1.00
C50    C     0.14870   0.62750   0.52300   0.01267  Uiso   1.00
C51    C     0.06930   0.56270   0.51340   0.01267  Uiso   1.00
C52    C     0.10590   0.48920   0.50910   0.01267  Uiso   1.00
C53    C     0.95890   0.57320   0.50400   0.01267  Uiso   1.00
C54    C     0.90830   0.64940   0.51350   0.01267  Uiso   1.00
C55    C     0.94450   0.17480   0.99460   0.01267  Uiso   1.00
C56    C     0.02680   0.12370   0.98430   0.01267  Uiso   1.00
C57    C     0.02160   0.05670   0.93140   0.01267  Uiso   1.00
C58    C     0.92510   0.04530   0.89290   0.01267  Uiso   1.00
C59    C     0.84820   0.09810   0.90690   0.01267  Uiso   1.00
C60    C     0.11180   0.99970   0.91440   0.01267  Uiso   1.00
C61    C     0.12570   0.96230   0.83980   0.01267  Uiso   1.00
C62    C     0.21520   0.90630   0.81950   0.01267  Uiso   1.00
C63    C     0.22430   0.87030   0.74270   0.01267  Uiso   1.00
C64    C     0.13770   0.83230   0.70310   0.01267  Uiso   1.00
C65    C     0.14380   0.79870   0.63100   0.01267  Uiso   1.00
C66    C     0.31510   0.87480   0.70270   0.01267  Uiso   1.00
C67    C     0.31560   0.84220   0.62980   0.01267  Uiso   1.00
C68    C     0.35000   0.87560   0.45210   0.01267  Uiso   1.00
C69    C     0.43040   0.93870   0.47400   0.01267  Uiso   1.00
C70    C     0.39450   0.01310   0.49350   0.01267  Uiso   1.00
C71    C     0.53820   0.92460   0.47970   0.01267  Uiso   1.00
C72    C     0.58670   0.84650   0.44950   0.01267  Uiso   1.00
C73    C     0.95600   0.82230   0.45610   0.01267  Uiso   1.00
C74    C     0.03960   0.87170   0.47680   0.01267  Uiso   1.00
C75    C     0.03520   0.92620   0.54280   0.01267  Uiso   1.00
C76    C     0.94190   0.92690   0.58210   0.01267  Uiso   1.00
C77    C     0.86280   0.87560   0.55510   0.01267  Uiso   1.00
C78    C     0.12660   0.97980   0.56840   0.01267  Uiso   1.00
C79    C     0.12160   0.02690   0.64470   0.01267  Uiso   1.00
C80    C     0.22030   0.07610   0.66340   0.01267  Uiso   1.00
C81    C     0.22920   0.11890   0.74230   0.01267  Uiso   1.00
C82    C     0.31970   0.11880   0.77940   0.01267  Uiso   1.00
C83    C     0.32460   0.15790   0.84980   0.01267  Uiso   1.00
C84    C     0.14100   0.15750   0.77950   0.01267  Uiso   1.00
C85    C     0.15350   0.19400   0.85010   0.01267  Uiso   1.00
C86    C     0.35130   0.12750   0.02300   0.01267  Uiso   1.00
C87    C     0.43070   0.06270   0.01340   0.01267  Uiso   1.00
C88    C     0.39410   0.98920   0.00910   0.01267  Uiso   1.00
C89    C     0.54110   0.07320   0.00400   0.01267  Uiso   1.00
C90    C     0.59170   0.14940   0.01350   0.01267  Uiso   1.00
C91    C     0.55550   0.67480   0.49460   0.01267  Uiso   1.00
C92    C     0.47320   0.62370   0.48430   0.01267  Uiso   1.00
C93    C     0.47840   0.55670   0.43140   0.01267  Uiso   1.00
C94    C     0.57490   0.54530   0.39290   0.01267  Uiso   1.00
C95    C     0.65180   0.59810   0.40690   0.01267  Uiso   1.00
C96    C     0.38820   0.49970   0.41440   0.01267  Uiso   1.00
C97    C     0.37430   0.46230   0.33980   0.01267  Uiso   1.00
C98    C     0.28480   0.40630   0.31950   0.01267  Uiso   1.00
C99    C     0.27570   0.37030   0.24270   0.01267  Uiso   1.00
C100   C     0.36230   0.33230   0.20310   0.01267  Uiso   1.00
C101   C     0.35620   0.29870   0.13100   0.01267  Uiso   1.00
C102   C     0.18490   0.37480   0.20270   0.01267  Uiso   1.00
C103   C     0.18440   0.34220   0.12980   0.01267  Uiso   1.00
C104   C     0.15000   0.37560   0.95210   0.01267  Uiso   1.00
C105   C     0.06960   0.43870   0.97400   0.01267  Uiso   1.00
C106   C     0.10550   0.51310   0.99350   0.01267  Uiso   1.00
C107   C     0.96180   0.42460   0.97970   0.01267  Uiso   1.00
C108   C     0.91330   0.34650   0.94950   0.01267  Uiso   1.00
C109   C     0.45600   0.67770   0.04390   0.01267  Uiso   1.00
C110   C     0.53960   0.62830   0.02320   0.01267  Uiso   1.00
C111   C     0.53520   0.57380   0.95720   0.01267  Uiso   1.00
C112   C     0.44190   0.57310   0.91790   0.01267  Uiso   1.00
C113   C     0.36280   0.62440   0.94490   0.01267  Uiso   1.00
C114   C     0.62660   0.52020   0.93160   0.01267  Uiso   1.00
C115   C     0.62160   0.47310   0.85530   0.01267  Uiso   1.00
C116   C     0.72030   0.42390   0.83660   0.01267  Uiso   1.00
C117   C     0.72920   0.38110   0.75770   0.01267  Uiso   1.00
C118   C     0.81970   0.38120   0.72060   0.01267  Uiso   1.00
C119   C     0.82460   0.34210   0.65020   0.01267  Uiso   1.00
C120   C     0.64100   0.34250   0.72050   0.01267  Uiso   1.00
C121   C     0.65350   0.30600   0.64990   0.01267  Uiso   1.00
C122   C     0.85130   0.37250   0.47700   0.01267  Uiso   1.00
C123   C     0.93070   0.43730   0.48660   0.01267  Uiso   1.00
C124   C     0.89410   0.51080   0.49090   0.01267  Uiso   1.00
C125   C     0.04110   0.42680   0.49600   0.01267  Uiso   1.00
C126   C     0.09170   0.35060   0.48650   0.01267  Uiso   1.00
C127   C     0.05550   0.82520   0.00540   0.01267  Uiso   1.00
C128   C     0.97320   0.87630   0.01570   0.01267  Uiso   1.00
C129   C     0.97840   0.94330   0.06860   0.01267  Uiso   1.00
C130   C     0.07490   0.95470   0.10710   0.01267  Uiso   1.00
C131   C     0.15180   0.90190   0.09310   0.01267  Uiso   1.00
C132   C     0.88820   0.00030   0.08560   0.01267  Uiso   1.00
C133   C     0.87430   0.03770   0.16020   0.01267  Uiso   1.00
C134   C     0.78480   0.09370   0.18050   0.01267  Uiso   1.00
C135   C     0.77570   0.12970   0.25730   0.01267  Uiso   1.00
C136   C     0.86230   0.16770   0.29690   0.01267  Uiso   1.00
C137   C     0.85620   0.20130   0.36900   0.01267  Uiso   1.00
C138   C     0.68490   0.12520   0.29730   0.01267  Uiso   1.00
C139   C     0.68440   0.15780   0.37020   0.01267  Uiso   1.00
C140   C     0.65000   0.12440   0.54790   0.01267  Uiso   1.00
C141   C     0.56960   0.06130   0.52600   0.01267  Uiso   1.00
C142   C     0.60550   0.98690   0.50650   0.01267  Uiso   1.00
C143   C     0.46180   0.07540   0.52030   0.01267  Uiso   1.00
C144   C     0.41330   0.15350   0.55050   0.01267  Uiso   1.00
N1     N     0.13090   0.17670   0.50660   0.01267  Uiso   1.00
N2     N     0.75380   0.80480   0.11390   0.01267  Uiso   1.00
N3     N     0.73330   0.69620   0.90570   0.01267  Uiso   1.00
N4     N     0.35660   0.33510   0.54290   0.01267  Uiso   1.00
N5     N     0.63090   0.32330   0.99340   0.01267  Uiso   1.00
N6     N     0.25380   0.69520   0.38610   0.01267  Uiso   1.00
N7     N     0.23330   0.80380   0.59430   0.01267  Uiso   1.00
N8     N     0.85660   0.16490   0.95710   0.01267  Uiso   1.00
N9     N     0.86910   0.82330   0.49340   0.01267  Uiso   1.00
N10    N     0.24620   0.19520   0.88610   0.01267  Uiso   1.00
N11    N     0.26670   0.30380   0.09430   0.01267  Uiso   1.00
N12    N     0.64340   0.66490   0.45710   0.01267  Uiso   1.00
N13    N     0.36910   0.67670   0.00660   0.01267  Uiso   1.00
N14    N     0.74620   0.30480   0.61390   0.01267  Uiso   1.00
N15    N     0.76670   0.19620   0.40570   0.01267  Uiso   1.00
N16    N     0.14340   0.83510   0.04290   0.01267  Uiso   1.00
O1     O     0.62480   0.81620   0.00290   0.01267  Uiso   1.00
O2     O     0.73540   0.87850   0.94800   0.01267  Uiso   1.00
O3     O     0.40480   0.80720   0.92630   0.01267  Uiso   1.00
O4     O     0.36430   0.83890   0.04170   0.01267  Uiso   1.00
O5     O     0.85730   0.67810   0.01700   0.01267  Uiso   1.00
O6     O     0.77700   0.61850   0.08950   0.01267  Uiso   1.00
O7     O     0.15260   0.67300   0.00980   0.01267  Uiso   1.00
O8     O     0.06190   0.69100   0.11050   0.01267  Uiso   1.00
O9     O     0.12480   0.68380   0.49710   0.01267  Uiso   1.00
O10    O     0.23540   0.62150   0.55200   0.01267  Uiso   1.00
O11    O     0.90480   0.69280   0.57370   0.01267  Uiso   1.00
O12    O     0.86430   0.66110   0.45830   0.01267  Uiso   1.00
O13    O     0.35730   0.82190   0.48300   0.01267  Uiso   1.00
O14    O     0.27700   0.88150   0.41050   0.01267  Uiso   1.00
O15    O     0.65260   0.82700   0.49020   0.01267  Uiso   1.00
O16    O     0.56190   0.80900   0.38950   0.01267  Uiso   1.00
O17    O     0.37520   0.18380   0.99710   0.01267  Uiso   1.00
O18    O     0.26460   0.12150   0.05200   0.01267  Uiso   1.00
O19    O     0.59520   0.19280   0.07370   0.01267  Uiso   1.00
O20    O     0.63570   0.16110   0.95830   0.01267  Uiso   1.00
O21    O     0.14270   0.32190   0.98300   0.01267  Uiso   1.00
O22    O     0.22300   0.38150   0.91050   0.01267  Uiso   1.00
O23    O     0.84740   0.32700   0.99020   0.01267  Uiso   1.00
O24    O     0.93810   0.30900   0.88950   0.01267  Uiso   1.00
O25    O     0.87520   0.31620   0.50290   0.01267  Uiso   1.00
O26    O     0.76460   0.37850   0.44800   0.01267  Uiso   1.00
O27    O     0.09520   0.30720   0.42630   0.01267  Uiso   1.00
O28    O     0.13570   0.33890   0.54170   0.01267  Uiso   1.00
O29    O     0.64270   0.17810   0.51700   0.01267  Uiso   1.00
O30    O     0.72300   0.11850   0.58950   0.01267  Uiso   1.00
O31    O     0.34740   0.17300   0.50980   0.01267  Uiso   1.00
O32    O     0.43810   0.19100   0.61050   0.01267  Uiso   1.00
