data_image0
_cell_length_a       15.1321
_cell_length_b       16.9762
_cell_length_c       17.0413
_cell_angle_alpha    110.922
_cell_angle_beta     93.255
_cell_angle_gamma    97.511

_symmetry_space_group_name_H-M    "P 1"
_symmetry_int_tables_number       1

loop_
  _symmetry_equiv_pos_as_xyz
  'x, y, z'

loop_
  _atom_site_label
  _atom_site_occupancy
  _atom_site_fract_x
  _atom_site_fract_y
  _atom_site_fract_z
  _atom_site_thermal_displace_type
  _atom_site_B_iso_or_equiv
  _atom_site_type_symbol
  Eu1      1.0000 0.05785  0.62127  0.52860  Biso   1.000  Eu
  Eu2      1.0000 0.94761  0.97034  0.88081  Biso   1.000  Eu
  Eu3      1.0000 0.00793  0.86027  0.64410  Biso   1.000  Eu
  O1       1.0000 0.91860  0.24760  0.33510  Biso   1.000  O
  O2       1.0000 0.92610  0.83440  0.75050  Biso   1.000  O
  O3       1.0000 0.82060  0.03820  0.94100  Biso   1.000  O
  O4       1.0000 0.88130  0.27590  0.52420  Biso   1.000  O
  O5       1.0000 0.92080  0.03550  0.03870  Biso   1.000  O
  O6       1.0000 0.05650  0.28690  0.46680  Biso   1.000  O
  O7       1.0000 0.06870  0.96960  0.78970  Biso   1.000  O
  O8       1.0000 0.92070  0.53720  0.53550  Biso   1.000  O
  O9       1.0000 0.89660  0.01930  0.77560  Biso   1.000  O
  O10      1.0000 0.81410  0.43720  0.53950  Biso   1.000  O
  O11      1.0000 0.99940  0.56000  0.38280  Biso   1.000  O
  O12      1.0000 0.07480  0.15000  0.07270  Biso   1.000  O
  O13      1.0000 0.00890  0.11760  0.93960  Biso   1.000  O
  O14      1.0000 0.80360  0.86830  0.80860  Biso   1.000  O
  O15      1.0000 0.14160  0.18610  0.43140  Biso   1.000  O
  O16      1.0000 0.79860  0.30430  0.37060  Biso   1.000  O
  O17      1.0000 0.92990  0.15060  0.47850  Biso   1.000  O
  O18      1.0000 0.92990  0.42580  0.35500  Biso   1.000  O
  O19      1.0000 0.16000  0.93850  0.68990  Biso   1.000  O
  O20      1.0000 0.95700  0.98490  0.65340  Biso   1.000  O
  N1       1.0000 0.52610  0.12190  0.02130  Biso   1.000  N
  C1       1.0000 0.95930  0.48550  0.33290  Biso   1.000  C
  N2       1.0000 0.51960  0.51930  0.62030  Biso   1.000  N
  C2       1.0000 0.04580  0.16970  0.01300  Biso   1.000  C
  H1       1.0000 0.05170  0.22900  0.02280  Biso   1.000  H
  C3       1.0000 0.90640  0.11680  0.70470  Biso   1.000  C
  C4       1.0000 0.90280  0.21110  0.53540  Biso   1.000  C
  C5       1.0000 0.79450  0.21090  0.22750  Biso   1.000  C
  C6       1.0000 0.89530  0.20130  0.61820  Biso   1.000  C
  C7       1.0000 0.88400  0.27120  0.68900  Biso   1.000  C
  H2       1.0000 0.87660  0.32400  0.68410  Biso   1.000  H
  C8       1.0000 0.80320  0.11810  0.08340  Biso   1.000  C
  C9       1.0000 0.84410  0.81490  0.75970  Biso   1.000  C
  C10      1.0000 0.14850  0.97670  0.76570  Biso   1.000  C
  C11      1.0000 0.91940  0.03510  0.71270  Biso   1.000  C
  C12      1.0000 0.90790  0.12530  0.62730  Biso   1.000  C
  H3       1.0000 0.91780  0.07840  0.57940  Biso   1.000  H
  C13      1.0000 0.88370  0.26210  0.76760  Biso   1.000  C
  C14      1.0000 0.79960  0.58210  0.61630  Biso   1.000  C
  C15      1.0000 0.84370  0.66360  0.66560  Biso   1.000  C
  H4       1.0000 0.90690  0.67680  0.66770  Biso   1.000  H
  C16      1.0000 0.83820  0.25680  0.31580  Biso   1.000  C
  C17      1.0000 0.79620  0.72550  0.71170  Biso   1.000  C
  C18      1.0000 0.89260  0.18540  0.77530  Biso   1.000  C
  H5       1.0000 0.88930  0.17930  0.82840  Biso   1.000  H
  C19      1.0000 0.85120  0.06020  0.01690  Biso   1.000  C
  C20      1.0000 0.84800  0.51550  0.56110  Biso   1.000  C
  C21      1.0000 0.84400  0.16450  0.16480  Biso   1.000  C
  H6       1.0000 0.90580  0.16480  0.17830  Biso   1.000  H
  C22      1.0000 0.22690  0.02650  0.82910  Biso   1.000  C
  C23      1.0000 0.13250  0.26170  0.47180  Biso   1.000  C
  C24      1.0000 0.71460  0.12090  0.06340  Biso   1.000  C
  H7       1.0000 0.68710  0.09030  0.00720  Biso   1.000  H
  C25      1.0000 0.70880  0.56100  0.61780  Biso   1.000  C
  H8       1.0000 0.67880  0.50450  0.58650  Biso   1.000  H
  C26      1.0000 0.21290  0.08300  0.90950  Biso   1.000  C
  H9       1.0000 0.15440  0.09560  0.92010  Biso   1.000  H
  C27      1.0000 0.20060  0.40490  0.58010  Biso   1.000  C
  H10      1.0000 0.14200  0.41450  0.59380  Biso   1.000  H
  C28      1.0000 0.31370  0.01490  0.81280  Biso   1.000  C
  H11      1.0000 0.32460  0.98070  0.75760  Biso   1.000  H
  C29      1.0000 0.70430  0.21250  0.20610  Biso   1.000  C
  H12      1.0000 0.67030  0.24420  0.24800  Biso   1.000  H
  C30      1.0000 0.29830  0.30960  0.50930  Biso   1.000  C
  H13      1.0000 0.30730  0.25450  0.47360  Biso   1.000  H
  C31      1.0000 0.21180  0.32580  0.52280  Biso   1.000  C
  C32      1.0000 0.28360  0.12040  0.97340  Biso   1.000  C
  H14      1.0000 0.27310  0.15580  0.02820  Biso   1.000  H
  C33      1.0000 0.70460  0.70510  0.71210  Biso   1.000  C
  H15      1.0000 0.67180  0.74730  0.74420  Biso   1.000  H
  C34      1.0000 0.87920  0.33880  0.84520  Biso   1.000  C
  N3       1.0000 0.43480  0.19710  0.10060  Biso   1.000  N
  C35      1.0000 0.27170  0.46970  0.61750  Biso   1.000  C
  H16      1.0000 0.26230  0.52420  0.65450  Biso   1.000  H
  N4       1.0000 0.89670  0.33470  0.92350  Biso   1.000  N
  C36      1.0000 0.66430  0.16790  0.12410  Biso   1.000  C
  C37      1.0000 0.66110  0.62310  0.66570  Biso   1.000  C
  C38      1.0000 0.38460  0.05190  0.87530  Biso   1.000  C
  H17      1.0000 0.44340  0.04110  0.86350  Biso   1.000  H
  C39      1.0000 0.35710  0.45390  0.60000  Biso   1.000  C
  N5       1.0000 0.50700  0.64840  0.70440  Biso   1.000  N
  N6       1.0000 0.51490  0.21260  0.14820  Biso   1.000  N
  C40      1.0000 0.57010  0.16860  0.09890  Biso   1.000  C
  C41      1.0000 0.56370  0.59700  0.66470  Biso   1.000  C
  N7       1.0000 0.42460  0.60140  0.68850  Biso   1.000  N
  C42      1.0000 0.37030  0.10540  0.95630  Biso   1.000  C
  C43      1.0000 0.44420  0.14080  0.02490  Biso   1.000  C
  C44      1.0000 0.43350  0.52400  0.63670  Biso   1.000  C
  N8       1.0000 0.86240  0.41090  0.84890  Biso   1.000  N
  C45      1.0000 0.37200  0.37330  0.54750  Biso   1.000  C
  H18      1.0000 0.43120  0.36220  0.53810  Biso   1.000  H
  C46      1.0000 0.94000  0.53530  0.21150  Biso   1.000  C
  H19      1.0000 0.95040  0.59330  0.24910  Biso   1.000  H
  C47      1.0000 0.94330  0.47060  0.24320  Biso   1.000  C
  C48      1.0000 0.92230  0.51630  0.12820  Biso   1.000  C
  H20      1.0000 0.92070  0.56180  0.10840  Biso   1.000  H
  N9       1.0000 0.86500  0.45840  0.93600  Biso   1.000  N
  C49      1.0000 0.88700  0.41350  0.97570  Biso   1.000  C
  C50      1.0000 0.90580  0.43180  0.06890  Biso   1.000  C
  C51      1.0000 0.92270  0.38610  0.18680  Biso   1.000  C
  H21      1.0000 0.91940  0.34140  0.20830  Biso   1.000  H
  C52      1.0000 0.90680  0.36500  0.09950  Biso   1.000  C
  H22      1.0000 0.89690  0.30710  0.06170  Biso   1.000  H
  Eu4      1.0000 0.94215  0.37873  0.47140  Biso   1.000  Eu
  Eu5      1.0000 0.05239  0.02966  0.11919  Biso   1.000  Eu
  Eu6      1.0000 0.99207  0.13973  0.35590  Biso   1.000  Eu
  O21      1.0000 0.08140  0.75240  0.66490  Biso   1.000  O
  O22      1.0000 0.07390  0.16560  0.24950  Biso   1.000  O
  O23      1.0000 0.17940  0.96180  0.05900  Biso   1.000  O
  O24      1.0000 0.11870  0.72410  0.47580  Biso   1.000  O
  O25      1.0000 0.07920  0.96450  0.96130  Biso   1.000  O
  O26      1.0000 0.94350  0.71310  0.53320  Biso   1.000  O
  O27      1.0000 0.93130  0.03040  0.21030  Biso   1.000  O
  O28      1.0000 0.07930  0.46280  0.46450  Biso   1.000  O
  O29      1.0000 0.10340  0.98070  0.22440  Biso   1.000  O
  O30      1.0000 0.18590  0.56280  0.46050  Biso   1.000  O
  O31      1.0000 0.00060  0.44000  0.61720  Biso   1.000  O
  O32      1.0000 0.92520  0.85000  0.92730  Biso   1.000  O
  O33      1.0000 0.99110  0.88240  0.06040  Biso   1.000  O
  O34      1.0000 0.19640  0.13170  0.19140  Biso   1.000  O
  O35      1.0000 0.85840  0.81390  0.56860  Biso   1.000  O
  O36      1.0000 0.20140  0.69570  0.62940  Biso   1.000  O
  O37      1.0000 0.07010  0.84940  0.52150  Biso   1.000  O
  O38      1.0000 0.07010  0.57420  0.64500  Biso   1.000  O
  O39      1.0000 0.84000  0.06150  0.31010  Biso   1.000  O
  O40      1.0000 0.04300  0.01510  0.34660  Biso   1.000  O
  N10      1.0000 0.47390  0.87810  0.97870  Biso   1.000  N
  C53      1.0000 0.04070  0.51450  0.66710  Biso   1.000  C
  N11      1.0000 0.48040  0.48070  0.37970  Biso   1.000  N
  C54      1.0000 0.95420  0.83030  0.98700  Biso   1.000  C
  H23      1.0000 0.94830  0.77100  0.97720  Biso   1.000  H
  C55      1.0000 0.09360  0.88320  0.29530  Biso   1.000  C
  C56      1.0000 0.09720  0.78890  0.46460  Biso   1.000  C
  C57      1.0000 0.20550  0.78910  0.77250  Biso   1.000  C
  C58      1.0000 0.10470  0.79870  0.38180  Biso   1.000  C
  C59      1.0000 0.11600  0.72880  0.31100  Biso   1.000  C
  H24      1.0000 0.12340  0.67600  0.31590  Biso   1.000  H
  C60      1.0000 0.19680  0.88190  0.91660  Biso   1.000  C
  C61      1.0000 0.15590  0.18510  0.24030  Biso   1.000  C
  C62      1.0000 0.85150  0.02330  0.23430  Biso   1.000  C
  C63      1.0000 0.08060  0.96490  0.28730  Biso   1.000  C
  C64      1.0000 0.09210  0.87470  0.37270  Biso   1.000  C
  H25      1.0000 0.08220  0.92160  0.42060  Biso   1.000  H
  C65      1.0000 0.11630  0.73790  0.23240  Biso   1.000  C
  C66      1.0000 0.20040  0.41790  0.38370  Biso   1.000  C
  C67      1.0000 0.15630  0.33640  0.33440  Biso   1.000  C
  H26      1.0000 0.09310  0.32320  0.33230  Biso   1.000  H
  C68      1.0000 0.16180  0.74320  0.68420  Biso   1.000  C
  C69      1.0000 0.20380  0.27450  0.28830  Biso   1.000  C
  C70      1.0000 0.10740  0.81460  0.22470  Biso   1.000  C
  H27      1.0000 0.11070  0.82070  0.17160  Biso   1.000  H
  C71      1.0000 0.14880  0.93980  0.98310  Biso   1.000  C
  C72      1.0000 0.15200  0.48450  0.43890  Biso   1.000  C
  C73      1.0000 0.15600  0.83550  0.83520  Biso   1.000  C
  H28      1.0000 0.09420  0.83520  0.82170  Biso   1.000  H
  C74      1.0000 0.77310  0.97350  0.17090  Biso   1.000  C
  C75      1.0000 0.86750  0.73830  0.52820  Biso   1.000  C
  C76      1.0000 0.28540  0.87910  0.93660  Biso   1.000  C
  H29      1.0000 0.31290  0.90970  0.99280  Biso   1.000  H
  C77      1.0000 0.29120  0.43900  0.38220  Biso   1.000  C
  H30      1.0000 0.32120  0.49550  0.41350  Biso   1.000  H
  C78      1.0000 0.78710  0.91700  0.09050  Biso   1.000  C
  H31      1.0000 0.84560  0.90440  0.07990  Biso   1.000  H
  C79      1.0000 0.79940  0.59510  0.41990  Biso   1.000  C
  H32      1.0000 0.85800  0.58550  0.40620  Biso   1.000  H
  C80      1.0000 0.68630  0.98510  0.18720  Biso   1.000  C
  H33      1.0000 0.67540  0.01930  0.24240  Biso   1.000  H
  C81      1.0000 0.29570  0.78750  0.79390  Biso   1.000  C
  H34      1.0000 0.32970  0.75580  0.75200  Biso   1.000  H
  C82      1.0000 0.70170  0.69040  0.49070  Biso   1.000  C
  H35      1.0000 0.69270  0.74550  0.52640  Biso   1.000  H
  C83      1.0000 0.78820  0.67420  0.47720  Biso   1.000  C
  C84      1.0000 0.71640  0.87960  0.02660  Biso   1.000  C
  H36      1.0000 0.72690  0.84420  0.97180  Biso   1.000  H
  C85      1.0000 0.29540  0.29490  0.28790  Biso   1.000  C
  H37      1.0000 0.32820  0.25270  0.25580  Biso   1.000  H
  C86      1.0000 0.12080  0.66120  0.15480  Biso   1.000  C
  N12      1.0000 0.56520  0.80290  0.89940  Biso   1.000  N
  C87      1.0000 0.72830  0.53030  0.38250  Biso   1.000  C
  H38      1.0000 0.73770  0.47580  0.34550  Biso   1.000  H
  N13      1.0000 0.10330  0.66530  0.07650  Biso   1.000  N
  C88      1.0000 0.33570  0.83210  0.87590  Biso   1.000  C
  C89      1.0000 0.33890  0.37690  0.33430  Biso   1.000  C
  C90      1.0000 0.61540  0.94810  0.12470  Biso   1.000  C
  H39      1.0000 0.55660  0.95890  0.13650  Biso   1.000  H
  C91      1.0000 0.64290  0.54610  0.40000  Biso   1.000  C
  N14      1.0000 0.49300  0.35160  0.29560  Biso   1.000  N
  N15      1.0000 0.48510  0.78740  0.85180  Biso   1.000  N
  C92      1.0000 0.42990  0.83140  0.90110  Biso   1.000  C
  C93      1.0000 0.43630  0.40300  0.33530  Biso   1.000  C
  N16      1.0000 0.57540  0.39860  0.31150  Biso   1.000  N
  C94      1.0000 0.62970  0.89460  0.04370  Biso   1.000  C
  C95      1.0000 0.55580  0.85920  0.97510  Biso   1.000  C
  C96      1.0000 0.56650  0.47600  0.36330  Biso   1.000  C
  N17      1.0000 0.13760  0.58910  0.15110  Biso   1.000  N
  C97      1.0000 0.62800  0.62670  0.45250  Biso   1.000  C
  H40      1.0000 0.56880  0.63780  0.46190  Biso   1.000  H
  C98      1.0000 0.06000  0.46470  0.78850  Biso   1.000  C
  H41      1.0000 0.04960  0.40670  0.75090  Biso   1.000  H
  C99      1.0000 0.05670  0.52940  0.75680  Biso   1.000  C
  C100     1.0000 0.07770  0.48370  0.87180  Biso   1.000  C
  H42      1.0000 0.07930  0.43820  0.89160  Biso   1.000  H
  N18      1.0000 0.13500  0.54160  0.06400  Biso   1.000  N
  C101     1.0000 0.11300  0.58650  0.02430  Biso   1.000  C
  C102     1.0000 0.09420  0.56820  0.93110  Biso   1.000  C
  C103     1.0000 0.07730  0.61390  0.81320  Biso   1.000  C
  H43      1.0000 0.08060  0.65860  0.79170  Biso   1.000  H
  C104     1.0000 0.09320  0.63500  0.90050  Biso   1.000  C
  H44      1.0000 0.10310  0.69290  0.93830  Biso   1.000  H
