data_image0
_cell_length_a       11.5002
_cell_length_b       40.7068
_cell_length_c       17.0238
_cell_angle_alpha    90
_cell_angle_beta     90
_cell_angle_gamma    90

_symmetry_space_group_name_H-M    "P 1"
_symmetry_int_tables_number       1

loop_
  _symmetry_equiv_pos_as_xyz
  'x, y, z'

loop_
  _atom_site_label
  _atom_site_occupancy
  _atom_site_fract_x
  _atom_site_fract_y
  _atom_site_fract_z
  _atom_site_thermal_displace_type
  _atom_site_B_iso_or_equiv
  _atom_site_type_symbol
  Tb1      1.0000 0.01962  0.26458  0.43354  Biso   1.000  Tb
  O1       1.0000 0.19300  0.29077  0.44600  Biso   1.000  O
  O2       1.0000 0.04050  0.40285  0.47360  Biso   1.000  O
  H1       1.0000 0.99490  0.41690  0.49250  Biso   1.000  H
  C1       1.0000 0.31020  0.33828  0.43270  Biso   1.000  C
  O3       1.0000 0.21450  0.43511  0.25210  Biso   1.000  O
  O4       1.0000 0.38480  0.28483  0.45130  Biso   1.000  O
  O5       1.0000 0.14930  0.44621  0.44830  Biso   1.000  O
  C2       1.0000 0.54460  0.40009  0.38450  Biso   1.000  C
  C3       1.0000 0.21650  0.35954  0.44560  Biso   1.000  C
  H2       1.0000 0.14220  0.35100  0.45890  Biso   1.000  H
  O6       1.0000 0.96030  0.30171  0.33670  Biso   1.000  O
  N1       1.0000 0.63760  0.38249  0.36140  Biso   1.000  N
  O7       1.0000 0.06979  0.46734  0.22323  Biso   1.000  O
  C4       1.0000 0.23260  0.39301  0.43904  Biso   1.000  C
  C5       1.0000 0.72069  0.40567  0.34912  Biso   1.000  C
  C6       1.0000 0.02250  0.32134  0.29809  Biso   1.000  C
  C7       1.0000 0.10799  0.44036  0.24953  Biso   1.000  C
  C8       1.0000 0.91061  0.42225  0.29642  Biso   1.000  C
  H3       1.0000 0.88460  0.44440  0.29460  Biso   1.000  H
  C9       1.0000 0.87330  0.36467  0.32180  Biso   1.000  C
  H4       1.0000 0.82260  0.34770  0.33900  Biso   1.000  H
  C10      1.0000 0.13730  0.41692  0.45410  Biso   1.000  C
  O8       1.0000 0.11430  0.31295  0.26410  Biso   1.000  O
  C11      1.0000 0.33960  0.40552  0.41720  Biso   1.000  C
  H5       1.0000 0.34880  0.42860  0.41090  Biso   1.000  H
  C12      1.0000 0.43290  0.38507  0.40450  Biso   1.000  C
  C13      1.0000 0.41790  0.35118  0.41160  Biso   1.000  C
  H6       1.0000 0.48140  0.33680  0.40190  Biso   1.000  H
  C14      1.0000 0.29460  0.30178  0.44360  Biso   1.000  C
  C15      1.0000 0.98470  0.35687  0.29640  Biso   1.000  C
  C16      1.0000 0.06120  0.38183  0.27330  Biso   1.000  C
  H7       1.0000 0.13830  0.37660  0.25770  Biso   1.000  H
  C17      1.0000 0.02430  0.41431  0.27320  Biso   1.000  C
  N2       1.0000 0.68550  0.43483  0.36400  Biso   1.000  N
  N3       1.0000 0.56640  0.43159  0.38880  Biso   1.000  N
  C18      1.0000 0.83530  0.39721  0.32240  Biso   1.000  C
  H8       1.0000 0.53910  0.45020  0.39410  Biso   1.000  H
  Tb2      1.0000 0.01962  0.76458  0.93354  Biso   1.000  Tb
  O9       1.0000 0.19300  0.79077  0.94600  Biso   1.000  O
  O10      1.0000 0.04050  0.90285  0.97360  Biso   1.000  O
  H9       1.0000 0.99490  0.91690  0.99250  Biso   1.000  H
  C19      1.0000 0.31020  0.83828  0.93270  Biso   1.000  C
  O11      1.0000 0.21450  0.93511  0.75210  Biso   1.000  O
  O12      1.0000 0.38480  0.78483  0.95130  Biso   1.000  O
  O13      1.0000 0.14930  0.94621  0.94830  Biso   1.000  O
  C20      1.0000 0.54460  0.90009  0.88450  Biso   1.000  C
  C21      1.0000 0.21650  0.85954  0.94560  Biso   1.000  C
  H10      1.0000 0.14220  0.85100  0.95890  Biso   1.000  H
  O14      1.0000 0.96030  0.80171  0.83670  Biso   1.000  O
  N4       1.0000 0.63760  0.88249  0.86140  Biso   1.000  N
  O15      1.0000 0.06979  0.96734  0.72323  Biso   1.000  O
  C22      1.0000 0.23260  0.89301  0.93904  Biso   1.000  C
  C23      1.0000 0.72069  0.90567  0.84912  Biso   1.000  C
  C24      1.0000 0.02250  0.82134  0.79809  Biso   1.000  C
  C25      1.0000 0.10799  0.94036  0.74953  Biso   1.000  C
  C26      1.0000 0.91061  0.92225  0.79642  Biso   1.000  C
  H11      1.0000 0.88460  0.94440  0.79460  Biso   1.000  H
  C27      1.0000 0.87330  0.86467  0.82180  Biso   1.000  C
  H12      1.0000 0.82260  0.84770  0.83900  Biso   1.000  H
  C28      1.0000 0.13730  0.91692  0.95410  Biso   1.000  C
  O16      1.0000 0.11430  0.81295  0.76410  Biso   1.000  O
  C29      1.0000 0.33960  0.90552  0.91720  Biso   1.000  C
  H13      1.0000 0.34880  0.92860  0.91090  Biso   1.000  H
  C30      1.0000 0.43290  0.88507  0.90450  Biso   1.000  C
  C31      1.0000 0.41790  0.85118  0.91160  Biso   1.000  C
  H14      1.0000 0.48140  0.83680  0.90190  Biso   1.000  H
  C32      1.0000 0.29460  0.80178  0.94360  Biso   1.000  C
  C33      1.0000 0.98470  0.85687  0.79640  Biso   1.000  C
  C34      1.0000 0.06120  0.88183  0.77330  Biso   1.000  C
  H15      1.0000 0.13830  0.87660  0.75770  Biso   1.000  H
  C35      1.0000 0.02430  0.91431  0.77320  Biso   1.000  C
  N5       1.0000 0.68550  0.93483  0.86400  Biso   1.000  N
  N6       1.0000 0.56640  0.93159  0.88880  Biso   1.000  N
  C36      1.0000 0.83530  0.89721  0.82240  Biso   1.000  C
  H16      1.0000 0.53910  0.95020  0.89410  Biso   1.000  H
  Tb3      1.0000 0.51962  0.26458  0.93354  Biso   1.000  Tb
  O17      1.0000 0.69300  0.29077  0.94600  Biso   1.000  O
  O18      1.0000 0.54050  0.40285  0.97360  Biso   1.000  O
  H17      1.0000 0.49490  0.41690  0.99250  Biso   1.000  H
  C37      1.0000 0.81020  0.33828  0.93270  Biso   1.000  C
  O19      1.0000 0.71450  0.43511  0.75210  Biso   1.000  O
  O20      1.0000 0.88480  0.28483  0.95130  Biso   1.000  O
  O21      1.0000 0.64930  0.44621  0.94830  Biso   1.000  O
  C38      1.0000 0.04460  0.40009  0.88450  Biso   1.000  C
  C39      1.0000 0.71650  0.35954  0.94560  Biso   1.000  C
  H18      1.0000 0.64220  0.35100  0.95890  Biso   1.000  H
  O22      1.0000 0.46030  0.30171  0.83670  Biso   1.000  O
  N7       1.0000 0.13760  0.38249  0.86140  Biso   1.000  N
  O23      1.0000 0.56979  0.46734  0.72323  Biso   1.000  O
  C40      1.0000 0.73260  0.39301  0.93904  Biso   1.000  C
  C41      1.0000 0.22069  0.40567  0.84912  Biso   1.000  C
  C42      1.0000 0.52250  0.32134  0.79809  Biso   1.000  C
  C43      1.0000 0.60799  0.44036  0.74953  Biso   1.000  C
  C44      1.0000 0.41061  0.42225  0.79642  Biso   1.000  C
  H19      1.0000 0.38460  0.44440  0.79460  Biso   1.000  H
  C45      1.0000 0.37330  0.36467  0.82180  Biso   1.000  C
  H20      1.0000 0.32260  0.34770  0.83900  Biso   1.000  H
  C46      1.0000 0.63730  0.41692  0.95410  Biso   1.000  C
  O24      1.0000 0.61430  0.31295  0.76410  Biso   1.000  O
  C47      1.0000 0.83960  0.40552  0.91720  Biso   1.000  C
  H21      1.0000 0.84880  0.42860  0.91090  Biso   1.000  H
  C48      1.0000 0.93290  0.38507  0.90450  Biso   1.000  C
  C49      1.0000 0.91790  0.35118  0.91160  Biso   1.000  C
  H22      1.0000 0.98140  0.33680  0.90190  Biso   1.000  H
  C50      1.0000 0.79460  0.30178  0.94360  Biso   1.000  C
  C51      1.0000 0.48470  0.35687  0.79640  Biso   1.000  C
  C52      1.0000 0.56120  0.38183  0.77330  Biso   1.000  C
  H23      1.0000 0.63830  0.37660  0.75770  Biso   1.000  H
  C53      1.0000 0.52430  0.41431  0.77320  Biso   1.000  C
  N8       1.0000 0.18550  0.43483  0.86400  Biso   1.000  N
  N9       1.0000 0.06640  0.43159  0.88880  Biso   1.000  N
  C54      1.0000 0.33530  0.39721  0.82240  Biso   1.000  C
  H24      1.0000 0.03910  0.45020  0.89410  Biso   1.000  H
  Tb4      1.0000 0.51962  0.76458  0.43354  Biso   1.000  Tb
  O25      1.0000 0.69300  0.79077  0.44600  Biso   1.000  O
  O26      1.0000 0.54050  0.90285  0.47360  Biso   1.000  O
  H25      1.0000 0.49490  0.91690  0.49250  Biso   1.000  H
  C55      1.0000 0.81020  0.83828  0.43270  Biso   1.000  C
  O27      1.0000 0.71450  0.93511  0.25210  Biso   1.000  O
  O28      1.0000 0.88480  0.78483  0.45130  Biso   1.000  O
  O29      1.0000 0.64930  0.94621  0.44830  Biso   1.000  O
  C56      1.0000 0.04460  0.90009  0.38450  Biso   1.000  C
  C57      1.0000 0.71650  0.85954  0.44560  Biso   1.000  C
  H26      1.0000 0.64220  0.85100  0.45890  Biso   1.000  H
  O30      1.0000 0.46030  0.80171  0.33670  Biso   1.000  O
  N10      1.0000 0.13760  0.88249  0.36140  Biso   1.000  N
  O31      1.0000 0.56979  0.96734  0.22323  Biso   1.000  O
  C58      1.0000 0.73260  0.89301  0.43904  Biso   1.000  C
  C59      1.0000 0.22069  0.90567  0.34912  Biso   1.000  C
  C60      1.0000 0.52250  0.82134  0.29809  Biso   1.000  C
  C61      1.0000 0.60799  0.94036  0.24953  Biso   1.000  C
  C62      1.0000 0.41061  0.92225  0.29642  Biso   1.000  C
  H27      1.0000 0.38460  0.94440  0.29460  Biso   1.000  H
  C63      1.0000 0.37330  0.86467  0.32180  Biso   1.000  C
  H28      1.0000 0.32260  0.84770  0.33900  Biso   1.000  H
  C64      1.0000 0.63730  0.91692  0.45410  Biso   1.000  C
  O32      1.0000 0.61430  0.81295  0.26410  Biso   1.000  O
  C65      1.0000 0.83960  0.90552  0.41720  Biso   1.000  C
  H29      1.0000 0.84880  0.92860  0.41090  Biso   1.000  H
  C66      1.0000 0.93290  0.88507  0.40450  Biso   1.000  C
  C67      1.0000 0.91790  0.85118  0.41160  Biso   1.000  C
  H30      1.0000 0.98140  0.83680  0.40190  Biso   1.000  H
  C68      1.0000 0.79460  0.80178  0.44360  Biso   1.000  C
  C69      1.0000 0.48470  0.85687  0.29640  Biso   1.000  C
  C70      1.0000 0.56120  0.88183  0.27330  Biso   1.000  C
  H31      1.0000 0.63830  0.87660  0.25770  Biso   1.000  H
  C71      1.0000 0.52430  0.91431  0.27320  Biso   1.000  C
  N11      1.0000 0.18550  0.93483  0.36400  Biso   1.000  N
  N12      1.0000 0.06640  0.93159  0.38880  Biso   1.000  N
  C72      1.0000 0.33530  0.89721  0.32240  Biso   1.000  C
  H32      1.0000 0.03910  0.95020  0.39410  Biso   1.000  H
  Tb5      1.0000 0.98038  0.73542  0.43354  Biso   1.000  Tb
  O33      1.0000 0.80700  0.70923  0.44600  Biso   1.000  O
  O34      1.0000 0.95950  0.59715  0.47360  Biso   1.000  O
  H33      1.0000 0.00510  0.58310  0.49250  Biso   1.000  H
  C73      1.0000 0.68980  0.66172  0.43270  Biso   1.000  C
  O35      1.0000 0.78550  0.56489  0.25210  Biso   1.000  O
  O36      1.0000 0.61520  0.71517  0.45130  Biso   1.000  O
  O37      1.0000 0.85070  0.55379  0.44830  Biso   1.000  O
  C74      1.0000 0.45540  0.59991  0.38450  Biso   1.000  C
  C75      1.0000 0.78350  0.64046  0.44560  Biso   1.000  C
  H34      1.0000 0.85780  0.64900  0.45890  Biso   1.000  H
  O38      1.0000 0.03970  0.69829  0.33670  Biso   1.000  O
  N13      1.0000 0.36240  0.61751  0.36140  Biso   1.000  N
  O39      1.0000 0.93021  0.53266  0.22323  Biso   1.000  O
  C76      1.0000 0.76740  0.60699  0.43904  Biso   1.000  C
  C77      1.0000 0.27931  0.59433  0.34912  Biso   1.000  C
  C78      1.0000 0.97750  0.67866  0.29809  Biso   1.000  C
  C79      1.0000 0.89201  0.55964  0.24953  Biso   1.000  C
  C80      1.0000 0.08939  0.57775  0.29642  Biso   1.000  C
  H35      1.0000 0.11540  0.55560  0.29460  Biso   1.000  H
  C81      1.0000 0.12670  0.63533  0.32180  Biso   1.000  C
  H36      1.0000 0.17740  0.65230  0.33900  Biso   1.000  H
  C82      1.0000 0.86270  0.58308  0.45410  Biso   1.000  C
  O40      1.0000 0.88570  0.68705  0.26410  Biso   1.000  O
  C83      1.0000 0.66040  0.59448  0.41720  Biso   1.000  C
  H37      1.0000 0.65120  0.57140  0.41090  Biso   1.000  H
  C84      1.0000 0.56710  0.61493  0.40450  Biso   1.000  C
  C85      1.0000 0.58210  0.64882  0.41160  Biso   1.000  C
  H38      1.0000 0.51860  0.66320  0.40190  Biso   1.000  H
  C86      1.0000 0.70540  0.69822  0.44360  Biso   1.000  C
  C87      1.0000 0.01530  0.64313  0.29640  Biso   1.000  C
  C88      1.0000 0.93880  0.61817  0.27330  Biso   1.000  C
  H39      1.0000 0.86170  0.62340  0.25770  Biso   1.000  H
  C89      1.0000 0.97570  0.58569  0.27320  Biso   1.000  C
  N14      1.0000 0.31450  0.56517  0.36400  Biso   1.000  N
  N15      1.0000 0.43360  0.56841  0.38880  Biso   1.000  N
  C90      1.0000 0.16470  0.60279  0.32240  Biso   1.000  C
  H40      1.0000 0.46090  0.54980  0.39410  Biso   1.000  H
  Tb6      1.0000 0.98038  0.23542  0.93354  Biso   1.000  Tb
  O41      1.0000 0.80700  0.20923  0.94600  Biso   1.000  O
  O42      1.0000 0.95950  0.09715  0.97360  Biso   1.000  O
  H41      1.0000 0.00510  0.08310  0.99250  Biso   1.000  H
  C91      1.0000 0.68980  0.16172  0.93270  Biso   1.000  C
  O43      1.0000 0.78550  0.06489  0.75210  Biso   1.000  O
  O44      1.0000 0.61520  0.21517  0.95130  Biso   1.000  O
  O45      1.0000 0.85070  0.05379  0.94830  Biso   1.000  O
  C92      1.0000 0.45540  0.09991  0.88450  Biso   1.000  C
  C93      1.0000 0.78350  0.14046  0.94560  Biso   1.000  C
  H42      1.0000 0.85780  0.14900  0.95890  Biso   1.000  H
  O46      1.0000 0.03970  0.19829  0.83670  Biso   1.000  O
  N16      1.0000 0.36240  0.11751  0.86140  Biso   1.000  N
  O47      1.0000 0.93021  0.03266  0.72323  Biso   1.000  O
  C94      1.0000 0.76740  0.10699  0.93904  Biso   1.000  C
  C95      1.0000 0.27931  0.09433  0.84912  Biso   1.000  C
  C96      1.0000 0.97750  0.17866  0.79809  Biso   1.000  C
  C97      1.0000 0.89201  0.05964  0.74953  Biso   1.000  C
  C98      1.0000 0.08939  0.07775  0.79642  Biso   1.000  C
  H43      1.0000 0.11540  0.05560  0.79460  Biso   1.000  H
  C99      1.0000 0.12670  0.13533  0.82180  Biso   1.000  C
  H44      1.0000 0.17740  0.15230  0.83900  Biso   1.000  H
  C100     1.0000 0.86270  0.08308  0.95410  Biso   1.000  C
  O48      1.0000 0.88570  0.18705  0.76410  Biso   1.000  O
  C101     1.0000 0.66040  0.09448  0.91720  Biso   1.000  C
  H45      1.0000 0.65120  0.07140  0.91090  Biso   1.000  H
  C102     1.0000 0.56710  0.11493  0.90450  Biso   1.000  C
  C103     1.0000 0.58210  0.14882  0.91160  Biso   1.000  C
  H46      1.0000 0.51860  0.16320  0.90190  Biso   1.000  H
  C104     1.0000 0.70540  0.19822  0.94360  Biso   1.000  C
  C105     1.0000 0.01530  0.14313  0.79640  Biso   1.000  C
  C106     1.0000 0.93880  0.11817  0.77330  Biso   1.000  C
  H47      1.0000 0.86170  0.12340  0.75770  Biso   1.000  H
  C107     1.0000 0.97570  0.08569  0.77320  Biso   1.000  C
  N17      1.0000 0.31450  0.06517  0.86400  Biso   1.000  N
  N18      1.0000 0.43360  0.06841  0.88880  Biso   1.000  N
  C108     1.0000 0.16470  0.10279  0.82240  Biso   1.000  C
  H48      1.0000 0.46090  0.04980  0.89410  Biso   1.000  H
  Tb7      1.0000 0.48038  0.73542  0.93354  Biso   1.000  Tb
  O49      1.0000 0.30700  0.70923  0.94600  Biso   1.000  O
  O50      1.0000 0.45950  0.59715  0.97360  Biso   1.000  O
  H49      1.0000 0.50510  0.58310  0.99250  Biso   1.000  H
  C109     1.0000 0.18980  0.66172  0.93270  Biso   1.000  C
  O51      1.0000 0.28550  0.56489  0.75210  Biso   1.000  O
  O52      1.0000 0.11520  0.71517  0.95130  Biso   1.000  O
  O53      1.0000 0.35070  0.55379  0.94830  Biso   1.000  O
  C110     1.0000 0.95540  0.59991  0.88450  Biso   1.000  C
  C111     1.0000 0.28350  0.64046  0.94560  Biso   1.000  C
  H50      1.0000 0.35780  0.64900  0.95890  Biso   1.000  H
  O54      1.0000 0.53970  0.69829  0.83670  Biso   1.000  O
  N19      1.0000 0.86240  0.61751  0.86140  Biso   1.000  N
  O55      1.0000 0.43021  0.53266  0.72323  Biso   1.000  O
  C112     1.0000 0.26740  0.60699  0.93904  Biso   1.000  C
  C113     1.0000 0.77931  0.59433  0.84912  Biso   1.000  C
  C114     1.0000 0.47750  0.67866  0.79809  Biso   1.000  C
  C115     1.0000 0.39201  0.55964  0.74953  Biso   1.000  C
  C116     1.0000 0.58939  0.57775  0.79642  Biso   1.000  C
  H51      1.0000 0.61540  0.55560  0.79460  Biso   1.000  H
  C117     1.0000 0.62670  0.63533  0.82180  Biso   1.000  C
  H52      1.0000 0.67740  0.65230  0.83900  Biso   1.000  H
  C118     1.0000 0.36270  0.58308  0.95410  Biso   1.000  C
  O56      1.0000 0.38570  0.68705  0.76410  Biso   1.000  O
  C119     1.0000 0.16040  0.59448  0.91720  Biso   1.000  C
  H53      1.0000 0.15120  0.57140  0.91090  Biso   1.000  H
  C120     1.0000 0.06710  0.61493  0.90450  Biso   1.000  C
  C121     1.0000 0.08210  0.64882  0.91160  Biso   1.000  C
  H54      1.0000 0.01860  0.66320  0.90190  Biso   1.000  H
  C122     1.0000 0.20540  0.69822  0.94360  Biso   1.000  C
  C123     1.0000 0.51530  0.64313  0.79640  Biso   1.000  C
  C124     1.0000 0.43880  0.61817  0.77330  Biso   1.000  C
  H55      1.0000 0.36170  0.62340  0.75770  Biso   1.000  H
  C125     1.0000 0.47570  0.58569  0.77320  Biso   1.000  C
  N20      1.0000 0.81450  0.56517  0.86400  Biso   1.000  N
  N21      1.0000 0.93360  0.56841  0.88880  Biso   1.000  N
  C126     1.0000 0.66470  0.60279  0.82240  Biso   1.000  C
  H56      1.0000 0.96090  0.54980  0.89410  Biso   1.000  H
  Tb8      1.0000 0.48038  0.23542  0.43354  Biso   1.000  Tb
  O57      1.0000 0.30700  0.20923  0.44600  Biso   1.000  O
  O58      1.0000 0.45950  0.09715  0.47360  Biso   1.000  O
  H57      1.0000 0.50510  0.08310  0.49250  Biso   1.000  H
  C127     1.0000 0.18980  0.16172  0.43270  Biso   1.000  C
  O59      1.0000 0.28550  0.06489  0.25210  Biso   1.000  O
  O60      1.0000 0.11520  0.21517  0.45130  Biso   1.000  O
  O61      1.0000 0.35070  0.05379  0.44830  Biso   1.000  O
  C128     1.0000 0.95540  0.09991  0.38450  Biso   1.000  C
  C129     1.0000 0.28350  0.14046  0.44560  Biso   1.000  C
  H58      1.0000 0.35780  0.14900  0.45890  Biso   1.000  H
  O62      1.0000 0.53970  0.19829  0.33670  Biso   1.000  O
  N22      1.0000 0.86240  0.11751  0.36140  Biso   1.000  N
  O63      1.0000 0.43021  0.03266  0.22323  Biso   1.000  O
  C130     1.0000 0.26740  0.10699  0.43904  Biso   1.000  C
  C131     1.0000 0.77931  0.09433  0.34912  Biso   1.000  C
  C132     1.0000 0.47750  0.17866  0.29809  Biso   1.000  C
  C133     1.0000 0.39201  0.05964  0.24953  Biso   1.000  C
  C134     1.0000 0.58939  0.07775  0.29642  Biso   1.000  C
  H59      1.0000 0.61540  0.05560  0.29460  Biso   1.000  H
  C135     1.0000 0.62670  0.13533  0.32180  Biso   1.000  C
  H60      1.0000 0.67740  0.15230  0.33900  Biso   1.000  H
  C136     1.0000 0.36270  0.08308  0.45410  Biso   1.000  C
  O64      1.0000 0.38570  0.18705  0.26410  Biso   1.000  O
  C137     1.0000 0.16040  0.09448  0.41720  Biso   1.000  C
  H61      1.0000 0.15120  0.07140  0.41090  Biso   1.000  H
  C138     1.0000 0.06710  0.11493  0.40450  Biso   1.000  C
  C139     1.0000 0.08210  0.14882  0.41160  Biso   1.000  C
  H62      1.0000 0.01860  0.16320  0.40190  Biso   1.000  H
  C140     1.0000 0.20540  0.19822  0.44360  Biso   1.000  C
  C141     1.0000 0.51530  0.14313  0.29640  Biso   1.000  C
  C142     1.0000 0.43880  0.11817  0.27330  Biso   1.000  C
  H63      1.0000 0.36170  0.12340  0.25770  Biso   1.000  H
  C143     1.0000 0.47570  0.08569  0.27320  Biso   1.000  C
  N23      1.0000 0.81450  0.06517  0.36400  Biso   1.000  N
  N24      1.0000 0.93360  0.06841  0.38880  Biso   1.000  N
  C144     1.0000 0.66470  0.10279  0.32240  Biso   1.000  C
  H64      1.0000 0.96090  0.04980  0.39410  Biso   1.000  H
  Tb9      1.0000 0.26962  0.98542  0.68354  Biso   1.000  Tb
  O65      1.0000 0.44300  0.95923  0.69600  Biso   1.000  O
  O66      1.0000 0.29050  0.84715  0.72360  Biso   1.000  O
  H65      1.0000 0.24490  0.83310  0.74250  Biso   1.000  H
  C145     1.0000 0.56020  0.91172  0.68270  Biso   1.000  C
  O67      1.0000 0.46450  0.81489  0.50210  Biso   1.000  O
  O68      1.0000 0.63480  0.96517  0.70130  Biso   1.000  O
  O69      1.0000 0.39930  0.80379  0.69830  Biso   1.000  O
  C146     1.0000 0.79460  0.84991  0.63450  Biso   1.000  C
  C147     1.0000 0.46650  0.89046  0.69560  Biso   1.000  C
  H66      1.0000 0.39220  0.89900  0.70890  Biso   1.000  H
  O70      1.0000 0.21030  0.94829  0.58670  Biso   1.000  O
  N25      1.0000 0.88760  0.86751  0.61140  Biso   1.000  N
  O71      1.0000 0.31979  0.78266  0.47323  Biso   1.000  O
  C148     1.0000 0.48260  0.85699  0.68904  Biso   1.000  C
  C149     1.0000 0.97069  0.84433  0.59912  Biso   1.000  C
  C150     1.0000 0.27250  0.92866  0.54809  Biso   1.000  C
  C151     1.0000 0.35799  0.80964  0.49953  Biso   1.000  C
  C152     1.0000 0.16061  0.82775  0.54642  Biso   1.000  C
  H67      1.0000 0.13460  0.80560  0.54460  Biso   1.000  H
  C153     1.0000 0.12330  0.88533  0.57180  Biso   1.000  C
  H68      1.0000 0.07260  0.90230  0.58900  Biso   1.000  H
  C154     1.0000 0.38730  0.83308  0.70410  Biso   1.000  C
  O72      1.0000 0.36430  0.93705  0.51410  Biso   1.000  O
  C155     1.0000 0.58960  0.84448  0.66720  Biso   1.000  C
  H69      1.0000 0.59880  0.82140  0.66090  Biso   1.000  H
  C156     1.0000 0.68290  0.86493  0.65450  Biso   1.000  C
  C157     1.0000 0.66790  0.89882  0.66160  Biso   1.000  C
  H70      1.0000 0.73140  0.91320  0.65190  Biso   1.000  H
  C158     1.0000 0.54460  0.94822  0.69360  Biso   1.000  C
  C159     1.0000 0.23470  0.89313  0.54640  Biso   1.000  C
  C160     1.0000 0.31120  0.86817  0.52330  Biso   1.000  C
  H71      1.0000 0.38830  0.87340  0.50770  Biso   1.000  H
  C161     1.0000 0.27430  0.83569  0.52320  Biso   1.000  C
  N26      1.0000 0.93550  0.81517  0.61400  Biso   1.000  N
  N27      1.0000 0.81640  0.81841  0.63880  Biso   1.000  N
  C162     1.0000 0.08530  0.85279  0.57240  Biso   1.000  C
  H72      1.0000 0.78910  0.79980  0.64410  Biso   1.000  H
  Tb10     1.0000 0.26962  0.48542  0.18354  Biso   1.000  Tb
  O73      1.0000 0.44300  0.45923  0.19600  Biso   1.000  O
  O74      1.0000 0.29050  0.34715  0.22360  Biso   1.000  O
  H73      1.0000 0.24490  0.33310  0.24250  Biso   1.000  H
  C163     1.0000 0.56020  0.41172  0.18270  Biso   1.000  C
  O75      1.0000 0.46450  0.31489  0.00210  Biso   1.000  O
  O76      1.0000 0.63480  0.46517  0.20130  Biso   1.000  O
  O77      1.0000 0.39930  0.30379  0.19830  Biso   1.000  O
  C164     1.0000 0.79460  0.34991  0.13450  Biso   1.000  C
  C165     1.0000 0.46650  0.39046  0.19560  Biso   1.000  C
  H74      1.0000 0.39220  0.39900  0.20890  Biso   1.000  H
  O78      1.0000 0.21030  0.44829  0.08670  Biso   1.000  O
  N28      1.0000 0.88760  0.36751  0.11140  Biso   1.000  N
  O79      1.0000 0.31979  0.28266  0.97323  Biso   1.000  O
  C166     1.0000 0.48260  0.35699  0.18904  Biso   1.000  C
  C167     1.0000 0.97069  0.34433  0.09912  Biso   1.000  C
  C168     1.0000 0.27250  0.42866  0.04809  Biso   1.000  C
  C169     1.0000 0.35799  0.30964  0.99953  Biso   1.000  C
  C170     1.0000 0.16061  0.32775  0.04642  Biso   1.000  C
  H75      1.0000 0.13460  0.30560  0.04460  Biso   1.000  H
  C171     1.0000 0.12330  0.38533  0.07180  Biso   1.000  C
  H76      1.0000 0.07260  0.40230  0.08900  Biso   1.000  H
  C172     1.0000 0.38730  0.33308  0.20410  Biso   1.000  C
  O80      1.0000 0.36430  0.43705  0.01410  Biso   1.000  O
  C173     1.0000 0.58960  0.34448  0.16720  Biso   1.000  C
  H77      1.0000 0.59880  0.32140  0.16090  Biso   1.000  H
  C174     1.0000 0.68290  0.36493  0.15450  Biso   1.000  C
  C175     1.0000 0.66790  0.39882  0.16160  Biso   1.000  C
  H78      1.0000 0.73140  0.41320  0.15190  Biso   1.000  H
  C176     1.0000 0.54460  0.44822  0.19360  Biso   1.000  C
  C177     1.0000 0.23470  0.39313  0.04640  Biso   1.000  C
  C178     1.0000 0.31120  0.36817  0.02330  Biso   1.000  C
  H79      1.0000 0.38830  0.37340  0.00770  Biso   1.000  H
  C179     1.0000 0.27430  0.33569  0.02320  Biso   1.000  C
  N29      1.0000 0.93550  0.31517  0.11400  Biso   1.000  N
  N30      1.0000 0.81640  0.31841  0.13880  Biso   1.000  N
  C180     1.0000 0.08530  0.35279  0.07240  Biso   1.000  C
  H80      1.0000 0.78910  0.29980  0.14410  Biso   1.000  H
  Tb11     1.0000 0.76962  0.98542  0.18354  Biso   1.000  Tb
  O81      1.0000 0.94300  0.95923  0.19600  Biso   1.000  O
  O82      1.0000 0.79050  0.84715  0.22360  Biso   1.000  O
  H81      1.0000 0.74490  0.83310  0.24250  Biso   1.000  H
  C181     1.0000 0.06020  0.91172  0.18270  Biso   1.000  C
  O83      1.0000 0.96450  0.81489  0.00210  Biso   1.000  O
  O84      1.0000 0.13480  0.96517  0.20130  Biso   1.000  O
  O85      1.0000 0.89930  0.80379  0.19830  Biso   1.000  O
  C182     1.0000 0.29460  0.84991  0.13450  Biso   1.000  C
  C183     1.0000 0.96650  0.89046  0.19560  Biso   1.000  C
  H82      1.0000 0.89220  0.89900  0.20890  Biso   1.000  H
  O86      1.0000 0.71030  0.94829  0.08670  Biso   1.000  O
  N31      1.0000 0.38760  0.86751  0.11140  Biso   1.000  N
  O87      1.0000 0.81979  0.78266  0.97323  Biso   1.000  O
  C184     1.0000 0.98260  0.85699  0.18904  Biso   1.000  C
  C185     1.0000 0.47069  0.84433  0.09912  Biso   1.000  C
  C186     1.0000 0.77250  0.92866  0.04809  Biso   1.000  C
  C187     1.0000 0.85799  0.80964  0.99953  Biso   1.000  C
  C188     1.0000 0.66061  0.82775  0.04642  Biso   1.000  C
  H83      1.0000 0.63460  0.80560  0.04460  Biso   1.000  H
  C189     1.0000 0.62330  0.88533  0.07180  Biso   1.000  C
  H84      1.0000 0.57260  0.90230  0.08900  Biso   1.000  H
  C190     1.0000 0.88730  0.83308  0.20410  Biso   1.000  C
  O88      1.0000 0.86430  0.93705  0.01410  Biso   1.000  O
  C191     1.0000 0.08960  0.84448  0.16720  Biso   1.000  C
  H85      1.0000 0.09880  0.82140  0.16090  Biso   1.000  H
  C192     1.0000 0.18290  0.86493  0.15450  Biso   1.000  C
  C193     1.0000 0.16790  0.89882  0.16160  Biso   1.000  C
  H86      1.0000 0.23140  0.91320  0.15190  Biso   1.000  H
  C194     1.0000 0.04460  0.94822  0.19360  Biso   1.000  C
  C195     1.0000 0.73470  0.89313  0.04640  Biso   1.000  C
  C196     1.0000 0.81120  0.86817  0.02330  Biso   1.000  C
  H87      1.0000 0.88830  0.87340  0.00770  Biso   1.000  H
  C197     1.0000 0.77430  0.83569  0.02320  Biso   1.000  C
  N32      1.0000 0.43550  0.81517  0.11400  Biso   1.000  N
  N33      1.0000 0.31640  0.81841  0.13880  Biso   1.000  N
  C198     1.0000 0.58530  0.85279  0.07240  Biso   1.000  C
  H88      1.0000 0.28910  0.79980  0.14410  Biso   1.000  H
  Tb12     1.0000 0.76962  0.48542  0.68354  Biso   1.000  Tb
  O89      1.0000 0.94300  0.45923  0.69600  Biso   1.000  O
  O90      1.0000 0.79050  0.34715  0.72360  Biso   1.000  O
  H89      1.0000 0.74490  0.33310  0.74250  Biso   1.000  H
  C199     1.0000 0.06020  0.41172  0.68270  Biso   1.000  C
  O91      1.0000 0.96450  0.31489  0.50210  Biso   1.000  O
  O92      1.0000 0.13480  0.46517  0.70130  Biso   1.000  O
  O93      1.0000 0.89930  0.30379  0.69830  Biso   1.000  O
  C200     1.0000 0.29460  0.34991  0.63450  Biso   1.000  C
  C201     1.0000 0.96650  0.39046  0.69560  Biso   1.000  C
  H90      1.0000 0.89220  0.39900  0.70890  Biso   1.000  H
  O94      1.0000 0.71030  0.44829  0.58670  Biso   1.000  O
  N34      1.0000 0.38760  0.36751  0.61140  Biso   1.000  N
  O95      1.0000 0.81979  0.28266  0.47323  Biso   1.000  O
  C202     1.0000 0.98260  0.35699  0.68904  Biso   1.000  C
  C203     1.0000 0.47069  0.34433  0.59912  Biso   1.000  C
  C204     1.0000 0.77250  0.42866  0.54809  Biso   1.000  C
  C205     1.0000 0.85799  0.30964  0.49953  Biso   1.000  C
  C206     1.0000 0.66061  0.32775  0.54642  Biso   1.000  C
  H91      1.0000 0.63460  0.30560  0.54460  Biso   1.000  H
  C207     1.0000 0.62330  0.38533  0.57180  Biso   1.000  C
  H92      1.0000 0.57260  0.40230  0.58900  Biso   1.000  H
  C208     1.0000 0.88730  0.33308  0.70410  Biso   1.000  C
  O96      1.0000 0.86430  0.43705  0.51410  Biso   1.000  O
  C209     1.0000 0.08960  0.34448  0.66720  Biso   1.000  C
  H93      1.0000 0.09880  0.32140  0.66090  Biso   1.000  H
  C210     1.0000 0.18290  0.36493  0.65450  Biso   1.000  C
  C211     1.0000 0.16790  0.39882  0.66160  Biso   1.000  C
  H94      1.0000 0.23140  0.41320  0.65190  Biso   1.000  H
  C212     1.0000 0.04460  0.44822  0.69360  Biso   1.000  C
  C213     1.0000 0.73470  0.39313  0.54640  Biso   1.000  C
  C214     1.0000 0.81120  0.36817  0.52330  Biso   1.000  C
  H95      1.0000 0.88830  0.37340  0.50770  Biso   1.000  H
  C215     1.0000 0.77430  0.33569  0.52320  Biso   1.000  C
  N35      1.0000 0.43550  0.31517  0.61400  Biso   1.000  N
  N36      1.0000 0.31640  0.31841  0.63880  Biso   1.000  N
  C216     1.0000 0.58530  0.35279  0.57240  Biso   1.000  C
  H96      1.0000 0.28910  0.29980  0.64410  Biso   1.000  H
  Tb13     1.0000 0.23038  0.51458  0.68354  Biso   1.000  Tb
  O97      1.0000 0.05700  0.54077  0.69600  Biso   1.000  O
  O98      1.0000 0.20950  0.65285  0.72360  Biso   1.000  O
  H97      1.0000 0.25510  0.66690  0.74250  Biso   1.000  H
  C217     1.0000 0.93980  0.58828  0.68270  Biso   1.000  C
  O99      1.0000 0.03550  0.68511  0.50210  Biso   1.000  O
  O100     1.0000 0.86520  0.53483  0.70130  Biso   1.000  O
  O101     1.0000 0.10070  0.69621  0.69830  Biso   1.000  O
  C218     1.0000 0.70540  0.65009  0.63450  Biso   1.000  C
  C219     1.0000 0.03350  0.60954  0.69560  Biso   1.000  C
  H98      1.0000 0.10780  0.60100  0.70890  Biso   1.000  H
  O102     1.0000 0.28970  0.55171  0.58670  Biso   1.000  O
  N37      1.0000 0.61240  0.63249  0.61140  Biso   1.000  N
  O103     1.0000 0.18021  0.71734  0.47323  Biso   1.000  O
  C220     1.0000 0.01740  0.64301  0.68904  Biso   1.000  C
  C221     1.0000 0.52931  0.65567  0.59912  Biso   1.000  C
  C222     1.0000 0.22750  0.57134  0.54809  Biso   1.000  C
  C223     1.0000 0.14201  0.69036  0.49953  Biso   1.000  C
  C224     1.0000 0.33939  0.67225  0.54642  Biso   1.000  C
  H99      1.0000 0.36540  0.69440  0.54460  Biso   1.000  H
  C225     1.0000 0.37670  0.61467  0.57180  Biso   1.000  C
  H100     1.0000 0.42740  0.59770  0.58900  Biso   1.000  H
  C226     1.0000 0.11270  0.66692  0.70410  Biso   1.000  C
  O104     1.0000 0.13570  0.56295  0.51410  Biso   1.000  O
  C227     1.0000 0.91040  0.65552  0.66720  Biso   1.000  C
  H101     1.0000 0.90120  0.67860  0.66090  Biso   1.000  H
  C228     1.0000 0.81710  0.63507  0.65450  Biso   1.000  C
  C229     1.0000 0.83210  0.60118  0.66160  Biso   1.000  C
  H102     1.0000 0.76860  0.58680  0.65190  Biso   1.000  H
  C230     1.0000 0.95540  0.55178  0.69360  Biso   1.000  C
  C231     1.0000 0.26530  0.60687  0.54640  Biso   1.000  C
  C232     1.0000 0.18880  0.63183  0.52330  Biso   1.000  C
  H103     1.0000 0.11170  0.62660  0.50770  Biso   1.000  H
  C233     1.0000 0.22570  0.66431  0.52320  Biso   1.000  C
  N38      1.0000 0.56450  0.68483  0.61400  Biso   1.000  N
  N39      1.0000 0.68360  0.68159  0.63880  Biso   1.000  N
  C234     1.0000 0.41470  0.64721  0.57240  Biso   1.000  C
  H104     1.0000 0.71090  0.70020  0.64410  Biso   1.000  H
  Tb14     1.0000 0.23038  0.01458  0.18354  Biso   1.000  Tb
  O105     1.0000 0.05700  0.04077  0.19600  Biso   1.000  O
  O106     1.0000 0.20950  0.15285  0.22360  Biso   1.000  O
  H105     1.0000 0.25510  0.16690  0.24250  Biso   1.000  H
  C235     1.0000 0.93980  0.08828  0.18270  Biso   1.000  C
  O107     1.0000 0.03550  0.18511  0.00210  Biso   1.000  O
  O108     1.0000 0.86520  0.03483  0.20130  Biso   1.000  O
  O109     1.0000 0.10070  0.19621  0.19830  Biso   1.000  O
  C236     1.0000 0.70540  0.15009  0.13450  Biso   1.000  C
  C237     1.0000 0.03350  0.10954  0.19560  Biso   1.000  C
  H106     1.0000 0.10780  0.10100  0.20890  Biso   1.000  H
  O110     1.0000 0.28970  0.05171  0.08670  Biso   1.000  O
  N40      1.0000 0.61240  0.13249  0.11140  Biso   1.000  N
  O111     1.0000 0.18021  0.21734  0.97323  Biso   1.000  O
  C238     1.0000 0.01740  0.14301  0.18904  Biso   1.000  C
  C239     1.0000 0.52931  0.15567  0.09912  Biso   1.000  C
  C240     1.0000 0.22750  0.07134  0.04809  Biso   1.000  C
  C241     1.0000 0.14201  0.19036  0.99953  Biso   1.000  C
  C242     1.0000 0.33939  0.17225  0.04642  Biso   1.000  C
  H107     1.0000 0.36540  0.19440  0.04460  Biso   1.000  H
  C243     1.0000 0.37670  0.11467  0.07180  Biso   1.000  C
  H108     1.0000 0.42740  0.09770  0.08900  Biso   1.000  H
  C244     1.0000 0.11270  0.16692  0.20410  Biso   1.000  C
  O112     1.0000 0.13570  0.06295  0.01410  Biso   1.000  O
  C245     1.0000 0.91040  0.15552  0.16720  Biso   1.000  C
  H109     1.0000 0.90120  0.17860  0.16090  Biso   1.000  H
  C246     1.0000 0.81710  0.13507  0.15450  Biso   1.000  C
  C247     1.0000 0.83210  0.10118  0.16160  Biso   1.000  C
  H110     1.0000 0.76860  0.08680  0.15190  Biso   1.000  H
  C248     1.0000 0.95540  0.05178  0.19360  Biso   1.000  C
  C249     1.0000 0.26530  0.10687  0.04640  Biso   1.000  C
  C250     1.0000 0.18880  0.13183  0.02330  Biso   1.000  C
  H111     1.0000 0.11170  0.12660  0.00770  Biso   1.000  H
  C251     1.0000 0.22570  0.16431  0.02320  Biso   1.000  C
  N41      1.0000 0.56450  0.18483  0.11400  Biso   1.000  N
  N42      1.0000 0.68360  0.18159  0.13880  Biso   1.000  N
  C252     1.0000 0.41470  0.14721  0.07240  Biso   1.000  C
  H112     1.0000 0.71090  0.20020  0.14410  Biso   1.000  H
  Tb15     1.0000 0.73038  0.51458  0.18354  Biso   1.000  Tb
  O113     1.0000 0.55700  0.54077  0.19600  Biso   1.000  O
  O114     1.0000 0.70950  0.65285  0.22360  Biso   1.000  O
  H113     1.0000 0.75510  0.66690  0.24250  Biso   1.000  H
  C253     1.0000 0.43980  0.58828  0.18270  Biso   1.000  C
  O115     1.0000 0.53550  0.68511  0.00210  Biso   1.000  O
  O116     1.0000 0.36520  0.53483  0.20130  Biso   1.000  O
  O117     1.0000 0.60070  0.69621  0.19830  Biso   1.000  O
  C254     1.0000 0.20540  0.65009  0.13450  Biso   1.000  C
  C255     1.0000 0.53350  0.60954  0.19560  Biso   1.000  C
  H114     1.0000 0.60780  0.60100  0.20890  Biso   1.000  H
  O118     1.0000 0.78970  0.55171  0.08670  Biso   1.000  O
  N43      1.0000 0.11240  0.63249  0.11140  Biso   1.000  N
  O119     1.0000 0.68021  0.71734  0.97323  Biso   1.000  O
  C256     1.0000 0.51740  0.64301  0.18904  Biso   1.000  C
  C257     1.0000 0.02931  0.65567  0.09912  Biso   1.000  C
  C258     1.0000 0.72750  0.57134  0.04809  Biso   1.000  C
  C259     1.0000 0.64201  0.69036  0.99953  Biso   1.000  C
  C260     1.0000 0.83939  0.67225  0.04642  Biso   1.000  C
  H115     1.0000 0.86540  0.69440  0.04460  Biso   1.000  H
  C261     1.0000 0.87670  0.61467  0.07180  Biso   1.000  C
  H116     1.0000 0.92740  0.59770  0.08900  Biso   1.000  H
  C262     1.0000 0.61270  0.66692  0.20410  Biso   1.000  C
  O120     1.0000 0.63570  0.56295  0.01410  Biso   1.000  O
  C263     1.0000 0.41040  0.65552  0.16720  Biso   1.000  C
  H117     1.0000 0.40120  0.67860  0.16090  Biso   1.000  H
  C264     1.0000 0.31710  0.63507  0.15450  Biso   1.000  C
  C265     1.0000 0.33210  0.60118  0.16160  Biso   1.000  C
  H118     1.0000 0.26860  0.58680  0.15190  Biso   1.000  H
  C266     1.0000 0.45540  0.55178  0.19360  Biso   1.000  C
  C267     1.0000 0.76530  0.60687  0.04640  Biso   1.000  C
  C268     1.0000 0.68880  0.63183  0.02330  Biso   1.000  C
  H119     1.0000 0.61170  0.62660  0.00770  Biso   1.000  H
  C269     1.0000 0.72570  0.66431  0.02320  Biso   1.000  C
  N44      1.0000 0.06450  0.68483  0.11400  Biso   1.000  N
  N45      1.0000 0.18360  0.68159  0.13880  Biso   1.000  N
  C270     1.0000 0.91470  0.64721  0.07240  Biso   1.000  C
  H120     1.0000 0.21090  0.70020  0.14410  Biso   1.000  H
  Tb16     1.0000 0.73038  0.01458  0.68354  Biso   1.000  Tb
  O121     1.0000 0.55700  0.04077  0.69600  Biso   1.000  O
  O122     1.0000 0.70950  0.15285  0.72360  Biso   1.000  O
  H121     1.0000 0.75510  0.16690  0.74250  Biso   1.000  H
  C271     1.0000 0.43980  0.08828  0.68270  Biso   1.000  C
  O123     1.0000 0.53550  0.18511  0.50210  Biso   1.000  O
  O124     1.0000 0.36520  0.03483  0.70130  Biso   1.000  O
  O125     1.0000 0.60070  0.19621  0.69830  Biso   1.000  O
  C272     1.0000 0.20540  0.15009  0.63450  Biso   1.000  C
  C273     1.0000 0.53350  0.10954  0.69560  Biso   1.000  C
  H122     1.0000 0.60780  0.10100  0.70890  Biso   1.000  H
  O126     1.0000 0.78970  0.05171  0.58670  Biso   1.000  O
  N46      1.0000 0.11240  0.13249  0.61140  Biso   1.000  N
  O127     1.0000 0.68021  0.21734  0.47323  Biso   1.000  O
  C274     1.0000 0.51740  0.14301  0.68904  Biso   1.000  C
  C275     1.0000 0.02931  0.15567  0.59912  Biso   1.000  C
  C276     1.0000 0.72750  0.07134  0.54809  Biso   1.000  C
  C277     1.0000 0.64201  0.19036  0.49953  Biso   1.000  C
  C278     1.0000 0.83939  0.17225  0.54642  Biso   1.000  C
  H123     1.0000 0.86540  0.19440  0.54460  Biso   1.000  H
  C279     1.0000 0.87670  0.11467  0.57180  Biso   1.000  C
  H124     1.0000 0.92740  0.09770  0.58900  Biso   1.000  H
  C280     1.0000 0.61270  0.16692  0.70410  Biso   1.000  C
  O128     1.0000 0.63570  0.06295  0.51410  Biso   1.000  O
  C281     1.0000 0.41040  0.15552  0.66720  Biso   1.000  C
  H125     1.0000 0.40120  0.17860  0.66090  Biso   1.000  H
  C282     1.0000 0.31710  0.13507  0.65450  Biso   1.000  C
  C283     1.0000 0.33210  0.10118  0.66160  Biso   1.000  C
  H126     1.0000 0.26860  0.08680  0.65190  Biso   1.000  H
  C284     1.0000 0.45540  0.05178  0.69360  Biso   1.000  C
  C285     1.0000 0.76530  0.10687  0.54640  Biso   1.000  C
  C286     1.0000 0.68880  0.13183  0.52330  Biso   1.000  C
  H127     1.0000 0.61170  0.12660  0.50770  Biso   1.000  H
  C287     1.0000 0.72570  0.16431  0.52320  Biso   1.000  C
  N47      1.0000 0.06450  0.18483  0.61400  Biso   1.000  N
  N48      1.0000 0.18360  0.18159  0.63880  Biso   1.000  N
  C288     1.0000 0.91470  0.14721  0.57240  Biso   1.000  C
  H128     1.0000 0.21090  0.20020  0.64410  Biso   1.000  H
