data_image0
_cell_length_a       11.5324
_cell_length_b       40.8665
_cell_length_c       17.0473
_cell_angle_alpha    90
_cell_angle_beta     90
_cell_angle_gamma    90

_symmetry_space_group_name_H-M    "P 1"
_symmetry_int_tables_number       1

loop_
  _symmetry_equiv_pos_as_xyz
  'x, y, z'

loop_
  _atom_site_label
  _atom_site_occupancy
  _atom_site_fract_x
  _atom_site_fract_y
  _atom_site_fract_z
  _atom_site_thermal_displace_type
  _atom_site_B_iso_or_equiv
  _atom_site_type_symbol
  Sm1      1.0000 0.26940  0.48543  0.44233  Biso   1.000  Sm
  O1       1.0000 0.70590  0.65260  0.48510  Biso   1.000  O
  C1       1.0000 0.43990  0.58870  0.44400  Biso   1.000  C
  O2       1.0000 0.53620  0.68540  0.26530  Biso   1.000  O
  O3       1.0000 0.78750  0.55220  0.34770  Biso   1.000  O
  O4       1.0000 0.59900  0.69600  0.45950  Biso   1.000  O
  C2       1.0000 0.20730  0.64980  0.39610  Biso   1.000  C
  C3       1.0000 0.53470  0.60880  0.45320  Biso   1.000  C
  H1       1.0000 0.60980  0.59990  0.46120  Biso   1.000  H
  N1       1.0000 0.11260  0.63150  0.37290  Biso   1.000  N
  O5       1.0000 0.67950  0.71690  0.23570  Biso   1.000  O
  C4       1.0000 0.51720  0.64320  0.45030  Biso   1.000  C
  C5       1.0000 0.72170  0.57170  0.31100  Biso   1.000  C
  C6       1.0000 0.02890  0.65537  0.36260  Biso   1.000  C
  C7       1.0000 0.41090  0.65550  0.43060  Biso   1.000  C
  H2       1.0000 0.40080  0.67850  0.42650  Biso   1.000  H
  O6       1.0000 0.55630  0.54150  0.45900  Biso   1.000  O
  C8       1.0000 0.87630  0.61490  0.33270  Biso   1.000  C
  H3       1.0000 0.92890  0.59810  0.34780  Biso   1.000  H
  O7       1.0000 0.36580  0.53460  0.46490  Biso   1.000  O
  C9       1.0000 0.33150  0.60100  0.42580  Biso   1.000  C
  H4       1.0000 0.26790  0.58640  0.42010  Biso   1.000  H
  C10      1.0000 0.45730  0.55250  0.45470  Biso   1.000  C
  O8       1.0000 0.63390  0.56240  0.27650  Biso   1.000  O
  C11      1.0000 0.83820  0.67180  0.30730  Biso   1.000  C
  H5       1.0000 0.86450  0.69380  0.30470  Biso   1.000  H
  C12      1.0000 0.31460  0.63440  0.41590  Biso   1.000  C
  N2       1.0000 0.06810  0.68480  0.37850  Biso   1.000  N
  N3       1.0000 0.18090  0.68130  0.40050  Biso   1.000  N
  C13      1.0000 0.61150  0.66680  0.46490  Biso   1.000  C
  C14      1.0000 0.64250  0.69030  0.25870  Biso   1.000  C
  C15      1.0000 0.72750  0.66400  0.28520  Biso   1.000  C
  C16      1.0000 0.76300  0.60660  0.30980  Biso   1.000  C
  C17      1.0000 0.68990  0.63070  0.28510  Biso   1.000  C
  H6       1.0000 0.61390  0.62530  0.26780  Biso   1.000  H
  C18      1.0000 0.91190  0.64700  0.33360  Biso   1.000  C
  H7       1.0000 0.71900  0.66230  0.52760  Biso   1.000  H
  H8       1.0000 0.03540  0.70150  0.35400  Biso   1.000  H
  Sm2      1.0000 0.26940  0.98543  0.94233  Biso   1.000  Sm
  O9       1.0000 0.70590  0.15260  0.98510  Biso   1.000  O
  C19      1.0000 0.43990  0.08870  0.94400  Biso   1.000  C
  O10      1.0000 0.53620  0.18540  0.76530  Biso   1.000  O
  O11      1.0000 0.78750  0.05220  0.84770  Biso   1.000  O
  O12      1.0000 0.59900  0.19600  0.95950  Biso   1.000  O
  C20      1.0000 0.20730  0.14980  0.89610  Biso   1.000  C
  C21      1.0000 0.53470  0.10880  0.95320  Biso   1.000  C
  H9       1.0000 0.60980  0.09990  0.96120  Biso   1.000  H
  N4       1.0000 0.11260  0.13150  0.87290  Biso   1.000  N
  O13      1.0000 0.67950  0.21690  0.73570  Biso   1.000  O
  C22      1.0000 0.51720  0.14320  0.95030  Biso   1.000  C
  C23      1.0000 0.72170  0.07170  0.81100  Biso   1.000  C
  C24      1.0000 0.02890  0.15537  0.86260  Biso   1.000  C
  C25      1.0000 0.41090  0.15550  0.93060  Biso   1.000  C
  H10      1.0000 0.40080  0.17850  0.92650  Biso   1.000  H
  O14      1.0000 0.55630  0.04150  0.95900  Biso   1.000  O
  C26      1.0000 0.87630  0.11490  0.83270  Biso   1.000  C
  H11      1.0000 0.92890  0.09810  0.84780  Biso   1.000  H
  O15      1.0000 0.36580  0.03460  0.96490  Biso   1.000  O
  C27      1.0000 0.33150  0.10100  0.92580  Biso   1.000  C
  H12      1.0000 0.26790  0.08640  0.92010  Biso   1.000  H
  C28      1.0000 0.45730  0.05250  0.95470  Biso   1.000  C
  O16      1.0000 0.63390  0.06240  0.77650  Biso   1.000  O
  C29      1.0000 0.83820  0.17180  0.80730  Biso   1.000  C
  H13      1.0000 0.86450  0.19380  0.80470  Biso   1.000  H
  C30      1.0000 0.31460  0.13440  0.91590  Biso   1.000  C
  N5       1.0000 0.06810  0.18480  0.87850  Biso   1.000  N
  N6       1.0000 0.18090  0.18130  0.90050  Biso   1.000  N
  C31      1.0000 0.61150  0.16680  0.96490  Biso   1.000  C
  C32      1.0000 0.64250  0.19030  0.75870  Biso   1.000  C
  C33      1.0000 0.72750  0.16400  0.78520  Biso   1.000  C
  C34      1.0000 0.76300  0.10660  0.80980  Biso   1.000  C
  C35      1.0000 0.68990  0.13070  0.78510  Biso   1.000  C
  H14      1.0000 0.61390  0.12530  0.76780  Biso   1.000  H
  C36      1.0000 0.91190  0.14700  0.83360  Biso   1.000  C
  H15      1.0000 0.71900  0.16230  0.02760  Biso   1.000  H
  H16      1.0000 0.03540  0.20150  0.85400  Biso   1.000  H
  Sm3      1.0000 0.76940  0.48543  0.94233  Biso   1.000  Sm
  O17      1.0000 0.20590  0.65260  0.98510  Biso   1.000  O
  C37      1.0000 0.93990  0.58870  0.94400  Biso   1.000  C
  O18      1.0000 0.03620  0.68540  0.76530  Biso   1.000  O
  O19      1.0000 0.28750  0.55220  0.84770  Biso   1.000  O
  O20      1.0000 0.09900  0.69600  0.95950  Biso   1.000  O
  C38      1.0000 0.70730  0.64980  0.89610  Biso   1.000  C
  C39      1.0000 0.03470  0.60880  0.95320  Biso   1.000  C
  H17      1.0000 0.10980  0.59990  0.96120  Biso   1.000  H
  N7       1.0000 0.61260  0.63150  0.87290  Biso   1.000  N
  O21      1.0000 0.17950  0.71690  0.73570  Biso   1.000  O
  C40      1.0000 0.01720  0.64320  0.95030  Biso   1.000  C
  C41      1.0000 0.22170  0.57170  0.81100  Biso   1.000  C
  C42      1.0000 0.52890  0.65537  0.86260  Biso   1.000  C
  C43      1.0000 0.91090  0.65550  0.93060  Biso   1.000  C
  H18      1.0000 0.90080  0.67850  0.92650  Biso   1.000  H
  O22      1.0000 0.05630  0.54150  0.95900  Biso   1.000  O
  C44      1.0000 0.37630  0.61490  0.83270  Biso   1.000  C
  H19      1.0000 0.42890  0.59810  0.84780  Biso   1.000  H
  O23      1.0000 0.86580  0.53460  0.96490  Biso   1.000  O
  C45      1.0000 0.83150  0.60100  0.92580  Biso   1.000  C
  H20      1.0000 0.76790  0.58640  0.92010  Biso   1.000  H
  C46      1.0000 0.95730  0.55250  0.95470  Biso   1.000  C
  O24      1.0000 0.13390  0.56240  0.77650  Biso   1.000  O
  C47      1.0000 0.33820  0.67180  0.80730  Biso   1.000  C
  H21      1.0000 0.36450  0.69380  0.80470  Biso   1.000  H
  C48      1.0000 0.81460  0.63440  0.91590  Biso   1.000  C
  N8       1.0000 0.56810  0.68480  0.87850  Biso   1.000  N
  N9       1.0000 0.68090  0.68130  0.90050  Biso   1.000  N
  C49      1.0000 0.11150  0.66680  0.96490  Biso   1.000  C
  C50      1.0000 0.14250  0.69030  0.75870  Biso   1.000  C
  C51      1.0000 0.22750  0.66400  0.78520  Biso   1.000  C
  C52      1.0000 0.26300  0.60660  0.80980  Biso   1.000  C
  C53      1.0000 0.18990  0.63070  0.78510  Biso   1.000  C
  H22      1.0000 0.11390  0.62530  0.76780  Biso   1.000  H
  C54      1.0000 0.41190  0.64700  0.83360  Biso   1.000  C
  H23      1.0000 0.21900  0.66230  0.02760  Biso   1.000  H
  H24      1.0000 0.53540  0.70150  0.85400  Biso   1.000  H
  Sm4      1.0000 0.76940  0.98543  0.44233  Biso   1.000  Sm
  O25      1.0000 0.20590  0.15260  0.48510  Biso   1.000  O
  C55      1.0000 0.93990  0.08870  0.44400  Biso   1.000  C
  O26      1.0000 0.03620  0.18540  0.26530  Biso   1.000  O
  O27      1.0000 0.28750  0.05220  0.34770  Biso   1.000  O
  O28      1.0000 0.09900  0.19600  0.45950  Biso   1.000  O
  C56      1.0000 0.70730  0.14980  0.39610  Biso   1.000  C
  C57      1.0000 0.03470  0.10880  0.45320  Biso   1.000  C
  H25      1.0000 0.10980  0.09990  0.46120  Biso   1.000  H
  N10      1.0000 0.61260  0.13150  0.37290  Biso   1.000  N
  O29      1.0000 0.17950  0.21690  0.23570  Biso   1.000  O
  C58      1.0000 0.01720  0.14320  0.45030  Biso   1.000  C
  C59      1.0000 0.22170  0.07170  0.31100  Biso   1.000  C
  C60      1.0000 0.52890  0.15537  0.36260  Biso   1.000  C
  C61      1.0000 0.91090  0.15550  0.43060  Biso   1.000  C
  H26      1.0000 0.90080  0.17850  0.42650  Biso   1.000  H
  O30      1.0000 0.05630  0.04150  0.45900  Biso   1.000  O
  C62      1.0000 0.37630  0.11490  0.33270  Biso   1.000  C
  H27      1.0000 0.42890  0.09810  0.34780  Biso   1.000  H
  O31      1.0000 0.86580  0.03460  0.46490  Biso   1.000  O
  C63      1.0000 0.83150  0.10100  0.42580  Biso   1.000  C
  H28      1.0000 0.76790  0.08640  0.42010  Biso   1.000  H
  C64      1.0000 0.95730  0.05250  0.45470  Biso   1.000  C
  O32      1.0000 0.13390  0.06240  0.27650  Biso   1.000  O
  C65      1.0000 0.33820  0.17180  0.30730  Biso   1.000  C
  H29      1.0000 0.36450  0.19380  0.30470  Biso   1.000  H
  C66      1.0000 0.81460  0.13440  0.41590  Biso   1.000  C
  N11      1.0000 0.56810  0.18480  0.37850  Biso   1.000  N
  N12      1.0000 0.68090  0.18130  0.40050  Biso   1.000  N
  C67      1.0000 0.11150  0.16680  0.46490  Biso   1.000  C
  C68      1.0000 0.14250  0.19030  0.25870  Biso   1.000  C
  C69      1.0000 0.22750  0.16400  0.28520  Biso   1.000  C
  C70      1.0000 0.26300  0.10660  0.30980  Biso   1.000  C
  C71      1.0000 0.18990  0.13070  0.28510  Biso   1.000  C
  H30      1.0000 0.11390  0.12530  0.26780  Biso   1.000  H
  C72      1.0000 0.41190  0.14700  0.33360  Biso   1.000  C
  H31      1.0000 0.21900  0.16230  0.52760  Biso   1.000  H
  H32      1.0000 0.53540  0.20150  0.35400  Biso   1.000  H
  Sm5      1.0000 0.73060  0.51457  0.44233  Biso   1.000  Sm
  O33      1.0000 0.29410  0.34740  0.48510  Biso   1.000  O
  C73      1.0000 0.56010  0.41130  0.44400  Biso   1.000  C
  O34      1.0000 0.46380  0.31460  0.26530  Biso   1.000  O
  O35      1.0000 0.21250  0.44780  0.34770  Biso   1.000  O
  O36      1.0000 0.40100  0.30400  0.45950  Biso   1.000  O
  C74      1.0000 0.79270  0.35020  0.39610  Biso   1.000  C
  C75      1.0000 0.46530  0.39120  0.45320  Biso   1.000  C
  H33      1.0000 0.39020  0.40010  0.46120  Biso   1.000  H
  N13      1.0000 0.88740  0.36850  0.37290  Biso   1.000  N
  O37      1.0000 0.32050  0.28310  0.23570  Biso   1.000  O
  C76      1.0000 0.48280  0.35680  0.45030  Biso   1.000  C
  C77      1.0000 0.27830  0.42830  0.31100  Biso   1.000  C
  C78      1.0000 0.97110  0.34463  0.36260  Biso   1.000  C
  C79      1.0000 0.58910  0.34450  0.43060  Biso   1.000  C
  H34      1.0000 0.59920  0.32150  0.42650  Biso   1.000  H
  O38      1.0000 0.44370  0.45850  0.45900  Biso   1.000  O
  C80      1.0000 0.12370  0.38510  0.33270  Biso   1.000  C
  H35      1.0000 0.07110  0.40190  0.34780  Biso   1.000  H
  O39      1.0000 0.63420  0.46540  0.46490  Biso   1.000  O
  C81      1.0000 0.66850  0.39900  0.42580  Biso   1.000  C
  H36      1.0000 0.73210  0.41360  0.42010  Biso   1.000  H
  C82      1.0000 0.54270  0.44750  0.45470  Biso   1.000  C
  O40      1.0000 0.36610  0.43760  0.27650  Biso   1.000  O
  C83      1.0000 0.16180  0.32820  0.30730  Biso   1.000  C
  H37      1.0000 0.13550  0.30620  0.30470  Biso   1.000  H
  C84      1.0000 0.68540  0.36560  0.41590  Biso   1.000  C
  N14      1.0000 0.93190  0.31520  0.37850  Biso   1.000  N
  N15      1.0000 0.81910  0.31870  0.40050  Biso   1.000  N
  C85      1.0000 0.38850  0.33320  0.46490  Biso   1.000  C
  C86      1.0000 0.35750  0.30970  0.25870  Biso   1.000  C
  C87      1.0000 0.27250  0.33600  0.28520  Biso   1.000  C
  C88      1.0000 0.23700  0.39340  0.30980  Biso   1.000  C
  C89      1.0000 0.31010  0.36930  0.28510  Biso   1.000  C
  H38      1.0000 0.38610  0.37470  0.26780  Biso   1.000  H
  C90      1.0000 0.08810  0.35300  0.33360  Biso   1.000  C
  H39      1.0000 0.28100  0.33770  0.52760  Biso   1.000  H
  H40      1.0000 0.96460  0.29850  0.35400  Biso   1.000  H
  Sm6      1.0000 0.73060  0.01457  0.94233  Biso   1.000  Sm
  O41      1.0000 0.29410  0.84740  0.98510  Biso   1.000  O
  C91      1.0000 0.56010  0.91130  0.94400  Biso   1.000  C
  O42      1.0000 0.46380  0.81460  0.76530  Biso   1.000  O
  O43      1.0000 0.21250  0.94780  0.84770  Biso   1.000  O
  O44      1.0000 0.40100  0.80400  0.95950  Biso   1.000  O
  C92      1.0000 0.79270  0.85020  0.89610  Biso   1.000  C
  C93      1.0000 0.46530  0.89120  0.95320  Biso   1.000  C
  H41      1.0000 0.39020  0.90010  0.96120  Biso   1.000  H
  N16      1.0000 0.88740  0.86850  0.87290  Biso   1.000  N
  O45      1.0000 0.32050  0.78310  0.73570  Biso   1.000  O
  C94      1.0000 0.48280  0.85680  0.95030  Biso   1.000  C
  C95      1.0000 0.27830  0.92830  0.81100  Biso   1.000  C
  C96      1.0000 0.97110  0.84463  0.86260  Biso   1.000  C
  C97      1.0000 0.58910  0.84450  0.93060  Biso   1.000  C
  H42      1.0000 0.59920  0.82150  0.92650  Biso   1.000  H
  O46      1.0000 0.44370  0.95850  0.95900  Biso   1.000  O
  C98      1.0000 0.12370  0.88510  0.83270  Biso   1.000  C
  H43      1.0000 0.07110  0.90190  0.84780  Biso   1.000  H
  O47      1.0000 0.63420  0.96540  0.96490  Biso   1.000  O
  C99      1.0000 0.66850  0.89900  0.92580  Biso   1.000  C
  H44      1.0000 0.73210  0.91360  0.92010  Biso   1.000  H
  C100     1.0000 0.54270  0.94750  0.95470  Biso   1.000  C
  O48      1.0000 0.36610  0.93760  0.77650  Biso   1.000  O
  C101     1.0000 0.16180  0.82820  0.80730  Biso   1.000  C
  H45      1.0000 0.13550  0.80620  0.80470  Biso   1.000  H
  C102     1.0000 0.68540  0.86560  0.91590  Biso   1.000  C
  N17      1.0000 0.93190  0.81520  0.87850  Biso   1.000  N
  N18      1.0000 0.81910  0.81870  0.90050  Biso   1.000  N
  C103     1.0000 0.38850  0.83320  0.96490  Biso   1.000  C
  C104     1.0000 0.35750  0.80970  0.75870  Biso   1.000  C
  C105     1.0000 0.27250  0.83600  0.78520  Biso   1.000  C
  C106     1.0000 0.23700  0.89340  0.80980  Biso   1.000  C
  C107     1.0000 0.31010  0.86930  0.78510  Biso   1.000  C
  H46      1.0000 0.38610  0.87470  0.76780  Biso   1.000  H
  C108     1.0000 0.08810  0.85300  0.83360  Biso   1.000  C
  H47      1.0000 0.28100  0.83770  0.02760  Biso   1.000  H
  H48      1.0000 0.96460  0.79850  0.85400  Biso   1.000  H
  Sm7      1.0000 0.23060  0.51457  0.94233  Biso   1.000  Sm
  O49      1.0000 0.79410  0.34740  0.98510  Biso   1.000  O
  C109     1.0000 0.06010  0.41130  0.94400  Biso   1.000  C
  O50      1.0000 0.96380  0.31460  0.76530  Biso   1.000  O
  O51      1.0000 0.71250  0.44780  0.84770  Biso   1.000  O
  O52      1.0000 0.90100  0.30400  0.95950  Biso   1.000  O
  C110     1.0000 0.29270  0.35020  0.89610  Biso   1.000  C
  C111     1.0000 0.96530  0.39120  0.95320  Biso   1.000  C
  H49      1.0000 0.89020  0.40010  0.96120  Biso   1.000  H
  N19      1.0000 0.38740  0.36850  0.87290  Biso   1.000  N
  O53      1.0000 0.82050  0.28310  0.73570  Biso   1.000  O
  C112     1.0000 0.98280  0.35680  0.95030  Biso   1.000  C
  C113     1.0000 0.77830  0.42830  0.81100  Biso   1.000  C
  C114     1.0000 0.47110  0.34463  0.86260  Biso   1.000  C
  C115     1.0000 0.08910  0.34450  0.93060  Biso   1.000  C
  H50      1.0000 0.09920  0.32150  0.92650  Biso   1.000  H
  O54      1.0000 0.94370  0.45850  0.95900  Biso   1.000  O
  C116     1.0000 0.62370  0.38510  0.83270  Biso   1.000  C
  H51      1.0000 0.57110  0.40190  0.84780  Biso   1.000  H
  O55      1.0000 0.13420  0.46540  0.96490  Biso   1.000  O
  C117     1.0000 0.16850  0.39900  0.92580  Biso   1.000  C
  H52      1.0000 0.23210  0.41360  0.92010  Biso   1.000  H
  C118     1.0000 0.04270  0.44750  0.95470  Biso   1.000  C
  O56      1.0000 0.86610  0.43760  0.77650  Biso   1.000  O
  C119     1.0000 0.66180  0.32820  0.80730  Biso   1.000  C
  H53      1.0000 0.63550  0.30620  0.80470  Biso   1.000  H
  C120     1.0000 0.18540  0.36560  0.91590  Biso   1.000  C
  N20      1.0000 0.43190  0.31520  0.87850  Biso   1.000  N
  N21      1.0000 0.31910  0.31870  0.90050  Biso   1.000  N
  C121     1.0000 0.88850  0.33320  0.96490  Biso   1.000  C
  C122     1.0000 0.85750  0.30970  0.75870  Biso   1.000  C
  C123     1.0000 0.77250  0.33600  0.78520  Biso   1.000  C
  C124     1.0000 0.73700  0.39340  0.80980  Biso   1.000  C
  C125     1.0000 0.81010  0.36930  0.78510  Biso   1.000  C
  H54      1.0000 0.88610  0.37470  0.76780  Biso   1.000  H
  C126     1.0000 0.58810  0.35300  0.83360  Biso   1.000  C
  H55      1.0000 0.78100  0.33770  0.02760  Biso   1.000  H
  H56      1.0000 0.46460  0.29850  0.85400  Biso   1.000  H
  Sm8      1.0000 0.23060  0.01457  0.44233  Biso   1.000  Sm
  O57      1.0000 0.79410  0.84740  0.48510  Biso   1.000  O
  C127     1.0000 0.06010  0.91130  0.44400  Biso   1.000  C
  O58      1.0000 0.96380  0.81460  0.26530  Biso   1.000  O
  O59      1.0000 0.71250  0.94780  0.34770  Biso   1.000  O
  O60      1.0000 0.90100  0.80400  0.45950  Biso   1.000  O
  C128     1.0000 0.29270  0.85020  0.39610  Biso   1.000  C
  C129     1.0000 0.96530  0.89120  0.45320  Biso   1.000  C
  H57      1.0000 0.89020  0.90010  0.46120  Biso   1.000  H
  N22      1.0000 0.38740  0.86850  0.37290  Biso   1.000  N
  O61      1.0000 0.82050  0.78310  0.23570  Biso   1.000  O
  C130     1.0000 0.98280  0.85680  0.45030  Biso   1.000  C
  C131     1.0000 0.77830  0.92830  0.31100  Biso   1.000  C
  C132     1.0000 0.47110  0.84463  0.36260  Biso   1.000  C
  C133     1.0000 0.08910  0.84450  0.43060  Biso   1.000  C
  H58      1.0000 0.09920  0.82150  0.42650  Biso   1.000  H
  O62      1.0000 0.94370  0.95850  0.45900  Biso   1.000  O
  C134     1.0000 0.62370  0.88510  0.33270  Biso   1.000  C
  H59      1.0000 0.57110  0.90190  0.34780  Biso   1.000  H
  O63      1.0000 0.13420  0.96540  0.46490  Biso   1.000  O
  C135     1.0000 0.16850  0.89900  0.42580  Biso   1.000  C
  H60      1.0000 0.23210  0.91360  0.42010  Biso   1.000  H
  C136     1.0000 0.04270  0.94750  0.45470  Biso   1.000  C
  O64      1.0000 0.86610  0.93760  0.27650  Biso   1.000  O
  C137     1.0000 0.66180  0.82820  0.30730  Biso   1.000  C
  H61      1.0000 0.63550  0.80620  0.30470  Biso   1.000  H
  C138     1.0000 0.18540  0.86560  0.41590  Biso   1.000  C
  N23      1.0000 0.43190  0.81520  0.37850  Biso   1.000  N
  N24      1.0000 0.31910  0.81870  0.40050  Biso   1.000  N
  C139     1.0000 0.88850  0.83320  0.46490  Biso   1.000  C
  C140     1.0000 0.85750  0.80970  0.25870  Biso   1.000  C
  C141     1.0000 0.77250  0.83600  0.28520  Biso   1.000  C
  C142     1.0000 0.73700  0.89340  0.30980  Biso   1.000  C
  C143     1.0000 0.81010  0.86930  0.28510  Biso   1.000  C
  H62      1.0000 0.88610  0.87470  0.26780  Biso   1.000  H
  C144     1.0000 0.58810  0.85300  0.33360  Biso   1.000  C
  H63      1.0000 0.78100  0.83770  0.52760  Biso   1.000  H
  H64      1.0000 0.46460  0.79850  0.35400  Biso   1.000  H
  Sm9      1.0000 0.51940  0.76457  0.69233  Biso   1.000  Sm
  O65      1.0000 0.95590  0.59740  0.73510  Biso   1.000  O
  C145     1.0000 0.68990  0.66130  0.69400  Biso   1.000  C
  O66      1.0000 0.78620  0.56460  0.51530  Biso   1.000  O
  O67      1.0000 0.03750  0.69780  0.59770  Biso   1.000  O
  O68      1.0000 0.84900  0.55400  0.70950  Biso   1.000  O
  C146     1.0000 0.45730  0.60020  0.64610  Biso   1.000  C
  C147     1.0000 0.78470  0.64120  0.70320  Biso   1.000  C
  H65      1.0000 0.85980  0.65010  0.71120  Biso   1.000  H
  N25      1.0000 0.36260  0.61850  0.62290  Biso   1.000  N
  O69      1.0000 0.92950  0.53310  0.48570  Biso   1.000  O
  C148     1.0000 0.76720  0.60680  0.70030  Biso   1.000  C
  C149     1.0000 0.97170  0.67830  0.56100  Biso   1.000  C
  C150     1.0000 0.27890  0.59463  0.61260  Biso   1.000  C
  C151     1.0000 0.66090  0.59450  0.68060  Biso   1.000  C
  H66      1.0000 0.65080  0.57150  0.67650  Biso   1.000  H
  O70      1.0000 0.80630  0.70850  0.70900  Biso   1.000  O
  C152     1.0000 0.12630  0.63510  0.58270  Biso   1.000  C
  H67      1.0000 0.17890  0.65190  0.59780  Biso   1.000  H
  O71      1.0000 0.61580  0.71540  0.71490  Biso   1.000  O
  C153     1.0000 0.58150  0.64900  0.67580  Biso   1.000  C
  H68      1.0000 0.51790  0.66360  0.67010  Biso   1.000  H
  C154     1.0000 0.70730  0.69750  0.70470  Biso   1.000  C
  O72      1.0000 0.88390  0.68760  0.52650  Biso   1.000  O
  C155     1.0000 0.08820  0.57820  0.55730  Biso   1.000  C
  H69      1.0000 0.11450  0.55620  0.55470  Biso   1.000  H
  C156     1.0000 0.56460  0.61560  0.66590  Biso   1.000  C
  N26      1.0000 0.31810  0.56520  0.62850  Biso   1.000  N
  N27      1.0000 0.43090  0.56870  0.65050  Biso   1.000  N
  C157     1.0000 0.86150  0.58320  0.71490  Biso   1.000  C
  C158     1.0000 0.89250  0.55970  0.50870  Biso   1.000  C
  C159     1.0000 0.97750  0.58600  0.53520  Biso   1.000  C
  C160     1.0000 0.01300  0.64340  0.55980  Biso   1.000  C
  C161     1.0000 0.93990  0.61930  0.53510  Biso   1.000  C
  H70      1.0000 0.86390  0.62470  0.51780  Biso   1.000  H
  C162     1.0000 0.16190  0.60300  0.58360  Biso   1.000  C
  H71      1.0000 0.96900  0.58770  0.77760  Biso   1.000  H
  H72      1.0000 0.28540  0.54850  0.60400  Biso   1.000  H
  Sm10     1.0000 0.51940  0.26457  0.19233  Biso   1.000  Sm
  O73      1.0000 0.95590  0.09740  0.23510  Biso   1.000  O
  C163     1.0000 0.68990  0.16130  0.19400  Biso   1.000  C
  O74      1.0000 0.78620  0.06460  0.01530  Biso   1.000  O
  O75      1.0000 0.03750  0.19780  0.09770  Biso   1.000  O
  O76      1.0000 0.84900  0.05400  0.20950  Biso   1.000  O
  C164     1.0000 0.45730  0.10020  0.14610  Biso   1.000  C
  C165     1.0000 0.78470  0.14120  0.20320  Biso   1.000  C
  H73      1.0000 0.85980  0.15010  0.21120  Biso   1.000  H
  N28      1.0000 0.36260  0.11850  0.12290  Biso   1.000  N
  O77      1.0000 0.92950  0.03310  0.98570  Biso   1.000  O
  C166     1.0000 0.76720  0.10680  0.20030  Biso   1.000  C
  C167     1.0000 0.97170  0.17830  0.06100  Biso   1.000  C
  C168     1.0000 0.27890  0.09463  0.11260  Biso   1.000  C
  C169     1.0000 0.66090  0.09450  0.18060  Biso   1.000  C
  H74      1.0000 0.65080  0.07150  0.17650  Biso   1.000  H
  O78      1.0000 0.80630  0.20850  0.20900  Biso   1.000  O
  C170     1.0000 0.12630  0.13510  0.08270  Biso   1.000  C
  H75      1.0000 0.17890  0.15190  0.09780  Biso   1.000  H
  O79      1.0000 0.61580  0.21540  0.21490  Biso   1.000  O
  C171     1.0000 0.58150  0.14900  0.17580  Biso   1.000  C
  H76      1.0000 0.51790  0.16360  0.17010  Biso   1.000  H
  C172     1.0000 0.70730  0.19750  0.20470  Biso   1.000  C
  O80      1.0000 0.88390  0.18760  0.02650  Biso   1.000  O
  C173     1.0000 0.08820  0.07820  0.05730  Biso   1.000  C
  H77      1.0000 0.11450  0.05620  0.05470  Biso   1.000  H
  C174     1.0000 0.56460  0.11560  0.16590  Biso   1.000  C
  N29      1.0000 0.31810  0.06520  0.12850  Biso   1.000  N
  N30      1.0000 0.43090  0.06870  0.15050  Biso   1.000  N
  C175     1.0000 0.86150  0.08320  0.21490  Biso   1.000  C
  C176     1.0000 0.89250  0.05970  0.00870  Biso   1.000  C
  C177     1.0000 0.97750  0.08600  0.03520  Biso   1.000  C
  C178     1.0000 0.01300  0.14340  0.05980  Biso   1.000  C
  C179     1.0000 0.93990  0.11930  0.03510  Biso   1.000  C
  H78      1.0000 0.86390  0.12470  0.01780  Biso   1.000  H
  C180     1.0000 0.16190  0.10300  0.08360  Biso   1.000  C
  H79      1.0000 0.96900  0.08770  0.27760  Biso   1.000  H
  H80      1.0000 0.28540  0.04850  0.10400  Biso   1.000  H
  Sm11     1.0000 0.01940  0.76457  0.19233  Biso   1.000  Sm
  O81      1.0000 0.45590  0.59740  0.23510  Biso   1.000  O
  C181     1.0000 0.18990  0.66130  0.19400  Biso   1.000  C
  O82      1.0000 0.28620  0.56460  0.01530  Biso   1.000  O
  O83      1.0000 0.53750  0.69780  0.09770  Biso   1.000  O
  O84      1.0000 0.34900  0.55400  0.20950  Biso   1.000  O
  C182     1.0000 0.95730  0.60020  0.14610  Biso   1.000  C
  C183     1.0000 0.28470  0.64120  0.20320  Biso   1.000  C
  H81      1.0000 0.35980  0.65010  0.21120  Biso   1.000  H
  N31      1.0000 0.86260  0.61850  0.12290  Biso   1.000  N
  O85      1.0000 0.42950  0.53310  0.98570  Biso   1.000  O
  C184     1.0000 0.26720  0.60680  0.20030  Biso   1.000  C
  C185     1.0000 0.47170  0.67830  0.06100  Biso   1.000  C
  C186     1.0000 0.77890  0.59463  0.11260  Biso   1.000  C
  C187     1.0000 0.16090  0.59450  0.18060  Biso   1.000  C
  H82      1.0000 0.15080  0.57150  0.17650  Biso   1.000  H
  O86      1.0000 0.30630  0.70850  0.20900  Biso   1.000  O
  C188     1.0000 0.62630  0.63510  0.08270  Biso   1.000  C
  H83      1.0000 0.67890  0.65190  0.09780  Biso   1.000  H
  O87      1.0000 0.11580  0.71540  0.21490  Biso   1.000  O
  C189     1.0000 0.08150  0.64900  0.17580  Biso   1.000  C
  H84      1.0000 0.01790  0.66360  0.17010  Biso   1.000  H
  C190     1.0000 0.20730  0.69750  0.20470  Biso   1.000  C
  O88      1.0000 0.38390  0.68760  0.02650  Biso   1.000  O
  C191     1.0000 0.58820  0.57820  0.05730  Biso   1.000  C
  H85      1.0000 0.61450  0.55620  0.05470  Biso   1.000  H
  C192     1.0000 0.06460  0.61560  0.16590  Biso   1.000  C
  N32      1.0000 0.81810  0.56520  0.12850  Biso   1.000  N
  N33      1.0000 0.93090  0.56870  0.15050  Biso   1.000  N
  C193     1.0000 0.36150  0.58320  0.21490  Biso   1.000  C
  C194     1.0000 0.39250  0.55970  0.00870  Biso   1.000  C
  C195     1.0000 0.47750  0.58600  0.03520  Biso   1.000  C
  C196     1.0000 0.51300  0.64340  0.05980  Biso   1.000  C
  C197     1.0000 0.43990  0.61930  0.03510  Biso   1.000  C
  H86      1.0000 0.36390  0.62470  0.01780  Biso   1.000  H
  C198     1.0000 0.66190  0.60300  0.08360  Biso   1.000  C
  H87      1.0000 0.46900  0.58770  0.27760  Biso   1.000  H
  H88      1.0000 0.78540  0.54850  0.10400  Biso   1.000  H
  Sm12     1.0000 0.01940  0.26457  0.69233  Biso   1.000  Sm
  O89      1.0000 0.45590  0.09740  0.73510  Biso   1.000  O
  C199     1.0000 0.18990  0.16130  0.69400  Biso   1.000  C
  O90      1.0000 0.28620  0.06460  0.51530  Biso   1.000  O
  O91      1.0000 0.53750  0.19780  0.59770  Biso   1.000  O
  O92      1.0000 0.34900  0.05400  0.70950  Biso   1.000  O
  C200     1.0000 0.95730  0.10020  0.64610  Biso   1.000  C
  C201     1.0000 0.28470  0.14120  0.70320  Biso   1.000  C
  H89      1.0000 0.35980  0.15010  0.71120  Biso   1.000  H
  N34      1.0000 0.86260  0.11850  0.62290  Biso   1.000  N
  O93      1.0000 0.42950  0.03310  0.48570  Biso   1.000  O
  C202     1.0000 0.26720  0.10680  0.70030  Biso   1.000  C
  C203     1.0000 0.47170  0.17830  0.56100  Biso   1.000  C
  C204     1.0000 0.77890  0.09463  0.61260  Biso   1.000  C
  C205     1.0000 0.16090  0.09450  0.68060  Biso   1.000  C
  H90      1.0000 0.15080  0.07150  0.67650  Biso   1.000  H
  O94      1.0000 0.30630  0.20850  0.70900  Biso   1.000  O
  C206     1.0000 0.62630  0.13510  0.58270  Biso   1.000  C
  H91      1.0000 0.67890  0.15190  0.59780  Biso   1.000  H
  O95      1.0000 0.11580  0.21540  0.71490  Biso   1.000  O
  C207     1.0000 0.08150  0.14900  0.67580  Biso   1.000  C
  H92      1.0000 0.01790  0.16360  0.67010  Biso   1.000  H
  C208     1.0000 0.20730  0.19750  0.70470  Biso   1.000  C
  O96      1.0000 0.38390  0.18760  0.52650  Biso   1.000  O
  C209     1.0000 0.58820  0.07820  0.55730  Biso   1.000  C
  H93      1.0000 0.61450  0.05620  0.55470  Biso   1.000  H
  C210     1.0000 0.06460  0.11560  0.66590  Biso   1.000  C
  N35      1.0000 0.81810  0.06520  0.62850  Biso   1.000  N
  N36      1.0000 0.93090  0.06870  0.65050  Biso   1.000  N
  C211     1.0000 0.36150  0.08320  0.71490  Biso   1.000  C
  C212     1.0000 0.39250  0.05970  0.50870  Biso   1.000  C
  C213     1.0000 0.47750  0.08600  0.53520  Biso   1.000  C
  C214     1.0000 0.51300  0.14340  0.55980  Biso   1.000  C
  C215     1.0000 0.43990  0.11930  0.53510  Biso   1.000  C
  H94      1.0000 0.36390  0.12470  0.51780  Biso   1.000  H
  C216     1.0000 0.66190  0.10300  0.58360  Biso   1.000  C
  H95      1.0000 0.46900  0.08770  0.77760  Biso   1.000  H
  H96      1.0000 0.78540  0.04850  0.60400  Biso   1.000  H
  Sm13     1.0000 0.98060  0.73543  0.69233  Biso   1.000  Sm
  O97      1.0000 0.54410  0.90260  0.73510  Biso   1.000  O
  C217     1.0000 0.81010  0.83870  0.69400  Biso   1.000  C
  O98      1.0000 0.71380  0.93540  0.51530  Biso   1.000  O
  O99      1.0000 0.46250  0.80220  0.59770  Biso   1.000  O
  O100     1.0000 0.65100  0.94600  0.70950  Biso   1.000  O
  C218     1.0000 0.04270  0.89980  0.64610  Biso   1.000  C
  C219     1.0000 0.71530  0.85880  0.70320  Biso   1.000  C
  H97      1.0000 0.64020  0.84990  0.71120  Biso   1.000  H
  N37      1.0000 0.13740  0.88150  0.62290  Biso   1.000  N
  O101     1.0000 0.57050  0.96690  0.48570  Biso   1.000  O
  C220     1.0000 0.73280  0.89320  0.70030  Biso   1.000  C
  C221     1.0000 0.52830  0.82170  0.56100  Biso   1.000  C
  C222     1.0000 0.22110  0.90537  0.61260  Biso   1.000  C
  C223     1.0000 0.83910  0.90550  0.68060  Biso   1.000  C
  H98      1.0000 0.84920  0.92850  0.67650  Biso   1.000  H
  O102     1.0000 0.69370  0.79150  0.70900  Biso   1.000  O
  C224     1.0000 0.37370  0.86490  0.58270  Biso   1.000  C
  H99      1.0000 0.32110  0.84810  0.59780  Biso   1.000  H
  O103     1.0000 0.88420  0.78460  0.71490  Biso   1.000  O
  C225     1.0000 0.91850  0.85100  0.67580  Biso   1.000  C
  H100     1.0000 0.98210  0.83640  0.67010  Biso   1.000  H
  C226     1.0000 0.79270  0.80250  0.70470  Biso   1.000  C
  O104     1.0000 0.61610  0.81240  0.52650  Biso   1.000  O
  C227     1.0000 0.41180  0.92180  0.55730  Biso   1.000  C
  H101     1.0000 0.38550  0.94380  0.55470  Biso   1.000  H
  C228     1.0000 0.93540  0.88440  0.66590  Biso   1.000  C
  N38      1.0000 0.18190  0.93480  0.62850  Biso   1.000  N
  N39      1.0000 0.06910  0.93130  0.65050  Biso   1.000  N
  C229     1.0000 0.63850  0.91680  0.71490  Biso   1.000  C
  C230     1.0000 0.60750  0.94030  0.50870  Biso   1.000  C
  C231     1.0000 0.52250  0.91400  0.53520  Biso   1.000  C
  C232     1.0000 0.48700  0.85660  0.55980  Biso   1.000  C
  C233     1.0000 0.56010  0.88070  0.53510  Biso   1.000  C
  H102     1.0000 0.63610  0.87530  0.51780  Biso   1.000  H
  C234     1.0000 0.33810  0.89700  0.58360  Biso   1.000  C
  H103     1.0000 0.53100  0.91230  0.77760  Biso   1.000  H
  H104     1.0000 0.21460  0.95150  0.60400  Biso   1.000  H
  Sm14     1.0000 0.98060  0.23543  0.19233  Biso   1.000  Sm
  O105     1.0000 0.54410  0.40260  0.23510  Biso   1.000  O
  C235     1.0000 0.81010  0.33870  0.19400  Biso   1.000  C
  O106     1.0000 0.71380  0.43540  0.01530  Biso   1.000  O
  O107     1.0000 0.46250  0.30220  0.09770  Biso   1.000  O
  O108     1.0000 0.65100  0.44600  0.20950  Biso   1.000  O
  C236     1.0000 0.04270  0.39980  0.14610  Biso   1.000  C
  C237     1.0000 0.71530  0.35880  0.20320  Biso   1.000  C
  H105     1.0000 0.64020  0.34990  0.21120  Biso   1.000  H
  N40      1.0000 0.13740  0.38150  0.12290  Biso   1.000  N
  O109     1.0000 0.57050  0.46690  0.98570  Biso   1.000  O
  C238     1.0000 0.73280  0.39320  0.20030  Biso   1.000  C
  C239     1.0000 0.52830  0.32170  0.06100  Biso   1.000  C
  C240     1.0000 0.22110  0.40537  0.11260  Biso   1.000  C
  C241     1.0000 0.83910  0.40550  0.18060  Biso   1.000  C
  H106     1.0000 0.84920  0.42850  0.17650  Biso   1.000  H
  O110     1.0000 0.69370  0.29150  0.20900  Biso   1.000  O
  C242     1.0000 0.37370  0.36490  0.08270  Biso   1.000  C
  H107     1.0000 0.32110  0.34810  0.09780  Biso   1.000  H
  O111     1.0000 0.88420  0.28460  0.21490  Biso   1.000  O
  C243     1.0000 0.91850  0.35100  0.17580  Biso   1.000  C
  H108     1.0000 0.98210  0.33640  0.17010  Biso   1.000  H
  C244     1.0000 0.79270  0.30250  0.20470  Biso   1.000  C
  O112     1.0000 0.61610  0.31240  0.02650  Biso   1.000  O
  C245     1.0000 0.41180  0.42180  0.05730  Biso   1.000  C
  H109     1.0000 0.38550  0.44380  0.05470  Biso   1.000  H
  C246     1.0000 0.93540  0.38440  0.16590  Biso   1.000  C
  N41      1.0000 0.18190  0.43480  0.12850  Biso   1.000  N
  N42      1.0000 0.06910  0.43130  0.15050  Biso   1.000  N
  C247     1.0000 0.63850  0.41680  0.21490  Biso   1.000  C
  C248     1.0000 0.60750  0.44030  0.00870  Biso   1.000  C
  C249     1.0000 0.52250  0.41400  0.03520  Biso   1.000  C
  C250     1.0000 0.48700  0.35660  0.05980  Biso   1.000  C
  C251     1.0000 0.56010  0.38070  0.03510  Biso   1.000  C
  H110     1.0000 0.63610  0.37530  0.01780  Biso   1.000  H
  C252     1.0000 0.33810  0.39700  0.08360  Biso   1.000  C
  H111     1.0000 0.53100  0.41230  0.27760  Biso   1.000  H
  H112     1.0000 0.21460  0.45150  0.10400  Biso   1.000  H
  Sm15     1.0000 0.48060  0.73543  0.19233  Biso   1.000  Sm
  O113     1.0000 0.04410  0.90260  0.23510  Biso   1.000  O
  C253     1.0000 0.31010  0.83870  0.19400  Biso   1.000  C
  O114     1.0000 0.21380  0.93540  0.01530  Biso   1.000  O
  O115     1.0000 0.96250  0.80220  0.09770  Biso   1.000  O
  O116     1.0000 0.15100  0.94600  0.20950  Biso   1.000  O
  C254     1.0000 0.54270  0.89980  0.14610  Biso   1.000  C
  C255     1.0000 0.21530  0.85880  0.20320  Biso   1.000  C
  H113     1.0000 0.14020  0.84990  0.21120  Biso   1.000  H
  N43      1.0000 0.63740  0.88150  0.12290  Biso   1.000  N
  O117     1.0000 0.07050  0.96690  0.98570  Biso   1.000  O
  C256     1.0000 0.23280  0.89320  0.20030  Biso   1.000  C
  C257     1.0000 0.02830  0.82170  0.06100  Biso   1.000  C
  C258     1.0000 0.72110  0.90537  0.11260  Biso   1.000  C
  C259     1.0000 0.33910  0.90550  0.18060  Biso   1.000  C
  H114     1.0000 0.34920  0.92850  0.17650  Biso   1.000  H
  O118     1.0000 0.19370  0.79150  0.20900  Biso   1.000  O
  C260     1.0000 0.87370  0.86490  0.08270  Biso   1.000  C
  H115     1.0000 0.82110  0.84810  0.09780  Biso   1.000  H
  O119     1.0000 0.38420  0.78460  0.21490  Biso   1.000  O
  C261     1.0000 0.41850  0.85100  0.17580  Biso   1.000  C
  H116     1.0000 0.48210  0.83640  0.17010  Biso   1.000  H
  C262     1.0000 0.29270  0.80250  0.20470  Biso   1.000  C
  O120     1.0000 0.11610  0.81240  0.02650  Biso   1.000  O
  C263     1.0000 0.91180  0.92180  0.05730  Biso   1.000  C
  H117     1.0000 0.88550  0.94380  0.05470  Biso   1.000  H
  C264     1.0000 0.43540  0.88440  0.16590  Biso   1.000  C
  N44      1.0000 0.68190  0.93480  0.12850  Biso   1.000  N
  N45      1.0000 0.56910  0.93130  0.15050  Biso   1.000  N
  C265     1.0000 0.13850  0.91680  0.21490  Biso   1.000  C
  C266     1.0000 0.10750  0.94030  0.00870  Biso   1.000  C
  C267     1.0000 0.02250  0.91400  0.03520  Biso   1.000  C
  C268     1.0000 0.98700  0.85660  0.05980  Biso   1.000  C
  C269     1.0000 0.06010  0.88070  0.03510  Biso   1.000  C
  H118     1.0000 0.13610  0.87530  0.01780  Biso   1.000  H
  C270     1.0000 0.83810  0.89700  0.08360  Biso   1.000  C
  H119     1.0000 0.03100  0.91230  0.27760  Biso   1.000  H
  H120     1.0000 0.71460  0.95150  0.10400  Biso   1.000  H
  Sm16     1.0000 0.48060  0.23543  0.69233  Biso   1.000  Sm
  O121     1.0000 0.04410  0.40260  0.73510  Biso   1.000  O
  C271     1.0000 0.31010  0.33870  0.69400  Biso   1.000  C
  O122     1.0000 0.21380  0.43540  0.51530  Biso   1.000  O
  O123     1.0000 0.96250  0.30220  0.59770  Biso   1.000  O
  O124     1.0000 0.15100  0.44600  0.70950  Biso   1.000  O
  C272     1.0000 0.54270  0.39980  0.64610  Biso   1.000  C
  C273     1.0000 0.21530  0.35880  0.70320  Biso   1.000  C
  H121     1.0000 0.14020  0.34990  0.71120  Biso   1.000  H
  N46      1.0000 0.63740  0.38150  0.62290  Biso   1.000  N
  O125     1.0000 0.07050  0.46690  0.48570  Biso   1.000  O
  C274     1.0000 0.23280  0.39320  0.70030  Biso   1.000  C
  C275     1.0000 0.02830  0.32170  0.56100  Biso   1.000  C
  C276     1.0000 0.72110  0.40537  0.61260  Biso   1.000  C
  C277     1.0000 0.33910  0.40550  0.68060  Biso   1.000  C
  H122     1.0000 0.34920  0.42850  0.67650  Biso   1.000  H
  O126     1.0000 0.19370  0.29150  0.70900  Biso   1.000  O
  C278     1.0000 0.87370  0.36490  0.58270  Biso   1.000  C
  H123     1.0000 0.82110  0.34810  0.59780  Biso   1.000  H
  O127     1.0000 0.38420  0.28460  0.71490  Biso   1.000  O
  C279     1.0000 0.41850  0.35100  0.67580  Biso   1.000  C
  H124     1.0000 0.48210  0.33640  0.67010  Biso   1.000  H
  C280     1.0000 0.29270  0.30250  0.70470  Biso   1.000  C
  O128     1.0000 0.11610  0.31240  0.52650  Biso   1.000  O
  C281     1.0000 0.91180  0.42180  0.55730  Biso   1.000  C
  H125     1.0000 0.88550  0.44380  0.55470  Biso   1.000  H
  C282     1.0000 0.43540  0.38440  0.66590  Biso   1.000  C
  N47      1.0000 0.68190  0.43480  0.62850  Biso   1.000  N
  N48      1.0000 0.56910  0.43130  0.65050  Biso   1.000  N
  C283     1.0000 0.13850  0.41680  0.71490  Biso   1.000  C
  C284     1.0000 0.10750  0.44030  0.50870  Biso   1.000  C
  C285     1.0000 0.02250  0.41400  0.53520  Biso   1.000  C
  C286     1.0000 0.98700  0.35660  0.55980  Biso   1.000  C
  C287     1.0000 0.06010  0.38070  0.53510  Biso   1.000  C
  H126     1.0000 0.13610  0.37530  0.51780  Biso   1.000  H
  C288     1.0000 0.83810  0.39700  0.58360  Biso   1.000  C
  H127     1.0000 0.03100  0.41230  0.77760  Biso   1.000  H
  H128     1.0000 0.71460  0.45150  0.60400  Biso   1.000  H
