data_image0
_cell_length_a       11.5486
_cell_length_b       40.8635
_cell_length_c       16.7777
_cell_angle_alpha    90
_cell_angle_beta     90
_cell_angle_gamma    90

_symmetry_space_group_name_H-M    "P 1"
_symmetry_int_tables_number       1

loop_
  _symmetry_equiv_pos_as_xyz
  'x, y, z'

loop_
  _atom_site_label
  _atom_site_occupancy
  _atom_site_fract_x
  _atom_site_fract_y
  _atom_site_fract_z
  _atom_site_thermal_displace_type
  _atom_site_B_iso_or_equiv
  _atom_site_type_symbol
  Gd1      1.0000 0.73139  0.51445  0.71280  Biso   1.000  Gd
  O1       1.0000 0.71030  0.65220  0.75060  Biso   1.000  O
  O2       1.0000 0.55810  0.54077  0.72710  Biso   1.000  O
  C1       1.0000 0.44280  0.58770  0.71020  Biso   1.000  C
  C2       1.0000 0.20720  0.64890  0.66050  Biso   1.000  C
  O3       1.0000 0.53740  0.68516  0.53160  Biso   1.000  O
  O4       1.0000 0.78930  0.55165  0.61350  Biso   1.000  O
  N1       1.0000 0.11340  0.63139  0.63730  Biso   1.000  N
  O5       1.0000 0.68230  0.71771  0.50280  Biso   1.000  O
  C3       1.0000 0.53510  0.60870  0.72310  Biso   1.000  C
  H1       1.0000 0.60880  0.60020  0.73740  Biso   1.000  H
  O6       1.0000 0.60190  0.69558  0.72500  Biso   1.000  O
  O7       1.0000 0.63550  0.56328  0.53960  Biso   1.000  O
  N2       1.0000 0.18590  0.68010  0.66530  Biso   1.000  N
  C4       1.0000 0.72710  0.57151  0.57470  Biso   1.000  C
  O8       1.0000 0.36710  0.53469  0.73090  Biso   1.000  O
  C5       1.0000 0.51880  0.64240  0.71500  Biso   1.000  C
  C6       1.0000 0.83930  0.67142  0.57480  Biso   1.000  C
  H2       1.0000 0.86530  0.69350  0.57330  Biso   1.000  H
  C7       1.0000 0.87720  0.61422  0.59840  Biso   1.000  C
  H3       1.0000 0.92880  0.59720  0.61350  Biso   1.000  H
  C8       1.0000 0.03180  0.65468  0.62560  Biso   1.000  C
  C9       1.0000 0.41230  0.65473  0.69280  Biso   1.000  C
  H4       1.0000 0.40280  0.67770  0.68630  Biso   1.000  H
  N3       1.0000 0.06990  0.68439  0.64310  Biso   1.000  N
  C10      1.0000 0.64370  0.69043  0.52730  Biso   1.000  C
  C11      1.0000 0.72720  0.66399  0.55190  Biso   1.000  C
  C12      1.0000 0.31880  0.63392  0.67990  Biso   1.000  C
  C13      1.0000 0.68940  0.63174  0.55170  Biso   1.000  C
  H5       1.0000 0.61250  0.62660  0.53590  Biso   1.000  H
  C14      1.0000 0.61370  0.66635  0.73100  Biso   1.000  C
  C15      1.0000 0.33310  0.60003  0.68950  Biso   1.000  C
  H6       1.0000 0.26950  0.58560  0.68200  Biso   1.000  H
  C16      1.0000 0.76510  0.60692  0.57480  Biso   1.000  C
  C17      1.0000 0.45630  0.55134  0.72340  Biso   1.000  C
  C18      1.0000 0.91380  0.64694  0.59970  Biso   1.000  C
  H7       1.0000 0.75200  0.66590  0.77400  Biso   1.000  H
  H8       1.0000 0.04800  0.69200  0.59600  Biso   1.000  H
  Gd2      1.0000 0.73139  0.01445  0.21280  Biso   1.000  Gd
  O9       1.0000 0.71030  0.15220  0.25060  Biso   1.000  O
  O10      1.0000 0.55810  0.04077  0.22710  Biso   1.000  O
  C19      1.0000 0.44280  0.08770  0.21020  Biso   1.000  C
  C20      1.0000 0.20720  0.14890  0.16050  Biso   1.000  C
  O11      1.0000 0.53740  0.18516  0.03160  Biso   1.000  O
  O12      1.0000 0.78930  0.05165  0.11350  Biso   1.000  O
  N4       1.0000 0.11340  0.13139  0.13730  Biso   1.000  N
  O13      1.0000 0.68230  0.21771  0.00280  Biso   1.000  O
  C21      1.0000 0.53510  0.10870  0.22310  Biso   1.000  C
  H9       1.0000 0.60880  0.10020  0.23740  Biso   1.000  H
  O14      1.0000 0.60190  0.19558  0.22500  Biso   1.000  O
  O15      1.0000 0.63550  0.06328  0.03960  Biso   1.000  O
  N5       1.0000 0.18590  0.18010  0.16530  Biso   1.000  N
  C22      1.0000 0.72710  0.07151  0.07470  Biso   1.000  C
  O16      1.0000 0.36710  0.03469  0.23090  Biso   1.000  O
  C23      1.0000 0.51880  0.14240  0.21500  Biso   1.000  C
  C24      1.0000 0.83930  0.17142  0.07480  Biso   1.000  C
  H10      1.0000 0.86530  0.19350  0.07330  Biso   1.000  H
  C25      1.0000 0.87720  0.11422  0.09840  Biso   1.000  C
  H11      1.0000 0.92880  0.09720  0.11350  Biso   1.000  H
  C26      1.0000 0.03180  0.15468  0.12560  Biso   1.000  C
  C27      1.0000 0.41230  0.15473  0.19280  Biso   1.000  C
  H12      1.0000 0.40280  0.17770  0.18630  Biso   1.000  H
  N6       1.0000 0.06990  0.18439  0.14310  Biso   1.000  N
  C28      1.0000 0.64370  0.19043  0.02730  Biso   1.000  C
  C29      1.0000 0.72720  0.16399  0.05190  Biso   1.000  C
  C30      1.0000 0.31880  0.13392  0.17990  Biso   1.000  C
  C31      1.0000 0.68940  0.13174  0.05170  Biso   1.000  C
  H13      1.0000 0.61250  0.12660  0.03590  Biso   1.000  H
  C32      1.0000 0.61370  0.16635  0.23100  Biso   1.000  C
  C33      1.0000 0.33310  0.10003  0.18950  Biso   1.000  C
  H14      1.0000 0.26950  0.08560  0.18200  Biso   1.000  H
  C34      1.0000 0.76510  0.10692  0.07480  Biso   1.000  C
  C35      1.0000 0.45630  0.05134  0.22340  Biso   1.000  C
  C36      1.0000 0.91380  0.14694  0.09970  Biso   1.000  C
  H15      1.0000 0.75200  0.16590  0.27400  Biso   1.000  H
  H16      1.0000 0.04800  0.19200  0.09600  Biso   1.000  H
  Gd3      1.0000 0.23139  0.51445  0.21280  Biso   1.000  Gd
  O17      1.0000 0.21030  0.65220  0.25060  Biso   1.000  O
  O18      1.0000 0.05810  0.54077  0.22710  Biso   1.000  O
  C37      1.0000 0.94280  0.58770  0.21020  Biso   1.000  C
  C38      1.0000 0.70720  0.64890  0.16050  Biso   1.000  C
  O19      1.0000 0.03740  0.68516  0.03160  Biso   1.000  O
  O20      1.0000 0.28930  0.55165  0.11350  Biso   1.000  O
  N7       1.0000 0.61340  0.63139  0.13730  Biso   1.000  N
  O21      1.0000 0.18230  0.71771  0.00280  Biso   1.000  O
  C39      1.0000 0.03510  0.60870  0.22310  Biso   1.000  C
  H17      1.0000 0.10880  0.60020  0.23740  Biso   1.000  H
  O22      1.0000 0.10190  0.69558  0.22500  Biso   1.000  O
  O23      1.0000 0.13550  0.56328  0.03960  Biso   1.000  O
  N8       1.0000 0.68590  0.68010  0.16530  Biso   1.000  N
  C40      1.0000 0.22710  0.57151  0.07470  Biso   1.000  C
  O24      1.0000 0.86710  0.53469  0.23090  Biso   1.000  O
  C41      1.0000 0.01880  0.64240  0.21500  Biso   1.000  C
  C42      1.0000 0.33930  0.67142  0.07480  Biso   1.000  C
  H18      1.0000 0.36530  0.69350  0.07330  Biso   1.000  H
  C43      1.0000 0.37720  0.61422  0.09840  Biso   1.000  C
  H19      1.0000 0.42880  0.59720  0.11350  Biso   1.000  H
  C44      1.0000 0.53180  0.65468  0.12560  Biso   1.000  C
  C45      1.0000 0.91230  0.65473  0.19280  Biso   1.000  C
  H20      1.0000 0.90280  0.67770  0.18630  Biso   1.000  H
  N9       1.0000 0.56990  0.68439  0.14310  Biso   1.000  N
  C46      1.0000 0.14370  0.69043  0.02730  Biso   1.000  C
  C47      1.0000 0.22720  0.66399  0.05190  Biso   1.000  C
  C48      1.0000 0.81880  0.63392  0.17990  Biso   1.000  C
  C49      1.0000 0.18940  0.63174  0.05170  Biso   1.000  C
  H21      1.0000 0.11250  0.62660  0.03590  Biso   1.000  H
  C50      1.0000 0.11370  0.66635  0.23100  Biso   1.000  C
  C51      1.0000 0.83310  0.60003  0.18950  Biso   1.000  C
  H22      1.0000 0.76950  0.58560  0.18200  Biso   1.000  H
  C52      1.0000 0.26510  0.60692  0.07480  Biso   1.000  C
  C53      1.0000 0.95630  0.55134  0.22340  Biso   1.000  C
  C54      1.0000 0.41380  0.64694  0.09970  Biso   1.000  C
  H23      1.0000 0.25200  0.66590  0.27400  Biso   1.000  H
  H24      1.0000 0.54800  0.69200  0.09600  Biso   1.000  H
  Gd4      1.0000 0.23139  0.01445  0.71280  Biso   1.000  Gd
  O25      1.0000 0.21030  0.15220  0.75060  Biso   1.000  O
  O26      1.0000 0.05810  0.04077  0.72710  Biso   1.000  O
  C55      1.0000 0.94280  0.08770  0.71020  Biso   1.000  C
  C56      1.0000 0.70720  0.14890  0.66050  Biso   1.000  C
  O27      1.0000 0.03740  0.18516  0.53160  Biso   1.000  O
  O28      1.0000 0.28930  0.05165  0.61350  Biso   1.000  O
  N10      1.0000 0.61340  0.13139  0.63730  Biso   1.000  N
  O29      1.0000 0.18230  0.21771  0.50280  Biso   1.000  O
  C57      1.0000 0.03510  0.10870  0.72310  Biso   1.000  C
  H25      1.0000 0.10880  0.10020  0.73740  Biso   1.000  H
  O30      1.0000 0.10190  0.19558  0.72500  Biso   1.000  O
  O31      1.0000 0.13550  0.06328  0.53960  Biso   1.000  O
  N11      1.0000 0.68590  0.18010  0.66530  Biso   1.000  N
  C58      1.0000 0.22710  0.07151  0.57470  Biso   1.000  C
  O32      1.0000 0.86710  0.03469  0.73090  Biso   1.000  O
  C59      1.0000 0.01880  0.14240  0.71500  Biso   1.000  C
  C60      1.0000 0.33930  0.17142  0.57480  Biso   1.000  C
  H26      1.0000 0.36530  0.19350  0.57330  Biso   1.000  H
  C61      1.0000 0.37720  0.11422  0.59840  Biso   1.000  C
  H27      1.0000 0.42880  0.09720  0.61350  Biso   1.000  H
  C62      1.0000 0.53180  0.15468  0.62560  Biso   1.000  C
  C63      1.0000 0.91230  0.15473  0.69280  Biso   1.000  C
  H28      1.0000 0.90280  0.17770  0.68630  Biso   1.000  H
  N12      1.0000 0.56990  0.18439  0.64310  Biso   1.000  N
  C64      1.0000 0.14370  0.19043  0.52730  Biso   1.000  C
  C65      1.0000 0.22720  0.16399  0.55190  Biso   1.000  C
  C66      1.0000 0.81880  0.13392  0.67990  Biso   1.000  C
  C67      1.0000 0.18940  0.13174  0.55170  Biso   1.000  C
  H29      1.0000 0.11250  0.12660  0.53590  Biso   1.000  H
  C68      1.0000 0.11370  0.16635  0.73100  Biso   1.000  C
  C69      1.0000 0.83310  0.10003  0.68950  Biso   1.000  C
  H30      1.0000 0.76950  0.08560  0.68200  Biso   1.000  H
  C70      1.0000 0.26510  0.10692  0.57480  Biso   1.000  C
  C71      1.0000 0.95630  0.05134  0.72340  Biso   1.000  C
  C72      1.0000 0.41380  0.14694  0.59970  Biso   1.000  C
  H31      1.0000 0.25200  0.16590  0.77400  Biso   1.000  H
  H32      1.0000 0.54800  0.19200  0.59600  Biso   1.000  H
  Gd5      1.0000 0.26861  0.48555  0.71280  Biso   1.000  Gd
  O33      1.0000 0.28970  0.34780  0.75060  Biso   1.000  O
  O34      1.0000 0.44190  0.45923  0.72710  Biso   1.000  O
  C73      1.0000 0.55720  0.41230  0.71020  Biso   1.000  C
  C74      1.0000 0.79280  0.35110  0.66050  Biso   1.000  C
  O35      1.0000 0.46260  0.31484  0.53160  Biso   1.000  O
  O36      1.0000 0.21070  0.44835  0.61350  Biso   1.000  O
  N13      1.0000 0.88660  0.36861  0.63730  Biso   1.000  N
  O37      1.0000 0.31770  0.28229  0.50280  Biso   1.000  O
  C75      1.0000 0.46490  0.39130  0.72310  Biso   1.000  C
  H33      1.0000 0.39120  0.39980  0.73740  Biso   1.000  H
  O38      1.0000 0.39810  0.30442  0.72500  Biso   1.000  O
  O39      1.0000 0.36450  0.43672  0.53960  Biso   1.000  O
  N14      1.0000 0.81410  0.31990  0.66530  Biso   1.000  N
  C76      1.0000 0.27290  0.42849  0.57470  Biso   1.000  C
  O40      1.0000 0.63290  0.46531  0.73090  Biso   1.000  O
  C77      1.0000 0.48120  0.35760  0.71500  Biso   1.000  C
  C78      1.0000 0.16070  0.32858  0.57480  Biso   1.000  C
  H34      1.0000 0.13470  0.30650  0.57330  Biso   1.000  H
  C79      1.0000 0.12280  0.38578  0.59840  Biso   1.000  C
  H35      1.0000 0.07120  0.40280  0.61350  Biso   1.000  H
  C80      1.0000 0.96820  0.34532  0.62560  Biso   1.000  C
  C81      1.0000 0.58770  0.34527  0.69280  Biso   1.000  C
  H36      1.0000 0.59720  0.32230  0.68630  Biso   1.000  H
  N15      1.0000 0.93010  0.31561  0.64310  Biso   1.000  N
  C82      1.0000 0.35630  0.30957  0.52730  Biso   1.000  C
  C83      1.0000 0.27280  0.33601  0.55190  Biso   1.000  C
  C84      1.0000 0.68120  0.36608  0.67990  Biso   1.000  C
  C85      1.0000 0.31060  0.36826  0.55170  Biso   1.000  C
  H37      1.0000 0.38750  0.37340  0.53590  Biso   1.000  H
  C86      1.0000 0.38630  0.33365  0.73100  Biso   1.000  C
  C87      1.0000 0.66690  0.39997  0.68950  Biso   1.000  C
  H38      1.0000 0.73050  0.41440  0.68200  Biso   1.000  H
  C88      1.0000 0.23490  0.39308  0.57480  Biso   1.000  C
  C89      1.0000 0.54370  0.44866  0.72340  Biso   1.000  C
  C90      1.0000 0.08620  0.35306  0.59970  Biso   1.000  C
  H39      1.0000 0.24800  0.33410  0.77400  Biso   1.000  H
  H40      1.0000 0.95200  0.30800  0.59600  Biso   1.000  H
  Gd6      1.0000 0.26861  0.98555  0.21280  Biso   1.000  Gd
  O41      1.0000 0.28970  0.84780  0.25060  Biso   1.000  O
  O42      1.0000 0.44190  0.95923  0.22710  Biso   1.000  O
  C91      1.0000 0.55720  0.91230  0.21020  Biso   1.000  C
  C92      1.0000 0.79280  0.85110  0.16050  Biso   1.000  C
  O43      1.0000 0.46260  0.81484  0.03160  Biso   1.000  O
  O44      1.0000 0.21070  0.94835  0.11350  Biso   1.000  O
  N16      1.0000 0.88660  0.86861  0.13730  Biso   1.000  N
  O45      1.0000 0.31770  0.78229  0.00280  Biso   1.000  O
  C93      1.0000 0.46490  0.89130  0.22310  Biso   1.000  C
  H41      1.0000 0.39120  0.89980  0.23740  Biso   1.000  H
  O46      1.0000 0.39810  0.80442  0.22500  Biso   1.000  O
  O47      1.0000 0.36450  0.93672  0.03960  Biso   1.000  O
  N17      1.0000 0.81410  0.81990  0.16530  Biso   1.000  N
  C94      1.0000 0.27290  0.92849  0.07470  Biso   1.000  C
  O48      1.0000 0.63290  0.96531  0.23090  Biso   1.000  O
  C95      1.0000 0.48120  0.85760  0.21500  Biso   1.000  C
  C96      1.0000 0.16070  0.82858  0.07480  Biso   1.000  C
  H42      1.0000 0.13470  0.80650  0.07330  Biso   1.000  H
  C97      1.0000 0.12280  0.88578  0.09840  Biso   1.000  C
  H43      1.0000 0.07120  0.90280  0.11350  Biso   1.000  H
  C98      1.0000 0.96820  0.84532  0.12560  Biso   1.000  C
  C99      1.0000 0.58770  0.84527  0.19280  Biso   1.000  C
  H44      1.0000 0.59720  0.82230  0.18630  Biso   1.000  H
  N18      1.0000 0.93010  0.81561  0.14310  Biso   1.000  N
  C100     1.0000 0.35630  0.80957  0.02730  Biso   1.000  C
  C101     1.0000 0.27280  0.83601  0.05190  Biso   1.000  C
  C102     1.0000 0.68120  0.86608  0.17990  Biso   1.000  C
  C103     1.0000 0.31060  0.86826  0.05170  Biso   1.000  C
  H45      1.0000 0.38750  0.87340  0.03590  Biso   1.000  H
  C104     1.0000 0.38630  0.83365  0.23100  Biso   1.000  C
  C105     1.0000 0.66690  0.89997  0.18950  Biso   1.000  C
  H46      1.0000 0.73050  0.91440  0.18200  Biso   1.000  H
  C106     1.0000 0.23490  0.89308  0.07480  Biso   1.000  C
  C107     1.0000 0.54370  0.94866  0.22340  Biso   1.000  C
  C108     1.0000 0.08620  0.85306  0.09970  Biso   1.000  C
  H47      1.0000 0.24800  0.83410  0.27400  Biso   1.000  H
  H48      1.0000 0.95200  0.80800  0.09600  Biso   1.000  H
  Gd7      1.0000 0.76861  0.48555  0.21280  Biso   1.000  Gd
  O49      1.0000 0.78970  0.34780  0.25060  Biso   1.000  O
  O50      1.0000 0.94190  0.45923  0.22710  Biso   1.000  O
  C109     1.0000 0.05720  0.41230  0.21020  Biso   1.000  C
  C110     1.0000 0.29280  0.35110  0.16050  Biso   1.000  C
  O51      1.0000 0.96260  0.31484  0.03160  Biso   1.000  O
  O52      1.0000 0.71070  0.44835  0.11350  Biso   1.000  O
  N19      1.0000 0.38660  0.36861  0.13730  Biso   1.000  N
  O53      1.0000 0.81770  0.28229  0.00280  Biso   1.000  O
  C111     1.0000 0.96490  0.39130  0.22310  Biso   1.000  C
  H49      1.0000 0.89120  0.39980  0.23740  Biso   1.000  H
  O54      1.0000 0.89810  0.30442  0.22500  Biso   1.000  O
  O55      1.0000 0.86450  0.43672  0.03960  Biso   1.000  O
  N20      1.0000 0.31410  0.31990  0.16530  Biso   1.000  N
  C112     1.0000 0.77290  0.42849  0.07470  Biso   1.000  C
  O56      1.0000 0.13290  0.46531  0.23090  Biso   1.000  O
  C113     1.0000 0.98120  0.35760  0.21500  Biso   1.000  C
  C114     1.0000 0.66070  0.32858  0.07480  Biso   1.000  C
  H50      1.0000 0.63470  0.30650  0.07330  Biso   1.000  H
  C115     1.0000 0.62280  0.38578  0.09840  Biso   1.000  C
  H51      1.0000 0.57120  0.40280  0.11350  Biso   1.000  H
  C116     1.0000 0.46820  0.34532  0.12560  Biso   1.000  C
  C117     1.0000 0.08770  0.34527  0.19280  Biso   1.000  C
  H52      1.0000 0.09720  0.32230  0.18630  Biso   1.000  H
  N21      1.0000 0.43010  0.31561  0.14310  Biso   1.000  N
  C118     1.0000 0.85630  0.30957  0.02730  Biso   1.000  C
  C119     1.0000 0.77280  0.33601  0.05190  Biso   1.000  C
  C120     1.0000 0.18120  0.36608  0.17990  Biso   1.000  C
  C121     1.0000 0.81060  0.36826  0.05170  Biso   1.000  C
  H53      1.0000 0.88750  0.37340  0.03590  Biso   1.000  H
  C122     1.0000 0.88630  0.33365  0.23100  Biso   1.000  C
  C123     1.0000 0.16690  0.39997  0.18950  Biso   1.000  C
  H54      1.0000 0.23050  0.41440  0.18200  Biso   1.000  H
  C124     1.0000 0.73490  0.39308  0.07480  Biso   1.000  C
  C125     1.0000 0.04370  0.44866  0.22340  Biso   1.000  C
  C126     1.0000 0.58620  0.35306  0.09970  Biso   1.000  C
  H55      1.0000 0.74800  0.33410  0.27400  Biso   1.000  H
  H56      1.0000 0.45200  0.30800  0.09600  Biso   1.000  H
  Gd8      1.0000 0.76861  0.98555  0.71280  Biso   1.000  Gd
  O57      1.0000 0.78970  0.84780  0.75060  Biso   1.000  O
  O58      1.0000 0.94190  0.95923  0.72710  Biso   1.000  O
  C127     1.0000 0.05720  0.91230  0.71020  Biso   1.000  C
  C128     1.0000 0.29280  0.85110  0.66050  Biso   1.000  C
  O59      1.0000 0.96260  0.81484  0.53160  Biso   1.000  O
  O60      1.0000 0.71070  0.94835  0.61350  Biso   1.000  O
  N22      1.0000 0.38660  0.86861  0.63730  Biso   1.000  N
  O61      1.0000 0.81770  0.78229  0.50280  Biso   1.000  O
  C129     1.0000 0.96490  0.89130  0.72310  Biso   1.000  C
  H57      1.0000 0.89120  0.89980  0.73740  Biso   1.000  H
  O62      1.0000 0.89810  0.80442  0.72500  Biso   1.000  O
  O63      1.0000 0.86450  0.93672  0.53960  Biso   1.000  O
  N23      1.0000 0.31410  0.81990  0.66530  Biso   1.000  N
  C130     1.0000 0.77290  0.92849  0.57470  Biso   1.000  C
  O64      1.0000 0.13290  0.96531  0.73090  Biso   1.000  O
  C131     1.0000 0.98120  0.85760  0.71500  Biso   1.000  C
  C132     1.0000 0.66070  0.82858  0.57480  Biso   1.000  C
  H58      1.0000 0.63470  0.80650  0.57330  Biso   1.000  H
  C133     1.0000 0.62280  0.88578  0.59840  Biso   1.000  C
  H59      1.0000 0.57120  0.90280  0.61350  Biso   1.000  H
  C134     1.0000 0.46820  0.84532  0.62560  Biso   1.000  C
  C135     1.0000 0.08770  0.84527  0.69280  Biso   1.000  C
  H60      1.0000 0.09720  0.82230  0.68630  Biso   1.000  H
  N24      1.0000 0.43010  0.81561  0.64310  Biso   1.000  N
  C136     1.0000 0.85630  0.80957  0.52730  Biso   1.000  C
  C137     1.0000 0.77280  0.83601  0.55190  Biso   1.000  C
  C138     1.0000 0.18120  0.86608  0.67990  Biso   1.000  C
  C139     1.0000 0.81060  0.86826  0.55170  Biso   1.000  C
  H61      1.0000 0.88750  0.87340  0.53590  Biso   1.000  H
  C140     1.0000 0.88630  0.83365  0.73100  Biso   1.000  C
  C141     1.0000 0.16690  0.89997  0.68950  Biso   1.000  C
  H62      1.0000 0.23050  0.91440  0.68200  Biso   1.000  H
  C142     1.0000 0.73490  0.89308  0.57480  Biso   1.000  C
  C143     1.0000 0.04370  0.94866  0.72340  Biso   1.000  C
  C144     1.0000 0.58620  0.85306  0.59970  Biso   1.000  C
  H63      1.0000 0.74800  0.83410  0.77400  Biso   1.000  H
  H64      1.0000 0.45200  0.80800  0.59600  Biso   1.000  H
  Gd9      1.0000 0.98139  0.73555  0.96280  Biso   1.000  Gd
  O65      1.0000 0.96030  0.59780  0.00060  Biso   1.000  O
  O66      1.0000 0.80810  0.70923  0.97710  Biso   1.000  O
  C145     1.0000 0.69280  0.66230  0.96020  Biso   1.000  C
  C146     1.0000 0.45720  0.60110  0.91050  Biso   1.000  C
  O67      1.0000 0.78740  0.56484  0.78160  Biso   1.000  O
  O68      1.0000 0.03930  0.69835  0.86350  Biso   1.000  O
  N25      1.0000 0.36340  0.61861  0.88730  Biso   1.000  N
  O69      1.0000 0.93230  0.53229  0.75280  Biso   1.000  O
  C147     1.0000 0.78510  0.64130  0.97310  Biso   1.000  C
  H65      1.0000 0.85880  0.64980  0.98740  Biso   1.000  H
  O70      1.0000 0.85190  0.55442  0.97500  Biso   1.000  O
  O71      1.0000 0.88550  0.68672  0.78960  Biso   1.000  O
  N26      1.0000 0.43590  0.56990  0.91530  Biso   1.000  N
  C148     1.0000 0.97710  0.67849  0.82470  Biso   1.000  C
  O72      1.0000 0.61710  0.71531  0.98090  Biso   1.000  O
  C149     1.0000 0.76880  0.60760  0.96500  Biso   1.000  C
  C150     1.0000 0.08930  0.57858  0.82480  Biso   1.000  C
  H66      1.0000 0.11530  0.55650  0.82330  Biso   1.000  H
  C151     1.0000 0.12720  0.63578  0.84840  Biso   1.000  C
  H67      1.0000 0.17880  0.65280  0.86350  Biso   1.000  H
  C152     1.0000 0.28180  0.59532  0.87560  Biso   1.000  C
  C153     1.0000 0.66230  0.59527  0.94280  Biso   1.000  C
  H68      1.0000 0.65280  0.57230  0.93630  Biso   1.000  H
  N27      1.0000 0.31990  0.56561  0.89310  Biso   1.000  N
  C154     1.0000 0.89370  0.55957  0.77730  Biso   1.000  C
  C155     1.0000 0.97720  0.58601  0.80190  Biso   1.000  C
  C156     1.0000 0.56880  0.61608  0.92990  Biso   1.000  C
  C157     1.0000 0.93940  0.61826  0.80170  Biso   1.000  C
  H69      1.0000 0.86250  0.62340  0.78590  Biso   1.000  H
  C158     1.0000 0.86370  0.58365  0.98100  Biso   1.000  C
  C159     1.0000 0.58310  0.64997  0.93950  Biso   1.000  C
  H70      1.0000 0.51950  0.66440  0.93200  Biso   1.000  H
  C160     1.0000 0.01510  0.64308  0.82480  Biso   1.000  C
  C161     1.0000 0.70630  0.69866  0.97340  Biso   1.000  C
  C162     1.0000 0.16380  0.60306  0.84970  Biso   1.000  C
  H71      1.0000 0.00200  0.58410  0.02400  Biso   1.000  H
  H72      1.0000 0.29800  0.55800  0.84600  Biso   1.000  H
  Gd10     1.0000 0.98139  0.23555  0.46280  Biso   1.000  Gd
  O73      1.0000 0.96030  0.09780  0.50060  Biso   1.000  O
  O74      1.0000 0.80810  0.20923  0.47710  Biso   1.000  O
  C163     1.0000 0.69280  0.16230  0.46020  Biso   1.000  C
  C164     1.0000 0.45720  0.10110  0.41050  Biso   1.000  C
  O75      1.0000 0.78740  0.06484  0.28160  Biso   1.000  O
  O76      1.0000 0.03930  0.19835  0.36350  Biso   1.000  O
  N28      1.0000 0.36340  0.11861  0.38730  Biso   1.000  N
  O77      1.0000 0.93230  0.03229  0.25280  Biso   1.000  O
  C165     1.0000 0.78510  0.14130  0.47310  Biso   1.000  C
  H73      1.0000 0.85880  0.14980  0.48740  Biso   1.000  H
  O78      1.0000 0.85190  0.05442  0.47500  Biso   1.000  O
  O79      1.0000 0.88550  0.18672  0.28960  Biso   1.000  O
  N29      1.0000 0.43590  0.06990  0.41530  Biso   1.000  N
  C166     1.0000 0.97710  0.17849  0.32470  Biso   1.000  C
  O80      1.0000 0.61710  0.21531  0.48090  Biso   1.000  O
  C167     1.0000 0.76880  0.10760  0.46500  Biso   1.000  C
  C168     1.0000 0.08930  0.07858  0.32480  Biso   1.000  C
  H74      1.0000 0.11530  0.05650  0.32330  Biso   1.000  H
  C169     1.0000 0.12720  0.13578  0.34840  Biso   1.000  C
  H75      1.0000 0.17880  0.15280  0.36350  Biso   1.000  H
  C170     1.0000 0.28180  0.09532  0.37560  Biso   1.000  C
  C171     1.0000 0.66230  0.09527  0.44280  Biso   1.000  C
  H76      1.0000 0.65280  0.07230  0.43630  Biso   1.000  H
  N30      1.0000 0.31990  0.06561  0.39310  Biso   1.000  N
  C172     1.0000 0.89370  0.05957  0.27730  Biso   1.000  C
  C173     1.0000 0.97720  0.08601  0.30190  Biso   1.000  C
  C174     1.0000 0.56880  0.11608  0.42990  Biso   1.000  C
  C175     1.0000 0.93940  0.11826  0.30170  Biso   1.000  C
  H77      1.0000 0.86250  0.12340  0.28590  Biso   1.000  H
  C176     1.0000 0.86370  0.08365  0.48100  Biso   1.000  C
  C177     1.0000 0.58310  0.14997  0.43950  Biso   1.000  C
  H78      1.0000 0.51950  0.16440  0.43200  Biso   1.000  H
  C178     1.0000 0.01510  0.14308  0.32480  Biso   1.000  C
  C179     1.0000 0.70630  0.19866  0.47340  Biso   1.000  C
  C180     1.0000 0.16380  0.10306  0.34970  Biso   1.000  C
  H79      1.0000 0.00200  0.08410  0.52400  Biso   1.000  H
  H80      1.0000 0.29800  0.05800  0.34600  Biso   1.000  H
  Gd11     1.0000 0.48139  0.73555  0.46280  Biso   1.000  Gd
  O81      1.0000 0.46030  0.59780  0.50060  Biso   1.000  O
  O82      1.0000 0.30810  0.70923  0.47710  Biso   1.000  O
  C181     1.0000 0.19280  0.66230  0.46020  Biso   1.000  C
  C182     1.0000 0.95720  0.60110  0.41050  Biso   1.000  C
  O83      1.0000 0.28740  0.56484  0.28160  Biso   1.000  O
  O84      1.0000 0.53930  0.69835  0.36350  Biso   1.000  O
  N31      1.0000 0.86340  0.61861  0.38730  Biso   1.000  N
  O85      1.0000 0.43230  0.53229  0.25280  Biso   1.000  O
  C183     1.0000 0.28510  0.64130  0.47310  Biso   1.000  C
  H81      1.0000 0.35880  0.64980  0.48740  Biso   1.000  H
  O86      1.0000 0.35190  0.55442  0.47500  Biso   1.000  O
  O87      1.0000 0.38550  0.68672  0.28960  Biso   1.000  O
  N32      1.0000 0.93590  0.56990  0.41530  Biso   1.000  N
  C184     1.0000 0.47710  0.67849  0.32470  Biso   1.000  C
  O88      1.0000 0.11710  0.71531  0.48090  Biso   1.000  O
  C185     1.0000 0.26880  0.60760  0.46500  Biso   1.000  C
  C186     1.0000 0.58930  0.57858  0.32480  Biso   1.000  C
  H82      1.0000 0.61530  0.55650  0.32330  Biso   1.000  H
  C187     1.0000 0.62720  0.63578  0.34840  Biso   1.000  C
  H83      1.0000 0.67880  0.65280  0.36350  Biso   1.000  H
  C188     1.0000 0.78180  0.59532  0.37560  Biso   1.000  C
  C189     1.0000 0.16230  0.59527  0.44280  Biso   1.000  C
  H84      1.0000 0.15280  0.57230  0.43630  Biso   1.000  H
  N33      1.0000 0.81990  0.56561  0.39310  Biso   1.000  N
  C190     1.0000 0.39370  0.55957  0.27730  Biso   1.000  C
  C191     1.0000 0.47720  0.58601  0.30190  Biso   1.000  C
  C192     1.0000 0.06880  0.61608  0.42990  Biso   1.000  C
  C193     1.0000 0.43940  0.61826  0.30170  Biso   1.000  C
  H85      1.0000 0.36250  0.62340  0.28590  Biso   1.000  H
  C194     1.0000 0.36370  0.58365  0.48100  Biso   1.000  C
  C195     1.0000 0.08310  0.64997  0.43950  Biso   1.000  C
  H86      1.0000 0.01950  0.66440  0.43200  Biso   1.000  H
  C196     1.0000 0.51510  0.64308  0.32480  Biso   1.000  C
  C197     1.0000 0.20630  0.69866  0.47340  Biso   1.000  C
  C198     1.0000 0.66380  0.60306  0.34970  Biso   1.000  C
  H87      1.0000 0.50200  0.58410  0.52400  Biso   1.000  H
  H88      1.0000 0.79800  0.55800  0.34600  Biso   1.000  H
  Gd12     1.0000 0.48139  0.23555  0.96280  Biso   1.000  Gd
  O89      1.0000 0.46030  0.09780  0.00060  Biso   1.000  O
  O90      1.0000 0.30810  0.20923  0.97710  Biso   1.000  O
  C199     1.0000 0.19280  0.16230  0.96020  Biso   1.000  C
  C200     1.0000 0.95720  0.10110  0.91050  Biso   1.000  C
  O91      1.0000 0.28740  0.06484  0.78160  Biso   1.000  O
  O92      1.0000 0.53930  0.19835  0.86350  Biso   1.000  O
  N34      1.0000 0.86340  0.11861  0.88730  Biso   1.000  N
  O93      1.0000 0.43230  0.03229  0.75280  Biso   1.000  O
  C201     1.0000 0.28510  0.14130  0.97310  Biso   1.000  C
  H89      1.0000 0.35880  0.14980  0.98740  Biso   1.000  H
  O94      1.0000 0.35190  0.05442  0.97500  Biso   1.000  O
  O95      1.0000 0.38550  0.18672  0.78960  Biso   1.000  O
  N35      1.0000 0.93590  0.06990  0.91530  Biso   1.000  N
  C202     1.0000 0.47710  0.17849  0.82470  Biso   1.000  C
  O96      1.0000 0.11710  0.21531  0.98090  Biso   1.000  O
  C203     1.0000 0.26880  0.10760  0.96500  Biso   1.000  C
  C204     1.0000 0.58930  0.07858  0.82480  Biso   1.000  C
  H90      1.0000 0.61530  0.05650  0.82330  Biso   1.000  H
  C205     1.0000 0.62720  0.13578  0.84840  Biso   1.000  C
  H91      1.0000 0.67880  0.15280  0.86350  Biso   1.000  H
  C206     1.0000 0.78180  0.09532  0.87560  Biso   1.000  C
  C207     1.0000 0.16230  0.09527  0.94280  Biso   1.000  C
  H92      1.0000 0.15280  0.07230  0.93630  Biso   1.000  H
  N36      1.0000 0.81990  0.06561  0.89310  Biso   1.000  N
  C208     1.0000 0.39370  0.05957  0.77730  Biso   1.000  C
  C209     1.0000 0.47720  0.08601  0.80190  Biso   1.000  C
  C210     1.0000 0.06880  0.11608  0.92990  Biso   1.000  C
  C211     1.0000 0.43940  0.11826  0.80170  Biso   1.000  C
  H93      1.0000 0.36250  0.12340  0.78590  Biso   1.000  H
  C212     1.0000 0.36370  0.08365  0.98100  Biso   1.000  C
  C213     1.0000 0.08310  0.14997  0.93950  Biso   1.000  C
  H94      1.0000 0.01950  0.16440  0.93200  Biso   1.000  H
  C214     1.0000 0.51510  0.14308  0.82480  Biso   1.000  C
  C215     1.0000 0.20630  0.19866  0.97340  Biso   1.000  C
  C216     1.0000 0.66380  0.10306  0.84970  Biso   1.000  C
  H95      1.0000 0.50200  0.08410  0.02400  Biso   1.000  H
  H96      1.0000 0.79800  0.05800  0.84600  Biso   1.000  H
  Gd13     1.0000 0.51861  0.76445  0.96280  Biso   1.000  Gd
  O97      1.0000 0.53970  0.90220  0.00060  Biso   1.000  O
  O98      1.0000 0.69190  0.79077  0.97710  Biso   1.000  O
  C217     1.0000 0.80720  0.83770  0.96020  Biso   1.000  C
  C218     1.0000 0.04280  0.89890  0.91050  Biso   1.000  C
  O99      1.0000 0.71260  0.93516  0.78160  Biso   1.000  O
  O100     1.0000 0.46070  0.80165  0.86350  Biso   1.000  O
  N37      1.0000 0.13660  0.88139  0.88730  Biso   1.000  N
  O101     1.0000 0.56770  0.96771  0.75280  Biso   1.000  O
  C219     1.0000 0.71490  0.85870  0.97310  Biso   1.000  C
  H97      1.0000 0.64120  0.85020  0.98740  Biso   1.000  H
  O102     1.0000 0.64810  0.94558  0.97500  Biso   1.000  O
  O103     1.0000 0.61450  0.81328  0.78960  Biso   1.000  O
  N38      1.0000 0.06410  0.93010  0.91530  Biso   1.000  N
  C220     1.0000 0.52290  0.82151  0.82470  Biso   1.000  C
  O104     1.0000 0.88290  0.78469  0.98090  Biso   1.000  O
  C221     1.0000 0.73120  0.89240  0.96500  Biso   1.000  C
  C222     1.0000 0.41070  0.92142  0.82480  Biso   1.000  C
  H98      1.0000 0.38470  0.94350  0.82330  Biso   1.000  H
  C223     1.0000 0.37280  0.86422  0.84840  Biso   1.000  C
  H99      1.0000 0.32120  0.84720  0.86350  Biso   1.000  H
  C224     1.0000 0.21820  0.90468  0.87560  Biso   1.000  C
  C225     1.0000 0.83770  0.90473  0.94280  Biso   1.000  C
  H100     1.0000 0.84720  0.92770  0.93630  Biso   1.000  H
  N39      1.0000 0.18010  0.93439  0.89310  Biso   1.000  N
  C226     1.0000 0.60630  0.94043  0.77730  Biso   1.000  C
  C227     1.0000 0.52280  0.91399  0.80190  Biso   1.000  C
  C228     1.0000 0.93120  0.88392  0.92990  Biso   1.000  C
  C229     1.0000 0.56060  0.88174  0.80170  Biso   1.000  C
  H101     1.0000 0.63750  0.87660  0.78590  Biso   1.000  H
  C230     1.0000 0.63630  0.91635  0.98100  Biso   1.000  C
  C231     1.0000 0.91690  0.85003  0.93950  Biso   1.000  C
  H102     1.0000 0.98050  0.83560  0.93200  Biso   1.000  H
  C232     1.0000 0.48490  0.85692  0.82480  Biso   1.000  C
  C233     1.0000 0.79370  0.80134  0.97340  Biso   1.000  C
  C234     1.0000 0.33620  0.89694  0.84970  Biso   1.000  C
  H103     1.0000 0.49800  0.91590  0.02400  Biso   1.000  H
  H104     1.0000 0.20200  0.94200  0.84600  Biso   1.000  H
  Gd14     1.0000 0.51861  0.26445  0.46280  Biso   1.000  Gd
  O105     1.0000 0.53970  0.40220  0.50060  Biso   1.000  O
  O106     1.0000 0.69190  0.29077  0.47710  Biso   1.000  O
  C235     1.0000 0.80720  0.33770  0.46020  Biso   1.000  C
  C236     1.0000 0.04280  0.39890  0.41050  Biso   1.000  C
  O107     1.0000 0.71260  0.43516  0.28160  Biso   1.000  O
  O108     1.0000 0.46070  0.30165  0.36350  Biso   1.000  O
  N40      1.0000 0.13660  0.38139  0.38730  Biso   1.000  N
  O109     1.0000 0.56770  0.46771  0.25280  Biso   1.000  O
  C237     1.0000 0.71490  0.35870  0.47310  Biso   1.000  C
  H105     1.0000 0.64120  0.35020  0.48740  Biso   1.000  H
  O110     1.0000 0.64810  0.44558  0.47500  Biso   1.000  O
  O111     1.0000 0.61450  0.31328  0.28960  Biso   1.000  O
  N41      1.0000 0.06410  0.43010  0.41530  Biso   1.000  N
  C238     1.0000 0.52290  0.32151  0.32470  Biso   1.000  C
  O112     1.0000 0.88290  0.28469  0.48090  Biso   1.000  O
  C239     1.0000 0.73120  0.39240  0.46500  Biso   1.000  C
  C240     1.0000 0.41070  0.42142  0.32480  Biso   1.000  C
  H106     1.0000 0.38470  0.44350  0.32330  Biso   1.000  H
  C241     1.0000 0.37280  0.36422  0.34840  Biso   1.000  C
  H107     1.0000 0.32120  0.34720  0.36350  Biso   1.000  H
  C242     1.0000 0.21820  0.40468  0.37560  Biso   1.000  C
  C243     1.0000 0.83770  0.40473  0.44280  Biso   1.000  C
  H108     1.0000 0.84720  0.42770  0.43630  Biso   1.000  H
  N42      1.0000 0.18010  0.43439  0.39310  Biso   1.000  N
  C244     1.0000 0.60630  0.44043  0.27730  Biso   1.000  C
  C245     1.0000 0.52280  0.41399  0.30190  Biso   1.000  C
  C246     1.0000 0.93120  0.38392  0.42990  Biso   1.000  C
  C247     1.0000 0.56060  0.38174  0.30170  Biso   1.000  C
  H109     1.0000 0.63750  0.37660  0.28590  Biso   1.000  H
  C248     1.0000 0.63630  0.41635  0.48100  Biso   1.000  C
  C249     1.0000 0.91690  0.35003  0.43950  Biso   1.000  C
  H110     1.0000 0.98050  0.33560  0.43200  Biso   1.000  H
  C250     1.0000 0.48490  0.35692  0.32480  Biso   1.000  C
  C251     1.0000 0.79370  0.30134  0.47340  Biso   1.000  C
  C252     1.0000 0.33620  0.39694  0.34970  Biso   1.000  C
  H111     1.0000 0.49800  0.41590  0.52400  Biso   1.000  H
  H112     1.0000 0.20200  0.44200  0.34600  Biso   1.000  H
  Gd15     1.0000 0.01861  0.76445  0.46280  Biso   1.000  Gd
  O113     1.0000 0.03970  0.90220  0.50060  Biso   1.000  O
  O114     1.0000 0.19190  0.79077  0.47710  Biso   1.000  O
  C253     1.0000 0.30720  0.83770  0.46020  Biso   1.000  C
  C254     1.0000 0.54280  0.89890  0.41050  Biso   1.000  C
  O115     1.0000 0.21260  0.93516  0.28160  Biso   1.000  O
  O116     1.0000 0.96070  0.80165  0.36350  Biso   1.000  O
  N43      1.0000 0.63660  0.88139  0.38730  Biso   1.000  N
  O117     1.0000 0.06770  0.96771  0.25280  Biso   1.000  O
  C255     1.0000 0.21490  0.85870  0.47310  Biso   1.000  C
  H113     1.0000 0.14120  0.85020  0.48740  Biso   1.000  H
  O118     1.0000 0.14810  0.94558  0.47500  Biso   1.000  O
  O119     1.0000 0.11450  0.81328  0.28960  Biso   1.000  O
  N44      1.0000 0.56410  0.93010  0.41530  Biso   1.000  N
  C256     1.0000 0.02290  0.82151  0.32470  Biso   1.000  C
  O120     1.0000 0.38290  0.78469  0.48090  Biso   1.000  O
  C257     1.0000 0.23120  0.89240  0.46500  Biso   1.000  C
  C258     1.0000 0.91070  0.92142  0.32480  Biso   1.000  C
  H114     1.0000 0.88470  0.94350  0.32330  Biso   1.000  H
  C259     1.0000 0.87280  0.86422  0.34840  Biso   1.000  C
  H115     1.0000 0.82120  0.84720  0.36350  Biso   1.000  H
  C260     1.0000 0.71820  0.90468  0.37560  Biso   1.000  C
  C261     1.0000 0.33770  0.90473  0.44280  Biso   1.000  C
  H116     1.0000 0.34720  0.92770  0.43630  Biso   1.000  H
  N45      1.0000 0.68010  0.93439  0.39310  Biso   1.000  N
  C262     1.0000 0.10630  0.94043  0.27730  Biso   1.000  C
  C263     1.0000 0.02280  0.91399  0.30190  Biso   1.000  C
  C264     1.0000 0.43120  0.88392  0.42990  Biso   1.000  C
  C265     1.0000 0.06060  0.88174  0.30170  Biso   1.000  C
  H117     1.0000 0.13750  0.87660  0.28590  Biso   1.000  H
  C266     1.0000 0.13630  0.91635  0.48100  Biso   1.000  C
  C267     1.0000 0.41690  0.85003  0.43950  Biso   1.000  C
  H118     1.0000 0.48050  0.83560  0.43200  Biso   1.000  H
  C268     1.0000 0.98490  0.85692  0.32480  Biso   1.000  C
  C269     1.0000 0.29370  0.80134  0.47340  Biso   1.000  C
  C270     1.0000 0.83620  0.89694  0.34970  Biso   1.000  C
  H119     1.0000 0.99800  0.91590  0.52400  Biso   1.000  H
  H120     1.0000 0.70200  0.94200  0.34600  Biso   1.000  H
  Gd16     1.0000 0.01861  0.26445  0.96280  Biso   1.000  Gd
  O121     1.0000 0.03970  0.40220  0.00060  Biso   1.000  O
  O122     1.0000 0.19190  0.29077  0.97710  Biso   1.000  O
  C271     1.0000 0.30720  0.33770  0.96020  Biso   1.000  C
  C272     1.0000 0.54280  0.39890  0.91050  Biso   1.000  C
  O123     1.0000 0.21260  0.43516  0.78160  Biso   1.000  O
  O124     1.0000 0.96070  0.30165  0.86350  Biso   1.000  O
  N46      1.0000 0.63660  0.38139  0.88730  Biso   1.000  N
  O125     1.0000 0.06770  0.46771  0.75280  Biso   1.000  O
  C273     1.0000 0.21490  0.35870  0.97310  Biso   1.000  C
  H121     1.0000 0.14120  0.35020  0.98740  Biso   1.000  H
  O126     1.0000 0.14810  0.44558  0.97500  Biso   1.000  O
  O127     1.0000 0.11450  0.31328  0.78960  Biso   1.000  O
  N47      1.0000 0.56410  0.43010  0.91530  Biso   1.000  N
  C274     1.0000 0.02290  0.32151  0.82470  Biso   1.000  C
  O128     1.0000 0.38290  0.28469  0.98090  Biso   1.000  O
  C275     1.0000 0.23120  0.39240  0.96500  Biso   1.000  C
  C276     1.0000 0.91070  0.42142  0.82480  Biso   1.000  C
  H122     1.0000 0.88470  0.44350  0.82330  Biso   1.000  H
  C277     1.0000 0.87280  0.36422  0.84840  Biso   1.000  C
  H123     1.0000 0.82120  0.34720  0.86350  Biso   1.000  H
  C278     1.0000 0.71820  0.40468  0.87560  Biso   1.000  C
  C279     1.0000 0.33770  0.40473  0.94280  Biso   1.000  C
  H124     1.0000 0.34720  0.42770  0.93630  Biso   1.000  H
  N48      1.0000 0.68010  0.43439  0.89310  Biso   1.000  N
  C280     1.0000 0.10630  0.44043  0.77730  Biso   1.000  C
  C281     1.0000 0.02280  0.41399  0.80190  Biso   1.000  C
  C282     1.0000 0.43120  0.38392  0.92990  Biso   1.000  C
  C283     1.0000 0.06060  0.38174  0.80170  Biso   1.000  C
  H125     1.0000 0.13750  0.37660  0.78590  Biso   1.000  H
  C284     1.0000 0.13630  0.41635  0.98100  Biso   1.000  C
  C285     1.0000 0.41690  0.35003  0.93950  Biso   1.000  C
  H126     1.0000 0.48050  0.33560  0.93200  Biso   1.000  H
  C286     1.0000 0.98490  0.35692  0.82480  Biso   1.000  C
  C287     1.0000 0.29370  0.30134  0.97340  Biso   1.000  C
  C288     1.0000 0.83620  0.39694  0.84970  Biso   1.000  C
  H127     1.0000 0.99800  0.41590  0.02400  Biso   1.000  H
  H128     1.0000 0.70200  0.44200  0.84600  Biso   1.000  H
