data_image0
_cell_length_a       11.5293
_cell_length_b       40.471
_cell_length_c       17.1304
_cell_angle_alpha    90
_cell_angle_beta     90
_cell_angle_gamma    90

_symmetry_space_group_name_H-M    "P 1"
_symmetry_int_tables_number       1

loop_
  _symmetry_equiv_pos_as_xyz
  'x, y, z'

loop_
  _atom_site_label
  _atom_site_occupancy
  _atom_site_fract_x
  _atom_site_fract_y
  _atom_site_fract_z
  _atom_site_thermal_displace_type
  _atom_site_B_iso_or_equiv
  _atom_site_type_symbol
  Dy1      1.0000 0.22966  0.51460  0.74892  Biso   1.000  Dy
  O1       1.0000 0.79360  0.34613  0.78610  Biso   1.000  O
  H1       1.0000 0.75430  0.33310  0.81360  Biso   1.000  H
  C1       1.0000 0.05950  0.41200  0.74770  Biso   1.000  C
  O2       1.0000 0.71370  0.44906  0.65070  Biso   1.000  O
  O3       1.0000 0.96600  0.31529  0.56590  Biso   1.000  O
  C2       1.0000 0.29860  0.35120  0.69750  Biso   1.000  C
  C3       1.0000 0.96720  0.38970  0.75950  Biso   1.000  C
  H2       1.0000 0.89250  0.39800  0.77250  Biso   1.000  H
  O4       1.0000 0.90220  0.30260  0.75960  Biso   1.000  O
  C4       1.0000 0.98400  0.35640  0.75230  Biso   1.000  C
  N1       1.0000 0.38990  0.36890  0.67380  Biso   1.000  N
  O5       1.0000 0.13290  0.46599  0.76790  Biso   1.000  O
  C5       1.0000 0.66530  0.32820  0.61010  Biso   1.000  C
  H3       1.0000 0.63900  0.30600  0.60870  Biso   1.000  H
  C6       1.0000 0.85950  0.30970  0.56110  Biso   1.000  C
  O6       1.0000 0.86810  0.43823  0.57880  Biso   1.000  O
  O7       1.0000 0.94140  0.45916  0.76160  Biso   1.000  O
  C7       1.0000 0.47250  0.34560  0.66230  Biso   1.000  C
  C8       1.0000 0.09210  0.34420  0.72980  Biso   1.000  C
  H4       1.0000 0.10250  0.32110  0.72250  Biso   1.000  H
  N2       1.0000 0.43540  0.31580  0.67790  Biso   1.000  N
  C9       1.0000 0.77640  0.42930  0.61200  Biso   1.000  C
  C10      1.0000 0.62770  0.38590  0.63550  Biso   1.000  C
  H5       1.0000 0.57690  0.40290  0.65240  Biso   1.000  H
  C11      1.0000 0.18490  0.36570  0.71780  Biso   1.000  C
  C12      1.0000 0.16830  0.39910  0.72590  Biso   1.000  C
  H6       1.0000 0.23110  0.41380  0.71660  Biso   1.000  H
  C13      1.0000 0.73870  0.39380  0.61060  Biso   1.000  C
  C14      1.0000 0.89020  0.33230  0.76720  Biso   1.000  C
  C15      1.0000 0.81370  0.36890  0.58730  Biso   1.000  C
  H7       1.0000 0.89040  0.37410  0.57130  Biso   1.000  H
  N3       1.0000 0.32140  0.31960  0.70100  Biso   1.000  N
  H8       1.0000 0.27340  0.30390  0.71530  Biso   1.000  H
  C16      1.0000 0.77650  0.33600  0.58720  Biso   1.000  C
  C17      1.0000 0.04290  0.44850  0.75960  Biso   1.000  C
  O8       1.0000 0.82070  0.28279  0.53680  Biso   1.000  O
  C18      1.0000 0.59080  0.35380  0.63580  Biso   1.000  C
  Dy2      1.0000 0.22966  0.01460  0.24892  Biso   1.000  Dy
  O9       1.0000 0.79360  0.84613  0.28610  Biso   1.000  O
  H9       1.0000 0.75430  0.83310  0.31360  Biso   1.000  H
  C19      1.0000 0.05950  0.91200  0.24770  Biso   1.000  C
  O10      1.0000 0.71370  0.94906  0.15070  Biso   1.000  O
  O11      1.0000 0.96600  0.81529  0.06590  Biso   1.000  O
  C20      1.0000 0.29860  0.85120  0.19750  Biso   1.000  C
  C21      1.0000 0.96720  0.88970  0.25950  Biso   1.000  C
  H10      1.0000 0.89250  0.89800  0.27250  Biso   1.000  H
  O12      1.0000 0.90220  0.80260  0.25960  Biso   1.000  O
  C22      1.0000 0.98400  0.85640  0.25230  Biso   1.000  C
  N4       1.0000 0.38990  0.86890  0.17380  Biso   1.000  N
  O13      1.0000 0.13290  0.96599  0.26790  Biso   1.000  O
  C23      1.0000 0.66530  0.82820  0.11010  Biso   1.000  C
  H11      1.0000 0.63900  0.80600  0.10870  Biso   1.000  H
  C24      1.0000 0.85950  0.80970  0.06110  Biso   1.000  C
  O14      1.0000 0.86810  0.93823  0.07880  Biso   1.000  O
  O15      1.0000 0.94140  0.95916  0.26160  Biso   1.000  O
  C25      1.0000 0.47250  0.84560  0.16230  Biso   1.000  C
  C26      1.0000 0.09210  0.84420  0.22980  Biso   1.000  C
  H12      1.0000 0.10250  0.82110  0.22250  Biso   1.000  H
  N5       1.0000 0.43540  0.81580  0.17790  Biso   1.000  N
  C27      1.0000 0.77640  0.92930  0.11200  Biso   1.000  C
  C28      1.0000 0.62770  0.88590  0.13550  Biso   1.000  C
  H13      1.0000 0.57690  0.90290  0.15240  Biso   1.000  H
  C29      1.0000 0.18490  0.86570  0.21780  Biso   1.000  C
  C30      1.0000 0.16830  0.89910  0.22590  Biso   1.000  C
  H14      1.0000 0.23110  0.91380  0.21660  Biso   1.000  H
  C31      1.0000 0.73870  0.89380  0.11060  Biso   1.000  C
  C32      1.0000 0.89020  0.83230  0.26720  Biso   1.000  C
  C33      1.0000 0.81370  0.86890  0.08730  Biso   1.000  C
  H15      1.0000 0.89040  0.87410  0.07130  Biso   1.000  H
  N6       1.0000 0.32140  0.81960  0.20100  Biso   1.000  N
  H16      1.0000 0.27340  0.80390  0.21530  Biso   1.000  H
  C34      1.0000 0.77650  0.83600  0.08720  Biso   1.000  C
  C35      1.0000 0.04290  0.94850  0.25960  Biso   1.000  C
  O16      1.0000 0.82070  0.78279  0.03680  Biso   1.000  O
  C36      1.0000 0.59080  0.85380  0.13580  Biso   1.000  C
  Dy3      1.0000 0.72966  0.51460  0.24892  Biso   1.000  Dy
  O17      1.0000 0.29360  0.34613  0.28610  Biso   1.000  O
  H17      1.0000 0.25430  0.33310  0.31360  Biso   1.000  H
  C37      1.0000 0.55950  0.41200  0.24770  Biso   1.000  C
  O18      1.0000 0.21370  0.44906  0.15070  Biso   1.000  O
  O19      1.0000 0.46600  0.31529  0.06590  Biso   1.000  O
  C38      1.0000 0.79860  0.35120  0.19750  Biso   1.000  C
  C39      1.0000 0.46720  0.38970  0.25950  Biso   1.000  C
  H18      1.0000 0.39250  0.39800  0.27250  Biso   1.000  H
  O20      1.0000 0.40220  0.30260  0.25960  Biso   1.000  O
  C40      1.0000 0.48400  0.35640  0.25230  Biso   1.000  C
  N7       1.0000 0.88990  0.36890  0.17380  Biso   1.000  N
  O21      1.0000 0.63290  0.46599  0.26790  Biso   1.000  O
  C41      1.0000 0.16530  0.32820  0.11010  Biso   1.000  C
  H19      1.0000 0.13900  0.30600  0.10870  Biso   1.000  H
  C42      1.0000 0.35950  0.30970  0.06110  Biso   1.000  C
  O22      1.0000 0.36810  0.43823  0.07880  Biso   1.000  O
  O23      1.0000 0.44140  0.45916  0.26160  Biso   1.000  O
  C43      1.0000 0.97250  0.34560  0.16230  Biso   1.000  C
  C44      1.0000 0.59210  0.34420  0.22980  Biso   1.000  C
  H20      1.0000 0.60250  0.32110  0.22250  Biso   1.000  H
  N8       1.0000 0.93540  0.31580  0.17790  Biso   1.000  N
  C45      1.0000 0.27640  0.42930  0.11200  Biso   1.000  C
  C46      1.0000 0.12770  0.38590  0.13550  Biso   1.000  C
  H21      1.0000 0.07690  0.40290  0.15240  Biso   1.000  H
  C47      1.0000 0.68490  0.36570  0.21780  Biso   1.000  C
  C48      1.0000 0.66830  0.39910  0.22590  Biso   1.000  C
  H22      1.0000 0.73110  0.41380  0.21660  Biso   1.000  H
  C49      1.0000 0.23870  0.39380  0.11060  Biso   1.000  C
  C50      1.0000 0.39020  0.33230  0.26720  Biso   1.000  C
  C51      1.0000 0.31370  0.36890  0.08730  Biso   1.000  C
  H23      1.0000 0.39040  0.37410  0.07130  Biso   1.000  H
  N9       1.0000 0.82140  0.31960  0.20100  Biso   1.000  N
  H24      1.0000 0.77340  0.30390  0.21530  Biso   1.000  H
  C52      1.0000 0.27650  0.33600  0.08720  Biso   1.000  C
  C53      1.0000 0.54290  0.44850  0.25960  Biso   1.000  C
  O24      1.0000 0.32070  0.28279  0.03680  Biso   1.000  O
  C54      1.0000 0.09080  0.35380  0.13580  Biso   1.000  C
  Dy4      1.0000 0.72966  0.01460  0.74892  Biso   1.000  Dy
  O25      1.0000 0.29360  0.84613  0.78610  Biso   1.000  O
  H25      1.0000 0.25430  0.83310  0.81360  Biso   1.000  H
  C55      1.0000 0.55950  0.91200  0.74770  Biso   1.000  C
  O26      1.0000 0.21370  0.94906  0.65070  Biso   1.000  O
  O27      1.0000 0.46600  0.81529  0.56590  Biso   1.000  O
  C56      1.0000 0.79860  0.85120  0.69750  Biso   1.000  C
  C57      1.0000 0.46720  0.88970  0.75950  Biso   1.000  C
  H26      1.0000 0.39250  0.89800  0.77250  Biso   1.000  H
  O28      1.0000 0.40220  0.80260  0.75960  Biso   1.000  O
  C58      1.0000 0.48400  0.85640  0.75230  Biso   1.000  C
  N10      1.0000 0.88990  0.86890  0.67380  Biso   1.000  N
  O29      1.0000 0.63290  0.96599  0.76790  Biso   1.000  O
  C59      1.0000 0.16530  0.82820  0.61010  Biso   1.000  C
  H27      1.0000 0.13900  0.80600  0.60870  Biso   1.000  H
  C60      1.0000 0.35950  0.80970  0.56110  Biso   1.000  C
  O30      1.0000 0.36810  0.93823  0.57880  Biso   1.000  O
  O31      1.0000 0.44140  0.95916  0.76160  Biso   1.000  O
  C61      1.0000 0.97250  0.84560  0.66230  Biso   1.000  C
  C62      1.0000 0.59210  0.84420  0.72980  Biso   1.000  C
  H28      1.0000 0.60250  0.82110  0.72250  Biso   1.000  H
  N11      1.0000 0.93540  0.81580  0.67790  Biso   1.000  N
  C63      1.0000 0.27640  0.92930  0.61200  Biso   1.000  C
  C64      1.0000 0.12770  0.88590  0.63550  Biso   1.000  C
  H29      1.0000 0.07690  0.90290  0.65240  Biso   1.000  H
  C65      1.0000 0.68490  0.86570  0.71780  Biso   1.000  C
  C66      1.0000 0.66830  0.89910  0.72590  Biso   1.000  C
  H30      1.0000 0.73110  0.91380  0.71660  Biso   1.000  H
  C67      1.0000 0.23870  0.89380  0.61060  Biso   1.000  C
  C68      1.0000 0.39020  0.83230  0.76720  Biso   1.000  C
  C69      1.0000 0.31370  0.86890  0.58730  Biso   1.000  C
  H31      1.0000 0.39040  0.87410  0.57130  Biso   1.000  H
  N12      1.0000 0.82140  0.81960  0.70100  Biso   1.000  N
  H32      1.0000 0.77340  0.80390  0.71530  Biso   1.000  H
  C70      1.0000 0.27650  0.83600  0.58720  Biso   1.000  C
  C71      1.0000 0.54290  0.94850  0.75960  Biso   1.000  C
  O32      1.0000 0.32070  0.78279  0.53680  Biso   1.000  O
  C72      1.0000 0.09080  0.85380  0.63580  Biso   1.000  C
  Dy5      1.0000 0.77034  0.48540  0.74892  Biso   1.000  Dy
  O33      1.0000 0.20640  0.65387  0.78610  Biso   1.000  O
  H33      1.0000 0.24570  0.66690  0.81360  Biso   1.000  H
  C73      1.0000 0.94050  0.58800  0.74770  Biso   1.000  C
  O34      1.0000 0.28630  0.55094  0.65070  Biso   1.000  O
  O35      1.0000 0.03400  0.68471  0.56590  Biso   1.000  O
  C74      1.0000 0.70140  0.64880  0.69750  Biso   1.000  C
  C75      1.0000 0.03280  0.61030  0.75950  Biso   1.000  C
  H34      1.0000 0.10750  0.60200  0.77250  Biso   1.000  H
  O36      1.0000 0.09780  0.69740  0.75960  Biso   1.000  O
  C76      1.0000 0.01600  0.64360  0.75230  Biso   1.000  C
  N13      1.0000 0.61010  0.63110  0.67380  Biso   1.000  N
  O37      1.0000 0.86710  0.53401  0.76790  Biso   1.000  O
  C77      1.0000 0.33470  0.67180  0.61010  Biso   1.000  C
  H35      1.0000 0.36100  0.69400  0.60870  Biso   1.000  H
  C78      1.0000 0.14050  0.69030  0.56110  Biso   1.000  C
  O38      1.0000 0.13190  0.56177  0.57880  Biso   1.000  O
  O39      1.0000 0.05860  0.54084  0.76160  Biso   1.000  O
  C79      1.0000 0.52750  0.65440  0.66230  Biso   1.000  C
  C80      1.0000 0.90790  0.65580  0.72980  Biso   1.000  C
  H36      1.0000 0.89750  0.67890  0.72250  Biso   1.000  H
  N14      1.0000 0.56460  0.68420  0.67790  Biso   1.000  N
  C81      1.0000 0.22360  0.57070  0.61200  Biso   1.000  C
  C82      1.0000 0.37230  0.61410  0.63550  Biso   1.000  C
  H37      1.0000 0.42310  0.59710  0.65240  Biso   1.000  H
  C83      1.0000 0.81510  0.63430  0.71780  Biso   1.000  C
  C84      1.0000 0.83170  0.60090  0.72590  Biso   1.000  C
  H38      1.0000 0.76890  0.58620  0.71660  Biso   1.000  H
  C85      1.0000 0.26130  0.60620  0.61060  Biso   1.000  C
  C86      1.0000 0.10980  0.66770  0.76720  Biso   1.000  C
  C87      1.0000 0.18630  0.63110  0.58730  Biso   1.000  C
  H39      1.0000 0.10960  0.62590  0.57130  Biso   1.000  H
  N15      1.0000 0.67860  0.68040  0.70100  Biso   1.000  N
  H40      1.0000 0.72660  0.69610  0.71530  Biso   1.000  H
  C88      1.0000 0.22350  0.66400  0.58720  Biso   1.000  C
  C89      1.0000 0.95710  0.55150  0.75960  Biso   1.000  C
  O40      1.0000 0.17930  0.71721  0.53680  Biso   1.000  O
  C90      1.0000 0.40920  0.64620  0.63580  Biso   1.000  C
  Dy6      1.0000 0.77034  0.98540  0.24892  Biso   1.000  Dy
  O41      1.0000 0.20640  0.15387  0.28610  Biso   1.000  O
  H41      1.0000 0.24570  0.16690  0.31360  Biso   1.000  H
  C91      1.0000 0.94050  0.08800  0.24770  Biso   1.000  C
  O42      1.0000 0.28630  0.05094  0.15070  Biso   1.000  O
  O43      1.0000 0.03400  0.18471  0.06590  Biso   1.000  O
  C92      1.0000 0.70140  0.14880  0.19750  Biso   1.000  C
  C93      1.0000 0.03280  0.11030  0.25950  Biso   1.000  C
  H42      1.0000 0.10750  0.10200  0.27250  Biso   1.000  H
  O44      1.0000 0.09780  0.19740  0.25960  Biso   1.000  O
  C94      1.0000 0.01600  0.14360  0.25230  Biso   1.000  C
  N16      1.0000 0.61010  0.13110  0.17380  Biso   1.000  N
  O45      1.0000 0.86710  0.03401  0.26790  Biso   1.000  O
  C95      1.0000 0.33470  0.17180  0.11010  Biso   1.000  C
  H43      1.0000 0.36100  0.19400  0.10870  Biso   1.000  H
  C96      1.0000 0.14050  0.19030  0.06110  Biso   1.000  C
  O46      1.0000 0.13190  0.06177  0.07880  Biso   1.000  O
  O47      1.0000 0.05860  0.04084  0.26160  Biso   1.000  O
  C97      1.0000 0.52750  0.15440  0.16230  Biso   1.000  C
  C98      1.0000 0.90790  0.15580  0.22980  Biso   1.000  C
  H44      1.0000 0.89750  0.17890  0.22250  Biso   1.000  H
  N17      1.0000 0.56460  0.18420  0.17790  Biso   1.000  N
  C99      1.0000 0.22360  0.07070  0.11200  Biso   1.000  C
  C100     1.0000 0.37230  0.11410  0.13550  Biso   1.000  C
  H45      1.0000 0.42310  0.09710  0.15240  Biso   1.000  H
  C101     1.0000 0.81510  0.13430  0.21780  Biso   1.000  C
  C102     1.0000 0.83170  0.10090  0.22590  Biso   1.000  C
  H46      1.0000 0.76890  0.08620  0.21660  Biso   1.000  H
  C103     1.0000 0.26130  0.10620  0.11060  Biso   1.000  C
  C104     1.0000 0.10980  0.16770  0.26720  Biso   1.000  C
  C105     1.0000 0.18630  0.13110  0.08730  Biso   1.000  C
  H47      1.0000 0.10960  0.12590  0.07130  Biso   1.000  H
  N18      1.0000 0.67860  0.18040  0.20100  Biso   1.000  N
  H48      1.0000 0.72660  0.19610  0.21530  Biso   1.000  H
  C106     1.0000 0.22350  0.16400  0.08720  Biso   1.000  C
  C107     1.0000 0.95710  0.05150  0.25960  Biso   1.000  C
  O48      1.0000 0.17930  0.21721  0.03680  Biso   1.000  O
  C108     1.0000 0.40920  0.14620  0.13580  Biso   1.000  C
  Dy7      1.0000 0.27034  0.48540  0.24892  Biso   1.000  Dy
  O49      1.0000 0.70640  0.65387  0.28610  Biso   1.000  O
  H49      1.0000 0.74570  0.66690  0.31360  Biso   1.000  H
  C109     1.0000 0.44050  0.58800  0.24770  Biso   1.000  C
  O50      1.0000 0.78630  0.55094  0.15070  Biso   1.000  O
  O51      1.0000 0.53400  0.68471  0.06590  Biso   1.000  O
  C110     1.0000 0.20140  0.64880  0.19750  Biso   1.000  C
  C111     1.0000 0.53280  0.61030  0.25950  Biso   1.000  C
  H50      1.0000 0.60750  0.60200  0.27250  Biso   1.000  H
  O52      1.0000 0.59780  0.69740  0.25960  Biso   1.000  O
  C112     1.0000 0.51600  0.64360  0.25230  Biso   1.000  C
  N19      1.0000 0.11010  0.63110  0.17380  Biso   1.000  N
  O53      1.0000 0.36710  0.53401  0.26790  Biso   1.000  O
  C113     1.0000 0.83470  0.67180  0.11010  Biso   1.000  C
  H51      1.0000 0.86100  0.69400  0.10870  Biso   1.000  H
  C114     1.0000 0.64050  0.69030  0.06110  Biso   1.000  C
  O54      1.0000 0.63190  0.56177  0.07880  Biso   1.000  O
  O55      1.0000 0.55860  0.54084  0.26160  Biso   1.000  O
  C115     1.0000 0.02750  0.65440  0.16230  Biso   1.000  C
  C116     1.0000 0.40790  0.65580  0.22980  Biso   1.000  C
  H52      1.0000 0.39750  0.67890  0.22250  Biso   1.000  H
  N20      1.0000 0.06460  0.68420  0.17790  Biso   1.000  N
  C117     1.0000 0.72360  0.57070  0.11200  Biso   1.000  C
  C118     1.0000 0.87230  0.61410  0.13550  Biso   1.000  C
  H53      1.0000 0.92310  0.59710  0.15240  Biso   1.000  H
  C119     1.0000 0.31510  0.63430  0.21780  Biso   1.000  C
  C120     1.0000 0.33170  0.60090  0.22590  Biso   1.000  C
  H54      1.0000 0.26890  0.58620  0.21660  Biso   1.000  H
  C121     1.0000 0.76130  0.60620  0.11060  Biso   1.000  C
  C122     1.0000 0.60980  0.66770  0.26720  Biso   1.000  C
  C123     1.0000 0.68630  0.63110  0.08730  Biso   1.000  C
  H55      1.0000 0.60960  0.62590  0.07130  Biso   1.000  H
  N21      1.0000 0.17860  0.68040  0.20100  Biso   1.000  N
  H56      1.0000 0.22660  0.69610  0.21530  Biso   1.000  H
  C124     1.0000 0.72350  0.66400  0.08720  Biso   1.000  C
  C125     1.0000 0.45710  0.55150  0.25960  Biso   1.000  C
  O56      1.0000 0.67930  0.71721  0.03680  Biso   1.000  O
  C126     1.0000 0.90920  0.64620  0.13580  Biso   1.000  C
  Dy8      1.0000 0.27034  0.98540  0.74892  Biso   1.000  Dy
  O57      1.0000 0.70640  0.15387  0.78610  Biso   1.000  O
  H57      1.0000 0.74570  0.16690  0.81360  Biso   1.000  H
  C127     1.0000 0.44050  0.08800  0.74770  Biso   1.000  C
  O58      1.0000 0.78630  0.05094  0.65070  Biso   1.000  O
  O59      1.0000 0.53400  0.18471  0.56590  Biso   1.000  O
  C128     1.0000 0.20140  0.14880  0.69750  Biso   1.000  C
  C129     1.0000 0.53280  0.11030  0.75950  Biso   1.000  C
  H58      1.0000 0.60750  0.10200  0.77250  Biso   1.000  H
  O60      1.0000 0.59780  0.19740  0.75960  Biso   1.000  O
  C130     1.0000 0.51600  0.14360  0.75230  Biso   1.000  C
  N22      1.0000 0.11010  0.13110  0.67380  Biso   1.000  N
  O61      1.0000 0.36710  0.03401  0.76790  Biso   1.000  O
  C131     1.0000 0.83470  0.17180  0.61010  Biso   1.000  C
  H59      1.0000 0.86100  0.19400  0.60870  Biso   1.000  H
  C132     1.0000 0.64050  0.19030  0.56110  Biso   1.000  C
  O62      1.0000 0.63190  0.06177  0.57880  Biso   1.000  O
  O63      1.0000 0.55860  0.04084  0.76160  Biso   1.000  O
  C133     1.0000 0.02750  0.15440  0.66230  Biso   1.000  C
  C134     1.0000 0.40790  0.15580  0.72980  Biso   1.000  C
  H60      1.0000 0.39750  0.17890  0.72250  Biso   1.000  H
  N23      1.0000 0.06460  0.18420  0.67790  Biso   1.000  N
  C135     1.0000 0.72360  0.07070  0.61200  Biso   1.000  C
  C136     1.0000 0.87230  0.11410  0.63550  Biso   1.000  C
  H61      1.0000 0.92310  0.09710  0.65240  Biso   1.000  H
  C137     1.0000 0.31510  0.13430  0.71780  Biso   1.000  C
  C138     1.0000 0.33170  0.10090  0.72590  Biso   1.000  C
  H62      1.0000 0.26890  0.08620  0.71660  Biso   1.000  H
  C139     1.0000 0.76130  0.10620  0.61060  Biso   1.000  C
  C140     1.0000 0.60980  0.16770  0.76720  Biso   1.000  C
  C141     1.0000 0.68630  0.13110  0.58730  Biso   1.000  C
  H63      1.0000 0.60960  0.12590  0.57130  Biso   1.000  H
  N24      1.0000 0.17860  0.18040  0.70100  Biso   1.000  N
  H64      1.0000 0.22660  0.19610  0.71530  Biso   1.000  H
  C142     1.0000 0.72350  0.16400  0.58720  Biso   1.000  C
  C143     1.0000 0.45710  0.05150  0.75960  Biso   1.000  C
  O64      1.0000 0.67930  0.21721  0.53680  Biso   1.000  O
  C144     1.0000 0.90920  0.14620  0.63580  Biso   1.000  C
  Dy9      1.0000 0.47966  0.73540  0.99892  Biso   1.000  Dy
  O65      1.0000 0.04360  0.90387  0.03610  Biso   1.000  O
  H65      1.0000 0.00430  0.91690  0.06360  Biso   1.000  H
  C145     1.0000 0.30950  0.83800  0.99770  Biso   1.000  C
  O66      1.0000 0.96370  0.80094  0.90070  Biso   1.000  O
  O67      1.0000 0.21600  0.93471  0.81590  Biso   1.000  O
  C146     1.0000 0.54860  0.89880  0.94750  Biso   1.000  C
  C147     1.0000 0.21720  0.86030  0.00950  Biso   1.000  C
  H66      1.0000 0.14250  0.85200  0.02250  Biso   1.000  H
  O68      1.0000 0.15220  0.94740  0.00960  Biso   1.000  O
  C148     1.0000 0.23400  0.89360  0.00230  Biso   1.000  C
  N25      1.0000 0.63990  0.88110  0.92380  Biso   1.000  N
  O69      1.0000 0.38290  0.78401  0.01790  Biso   1.000  O
  C149     1.0000 0.91530  0.92180  0.86010  Biso   1.000  C
  H67      1.0000 0.88900  0.94400  0.85870  Biso   1.000  H
  C150     1.0000 0.10950  0.94030  0.81110  Biso   1.000  C
  O70      1.0000 0.11810  0.81177  0.82880  Biso   1.000  O
  O71      1.0000 0.19140  0.79084  0.01160  Biso   1.000  O
  C151     1.0000 0.72250  0.90440  0.91230  Biso   1.000  C
  C152     1.0000 0.34210  0.90580  0.97980  Biso   1.000  C
  H68      1.0000 0.35250  0.92890  0.97250  Biso   1.000  H
  N26      1.0000 0.68540  0.93420  0.92790  Biso   1.000  N
  C153     1.0000 0.02640  0.82070  0.86200  Biso   1.000  C
  C154     1.0000 0.87770  0.86410  0.88550  Biso   1.000  C
  H69      1.0000 0.82690  0.84710  0.90240  Biso   1.000  H
  C155     1.0000 0.43490  0.88430  0.96780  Biso   1.000  C
  C156     1.0000 0.41830  0.85090  0.97590  Biso   1.000  C
  H70      1.0000 0.48110  0.83620  0.96660  Biso   1.000  H
  C157     1.0000 0.98870  0.85620  0.86060  Biso   1.000  C
  C158     1.0000 0.14020  0.91770  0.01720  Biso   1.000  C
  C159     1.0000 0.06370  0.88110  0.83730  Biso   1.000  C
  H71      1.0000 0.14040  0.87590  0.82130  Biso   1.000  H
  N27      1.0000 0.57140  0.93040  0.95100  Biso   1.000  N
  H72      1.0000 0.52340  0.94610  0.96530  Biso   1.000  H
  C160     1.0000 0.02650  0.91400  0.83720  Biso   1.000  C
  C161     1.0000 0.29290  0.80150  0.00960  Biso   1.000  C
  O72      1.0000 0.07070  0.96721  0.78680  Biso   1.000  O
  C162     1.0000 0.84080  0.89620  0.88580  Biso   1.000  C
  Dy10     1.0000 0.47966  0.23540  0.49892  Biso   1.000  Dy
  O73      1.0000 0.04360  0.40387  0.53610  Biso   1.000  O
  H73      1.0000 0.00430  0.41690  0.56360  Biso   1.000  H
  C163     1.0000 0.30950  0.33800  0.49770  Biso   1.000  C
  O74      1.0000 0.96370  0.30094  0.40070  Biso   1.000  O
  O75      1.0000 0.21600  0.43471  0.31590  Biso   1.000  O
  C164     1.0000 0.54860  0.39880  0.44750  Biso   1.000  C
  C165     1.0000 0.21720  0.36030  0.50950  Biso   1.000  C
  H74      1.0000 0.14250  0.35200  0.52250  Biso   1.000  H
  O76      1.0000 0.15220  0.44740  0.50960  Biso   1.000  O
  C166     1.0000 0.23400  0.39360  0.50230  Biso   1.000  C
  N28      1.0000 0.63990  0.38110  0.42380  Biso   1.000  N
  O77      1.0000 0.38290  0.28401  0.51790  Biso   1.000  O
  C167     1.0000 0.91530  0.42180  0.36010  Biso   1.000  C
  H75      1.0000 0.88900  0.44400  0.35870  Biso   1.000  H
  C168     1.0000 0.10950  0.44030  0.31110  Biso   1.000  C
  O78      1.0000 0.11810  0.31177  0.32880  Biso   1.000  O
  O79      1.0000 0.19140  0.29084  0.51160  Biso   1.000  O
  C169     1.0000 0.72250  0.40440  0.41230  Biso   1.000  C
  C170     1.0000 0.34210  0.40580  0.47980  Biso   1.000  C
  H76      1.0000 0.35250  0.42890  0.47250  Biso   1.000  H
  N29      1.0000 0.68540  0.43420  0.42790  Biso   1.000  N
  C171     1.0000 0.02640  0.32070  0.36200  Biso   1.000  C
  C172     1.0000 0.87770  0.36410  0.38550  Biso   1.000  C
  H77      1.0000 0.82690  0.34710  0.40240  Biso   1.000  H
  C173     1.0000 0.43490  0.38430  0.46780  Biso   1.000  C
  C174     1.0000 0.41830  0.35090  0.47590  Biso   1.000  C
  H78      1.0000 0.48110  0.33620  0.46660  Biso   1.000  H
  C175     1.0000 0.98870  0.35620  0.36060  Biso   1.000  C
  C176     1.0000 0.14020  0.41770  0.51720  Biso   1.000  C
  C177     1.0000 0.06370  0.38110  0.33730  Biso   1.000  C
  H79      1.0000 0.14040  0.37590  0.32130  Biso   1.000  H
  N30      1.0000 0.57140  0.43040  0.45100  Biso   1.000  N
  H80      1.0000 0.52340  0.44610  0.46530  Biso   1.000  H
  C178     1.0000 0.02650  0.41400  0.33720  Biso   1.000  C
  C179     1.0000 0.29290  0.30150  0.50960  Biso   1.000  C
  O80      1.0000 0.07070  0.46721  0.28680  Biso   1.000  O
  C180     1.0000 0.84080  0.39620  0.38580  Biso   1.000  C
  Dy11     1.0000 0.97966  0.73540  0.49892  Biso   1.000  Dy
  O81      1.0000 0.54360  0.90387  0.53610  Biso   1.000  O
  H81      1.0000 0.50430  0.91690  0.56360  Biso   1.000  H
  C181     1.0000 0.80950  0.83800  0.49770  Biso   1.000  C
  O82      1.0000 0.46370  0.80094  0.40070  Biso   1.000  O
  O83      1.0000 0.71600  0.93471  0.31590  Biso   1.000  O
  C182     1.0000 0.04860  0.89880  0.44750  Biso   1.000  C
  C183     1.0000 0.71720  0.86030  0.50950  Biso   1.000  C
  H82      1.0000 0.64250  0.85200  0.52250  Biso   1.000  H
  O84      1.0000 0.65220  0.94740  0.50960  Biso   1.000  O
  C184     1.0000 0.73400  0.89360  0.50230  Biso   1.000  C
  N31      1.0000 0.13990  0.88110  0.42380  Biso   1.000  N
  O85      1.0000 0.88290  0.78401  0.51790  Biso   1.000  O
  C185     1.0000 0.41530  0.92180  0.36010  Biso   1.000  C
  H83      1.0000 0.38900  0.94400  0.35870  Biso   1.000  H
  C186     1.0000 0.60950  0.94030  0.31110  Biso   1.000  C
  O86      1.0000 0.61810  0.81177  0.32880  Biso   1.000  O
  O87      1.0000 0.69140  0.79084  0.51160  Biso   1.000  O
  C187     1.0000 0.22250  0.90440  0.41230  Biso   1.000  C
  C188     1.0000 0.84210  0.90580  0.47980  Biso   1.000  C
  H84      1.0000 0.85250  0.92890  0.47250  Biso   1.000  H
  N32      1.0000 0.18540  0.93420  0.42790  Biso   1.000  N
  C189     1.0000 0.52640  0.82070  0.36200  Biso   1.000  C
  C190     1.0000 0.37770  0.86410  0.38550  Biso   1.000  C
  H85      1.0000 0.32690  0.84710  0.40240  Biso   1.000  H
  C191     1.0000 0.93490  0.88430  0.46780  Biso   1.000  C
  C192     1.0000 0.91830  0.85090  0.47590  Biso   1.000  C
  H86      1.0000 0.98110  0.83620  0.46660  Biso   1.000  H
  C193     1.0000 0.48870  0.85620  0.36060  Biso   1.000  C
  C194     1.0000 0.64020  0.91770  0.51720  Biso   1.000  C
  C195     1.0000 0.56370  0.88110  0.33730  Biso   1.000  C
  H87      1.0000 0.64040  0.87590  0.32130  Biso   1.000  H
  N33      1.0000 0.07140  0.93040  0.45100  Biso   1.000  N
  H88      1.0000 0.02340  0.94610  0.46530  Biso   1.000  H
  C196     1.0000 0.52650  0.91400  0.33720  Biso   1.000  C
  C197     1.0000 0.79290  0.80150  0.50960  Biso   1.000  C
  O88      1.0000 0.57070  0.96721  0.28680  Biso   1.000  O
  C198     1.0000 0.34080  0.89620  0.38580  Biso   1.000  C
  Dy12     1.0000 0.97966  0.23540  0.99892  Biso   1.000  Dy
  O89      1.0000 0.54360  0.40387  0.03610  Biso   1.000  O
  H89      1.0000 0.50430  0.41690  0.06360  Biso   1.000  H
  C199     1.0000 0.80950  0.33800  0.99770  Biso   1.000  C
  O90      1.0000 0.46370  0.30094  0.90070  Biso   1.000  O
  O91      1.0000 0.71600  0.43471  0.81590  Biso   1.000  O
  C200     1.0000 0.04860  0.39880  0.94750  Biso   1.000  C
  C201     1.0000 0.71720  0.36030  0.00950  Biso   1.000  C
  H90      1.0000 0.64250  0.35200  0.02250  Biso   1.000  H
  O92      1.0000 0.65220  0.44740  0.00960  Biso   1.000  O
  C202     1.0000 0.73400  0.39360  0.00230  Biso   1.000  C
  N34      1.0000 0.13990  0.38110  0.92380  Biso   1.000  N
  O93      1.0000 0.88290  0.28401  0.01790  Biso   1.000  O
  C203     1.0000 0.41530  0.42180  0.86010  Biso   1.000  C
  H91      1.0000 0.38900  0.44400  0.85870  Biso   1.000  H
  C204     1.0000 0.60950  0.44030  0.81110  Biso   1.000  C
  O94      1.0000 0.61810  0.31177  0.82880  Biso   1.000  O
  O95      1.0000 0.69140  0.29084  0.01160  Biso   1.000  O
  C205     1.0000 0.22250  0.40440  0.91230  Biso   1.000  C
  C206     1.0000 0.84210  0.40580  0.97980  Biso   1.000  C
  H92      1.0000 0.85250  0.42890  0.97250  Biso   1.000  H
  N35      1.0000 0.18540  0.43420  0.92790  Biso   1.000  N
  C207     1.0000 0.52640  0.32070  0.86200  Biso   1.000  C
  C208     1.0000 0.37770  0.36410  0.88550  Biso   1.000  C
  H93      1.0000 0.32690  0.34710  0.90240  Biso   1.000  H
  C209     1.0000 0.93490  0.38430  0.96780  Biso   1.000  C
  C210     1.0000 0.91830  0.35090  0.97590  Biso   1.000  C
  H94      1.0000 0.98110  0.33620  0.96660  Biso   1.000  H
  C211     1.0000 0.48870  0.35620  0.86060  Biso   1.000  C
  C212     1.0000 0.64020  0.41770  0.01720  Biso   1.000  C
  C213     1.0000 0.56370  0.38110  0.83730  Biso   1.000  C
  H95      1.0000 0.64040  0.37590  0.82130  Biso   1.000  H
  N36      1.0000 0.07140  0.43040  0.95100  Biso   1.000  N
  H96      1.0000 0.02340  0.44610  0.96530  Biso   1.000  H
  C214     1.0000 0.52650  0.41400  0.83720  Biso   1.000  C
  C215     1.0000 0.79290  0.30150  0.00960  Biso   1.000  C
  O96      1.0000 0.57070  0.46721  0.78680  Biso   1.000  O
  C216     1.0000 0.34080  0.39620  0.88580  Biso   1.000  C
  Dy13     1.0000 0.02034  0.76460  0.99892  Biso   1.000  Dy
  O97      1.0000 0.45640  0.59613  0.03610  Biso   1.000  O
  H97      1.0000 0.49570  0.58310  0.06360  Biso   1.000  H
  C217     1.0000 0.19050  0.66200  0.99770  Biso   1.000  C
  O98      1.0000 0.53630  0.69906  0.90070  Biso   1.000  O
  O99      1.0000 0.28400  0.56529  0.81590  Biso   1.000  O
  C218     1.0000 0.95140  0.60120  0.94750  Biso   1.000  C
  C219     1.0000 0.28280  0.63970  0.00950  Biso   1.000  C
  H98      1.0000 0.35750  0.64800  0.02250  Biso   1.000  H
  O100     1.0000 0.34780  0.55260  0.00960  Biso   1.000  O
  C220     1.0000 0.26600  0.60640  0.00230  Biso   1.000  C
  N37      1.0000 0.86010  0.61890  0.92380  Biso   1.000  N
  O101     1.0000 0.11710  0.71599  0.01790  Biso   1.000  O
  C221     1.0000 0.58470  0.57820  0.86010  Biso   1.000  C
  H99      1.0000 0.61100  0.55600  0.85870  Biso   1.000  H
  C222     1.0000 0.39050  0.55970  0.81110  Biso   1.000  C
  O102     1.0000 0.38190  0.68823  0.82880  Biso   1.000  O
  O103     1.0000 0.30860  0.70916  0.01160  Biso   1.000  O
  C223     1.0000 0.77750  0.59560  0.91230  Biso   1.000  C
  C224     1.0000 0.15790  0.59420  0.97980  Biso   1.000  C
  H100     1.0000 0.14750  0.57110  0.97250  Biso   1.000  H
  N38      1.0000 0.81460  0.56580  0.92790  Biso   1.000  N
  C225     1.0000 0.47360  0.67930  0.86200  Biso   1.000  C
  C226     1.0000 0.62230  0.63590  0.88550  Biso   1.000  C
  H101     1.0000 0.67310  0.65290  0.90240  Biso   1.000  H
  C227     1.0000 0.06510  0.61570  0.96780  Biso   1.000  C
  C228     1.0000 0.08170  0.64910  0.97590  Biso   1.000  C
  H102     1.0000 0.01890  0.66380  0.96660  Biso   1.000  H
  C229     1.0000 0.51130  0.64380  0.86060  Biso   1.000  C
  C230     1.0000 0.35980  0.58230  0.01720  Biso   1.000  C
  C231     1.0000 0.43630  0.61890  0.83730  Biso   1.000  C
  H103     1.0000 0.35960  0.62410  0.82130  Biso   1.000  H
  N39      1.0000 0.92860  0.56960  0.95100  Biso   1.000  N
  H104     1.0000 0.97660  0.55390  0.96530  Biso   1.000  H
  C232     1.0000 0.47350  0.58600  0.83720  Biso   1.000  C
  C233     1.0000 0.20710  0.69850  0.00960  Biso   1.000  C
  O104     1.0000 0.42930  0.53279  0.78680  Biso   1.000  O
  C234     1.0000 0.65920  0.60380  0.88580  Biso   1.000  C
  Dy14     1.0000 0.02034  0.26460  0.49892  Biso   1.000  Dy
  O105     1.0000 0.45640  0.09613  0.53610  Biso   1.000  O
  H105     1.0000 0.49570  0.08310  0.56360  Biso   1.000  H
  C235     1.0000 0.19050  0.16200  0.49770  Biso   1.000  C
  O106     1.0000 0.53630  0.19906  0.40070  Biso   1.000  O
  O107     1.0000 0.28400  0.06529  0.31590  Biso   1.000  O
  C236     1.0000 0.95140  0.10120  0.44750  Biso   1.000  C
  C237     1.0000 0.28280  0.13970  0.50950  Biso   1.000  C
  H106     1.0000 0.35750  0.14800  0.52250  Biso   1.000  H
  O108     1.0000 0.34780  0.05260  0.50960  Biso   1.000  O
  C238     1.0000 0.26600  0.10640  0.50230  Biso   1.000  C
  N40      1.0000 0.86010  0.11890  0.42380  Biso   1.000  N
  O109     1.0000 0.11710  0.21599  0.51790  Biso   1.000  O
  C239     1.0000 0.58470  0.07820  0.36010  Biso   1.000  C
  H107     1.0000 0.61100  0.05600  0.35870  Biso   1.000  H
  C240     1.0000 0.39050  0.05970  0.31110  Biso   1.000  C
  O110     1.0000 0.38190  0.18823  0.32880  Biso   1.000  O
  O111     1.0000 0.30860  0.20916  0.51160  Biso   1.000  O
  C241     1.0000 0.77750  0.09560  0.41230  Biso   1.000  C
  C242     1.0000 0.15790  0.09420  0.47980  Biso   1.000  C
  H108     1.0000 0.14750  0.07110  0.47250  Biso   1.000  H
  N41      1.0000 0.81460  0.06580  0.42790  Biso   1.000  N
  C243     1.0000 0.47360  0.17930  0.36200  Biso   1.000  C
  C244     1.0000 0.62230  0.13590  0.38550  Biso   1.000  C
  H109     1.0000 0.67310  0.15290  0.40240  Biso   1.000  H
  C245     1.0000 0.06510  0.11570  0.46780  Biso   1.000  C
  C246     1.0000 0.08170  0.14910  0.47590  Biso   1.000  C
  H110     1.0000 0.01890  0.16380  0.46660  Biso   1.000  H
  C247     1.0000 0.51130  0.14380  0.36060  Biso   1.000  C
  C248     1.0000 0.35980  0.08230  0.51720  Biso   1.000  C
  C249     1.0000 0.43630  0.11890  0.33730  Biso   1.000  C
  H111     1.0000 0.35960  0.12410  0.32130  Biso   1.000  H
  N42      1.0000 0.92860  0.06960  0.45100  Biso   1.000  N
  H112     1.0000 0.97660  0.05390  0.46530  Biso   1.000  H
  C250     1.0000 0.47350  0.08600  0.33720  Biso   1.000  C
  C251     1.0000 0.20710  0.19850  0.50960  Biso   1.000  C
  O112     1.0000 0.42930  0.03279  0.28680  Biso   1.000  O
  C252     1.0000 0.65920  0.10380  0.38580  Biso   1.000  C
  Dy15     1.0000 0.52034  0.76460  0.49892  Biso   1.000  Dy
  O113     1.0000 0.95640  0.59613  0.53610  Biso   1.000  O
  H113     1.0000 0.99570  0.58310  0.56360  Biso   1.000  H
  C253     1.0000 0.69050  0.66200  0.49770  Biso   1.000  C
  O114     1.0000 0.03630  0.69906  0.40070  Biso   1.000  O
  O115     1.0000 0.78400  0.56529  0.31590  Biso   1.000  O
  C254     1.0000 0.45140  0.60120  0.44750  Biso   1.000  C
  C255     1.0000 0.78280  0.63970  0.50950  Biso   1.000  C
  H114     1.0000 0.85750  0.64800  0.52250  Biso   1.000  H
  O116     1.0000 0.84780  0.55260  0.50960  Biso   1.000  O
  C256     1.0000 0.76600  0.60640  0.50230  Biso   1.000  C
  N43      1.0000 0.36010  0.61890  0.42380  Biso   1.000  N
  O117     1.0000 0.61710  0.71599  0.51790  Biso   1.000  O
  C257     1.0000 0.08470  0.57820  0.36010  Biso   1.000  C
  H115     1.0000 0.11100  0.55600  0.35870  Biso   1.000  H
  C258     1.0000 0.89050  0.55970  0.31110  Biso   1.000  C
  O118     1.0000 0.88190  0.68823  0.32880  Biso   1.000  O
  O119     1.0000 0.80860  0.70916  0.51160  Biso   1.000  O
  C259     1.0000 0.27750  0.59560  0.41230  Biso   1.000  C
  C260     1.0000 0.65790  0.59420  0.47980  Biso   1.000  C
  H116     1.0000 0.64750  0.57110  0.47250  Biso   1.000  H
  N44      1.0000 0.31460  0.56580  0.42790  Biso   1.000  N
  C261     1.0000 0.97360  0.67930  0.36200  Biso   1.000  C
  C262     1.0000 0.12230  0.63590  0.38550  Biso   1.000  C
  H117     1.0000 0.17310  0.65290  0.40240  Biso   1.000  H
  C263     1.0000 0.56510  0.61570  0.46780  Biso   1.000  C
  C264     1.0000 0.58170  0.64910  0.47590  Biso   1.000  C
  H118     1.0000 0.51890  0.66380  0.46660  Biso   1.000  H
  C265     1.0000 0.01130  0.64380  0.36060  Biso   1.000  C
  C266     1.0000 0.85980  0.58230  0.51720  Biso   1.000  C
  C267     1.0000 0.93630  0.61890  0.33730  Biso   1.000  C
  H119     1.0000 0.85960  0.62410  0.32130  Biso   1.000  H
  N45      1.0000 0.42860  0.56960  0.45100  Biso   1.000  N
  H120     1.0000 0.47660  0.55390  0.46530  Biso   1.000  H
  C268     1.0000 0.97350  0.58600  0.33720  Biso   1.000  C
  C269     1.0000 0.70710  0.69850  0.50960  Biso   1.000  C
  O120     1.0000 0.92930  0.53279  0.28680  Biso   1.000  O
  C270     1.0000 0.15920  0.60380  0.38580  Biso   1.000  C
  Dy16     1.0000 0.52034  0.26460  0.99892  Biso   1.000  Dy
  O121     1.0000 0.95640  0.09613  0.03610  Biso   1.000  O
  H121     1.0000 0.99570  0.08310  0.06360  Biso   1.000  H
  C271     1.0000 0.69050  0.16200  0.99770  Biso   1.000  C
  O122     1.0000 0.03630  0.19906  0.90070  Biso   1.000  O
  O123     1.0000 0.78400  0.06529  0.81590  Biso   1.000  O
  C272     1.0000 0.45140  0.10120  0.94750  Biso   1.000  C
  C273     1.0000 0.78280  0.13970  0.00950  Biso   1.000  C
  H122     1.0000 0.85750  0.14800  0.02250  Biso   1.000  H
  O124     1.0000 0.84780  0.05260  0.00960  Biso   1.000  O
  C274     1.0000 0.76600  0.10640  0.00230  Biso   1.000  C
  N46      1.0000 0.36010  0.11890  0.92380  Biso   1.000  N
  O125     1.0000 0.61710  0.21599  0.01790  Biso   1.000  O
  C275     1.0000 0.08470  0.07820  0.86010  Biso   1.000  C
  H123     1.0000 0.11100  0.05600  0.85870  Biso   1.000  H
  C276     1.0000 0.89050  0.05970  0.81110  Biso   1.000  C
  O126     1.0000 0.88190  0.18823  0.82880  Biso   1.000  O
  O127     1.0000 0.80860  0.20916  0.01160  Biso   1.000  O
  C277     1.0000 0.27750  0.09560  0.91230  Biso   1.000  C
  C278     1.0000 0.65790  0.09420  0.97980  Biso   1.000  C
  H124     1.0000 0.64750  0.07110  0.97250  Biso   1.000  H
  N47      1.0000 0.31460  0.06580  0.92790  Biso   1.000  N
  C279     1.0000 0.97360  0.17930  0.86200  Biso   1.000  C
  C280     1.0000 0.12230  0.13590  0.88550  Biso   1.000  C
  H125     1.0000 0.17310  0.15290  0.90240  Biso   1.000  H
  C281     1.0000 0.56510  0.11570  0.96780  Biso   1.000  C
  C282     1.0000 0.58170  0.14910  0.97590  Biso   1.000  C
  H126     1.0000 0.51890  0.16380  0.96660  Biso   1.000  H
  C283     1.0000 0.01130  0.14380  0.86060  Biso   1.000  C
  C284     1.0000 0.85980  0.08230  0.01720  Biso   1.000  C
  C285     1.0000 0.93630  0.11890  0.83730  Biso   1.000  C
  H127     1.0000 0.85960  0.12410  0.82130  Biso   1.000  H
  N48      1.0000 0.42860  0.06960  0.95100  Biso   1.000  N
  H128     1.0000 0.47660  0.05390  0.96530  Biso   1.000  H
  C286     1.0000 0.97350  0.08600  0.83720  Biso   1.000  C
  C287     1.0000 0.70710  0.19850  0.00960  Biso   1.000  C
  O128     1.0000 0.92930  0.03279  0.78680  Biso   1.000  O
  C288     1.0000 0.15920  0.10380  0.88580  Biso   1.000  C
