data_image0
_cell_length_a       8.447
_cell_length_b       11.1251
_cell_length_c       17.581
_cell_angle_alpha    77.882
_cell_angle_beta     88.741
_cell_angle_gamma    79.06

_symmetry_space_group_name_H-M    "P 1"
_symmetry_int_tables_number       1

loop_
  _symmetry_equiv_pos_as_xyz
  'x, y, z'

loop_
  _atom_site_label
  _atom_site_occupancy
  _atom_site_fract_x
  _atom_site_fract_y
  _atom_site_fract_z
  _atom_site_thermal_displace_type
  _atom_site_B_iso_or_equiv
  _atom_site_type_symbol
  C1       1.0000 0.79350  0.48630  0.36520  Biso   1.000  C
  C2       1.0000 0.79600  0.42790  0.30120  Biso   1.000  C
  H1       1.0000 0.71180  0.43740  0.26600  Biso   1.000  H
  C3       1.0000 0.94420  0.35530  0.30060  Biso   1.000  C
  H2       1.0000 0.98110  0.30590  0.26490  Biso   1.000  H
  C4       1.0000 0.03430  0.36970  0.36670  Biso   1.000  C
  C5       1.0000 0.18850  0.30750  0.38480  Biso   1.000  C
  C6       1.0000 0.26860  0.31710  0.44800  Biso   1.000  C
  C7       1.0000 0.42840  0.25080  0.47170  Biso   1.000  C
  H3       1.0000 0.49390  0.19670  0.44520  Biso   1.000  H
  C8       1.0000 0.46670  0.27820  0.53580  Biso   1.000  C
  H4       1.0000 0.56100  0.24330  0.56500  Biso   1.000  H
  C9       1.0000 0.33680  0.37320  0.55470  Biso   1.000  C
  C10      1.0000 0.33950  0.42370  0.61780  Biso   1.000  C
  C11      1.0000 0.27070  0.22550  0.33120  Biso   1.000  C
  C12      1.0000 0.35690  0.27810  0.26850  Biso   1.000  C
  H5       1.0000 0.36810  0.36130  0.26140  Biso   1.000  H
  C13      1.0000 0.42810  0.20280  0.21520  Biso   1.000  C
  H6       1.0000 0.48510  0.23800  0.17320  Biso   1.000  H
  C14      1.0000 0.41410  0.08430  0.22470  Biso   1.000  C
  C15      1.0000 0.32880  0.02920  0.28690  Biso   1.000  C
  H7       1.0000 0.31780  0.94610  0.29310  Biso   1.000  H
  C16      1.0000 0.25970  0.10140  0.34020  Biso   1.000  C
  H8       1.0000 0.20530  0.06440  0.38260  Biso   1.000  H
  C17      1.0000 0.58220  0.03920  0.11790  Biso   1.000  C
  H9       1.0000 0.64820  0.96370  0.10680  Biso   1.000  H
  H10      1.0000 0.65300  0.08370  0.13920  Biso   1.000  H
  C18      1.0000 0.50820  0.12120  0.04160  Biso   1.000  C
  C19      1.0000 0.47870  0.38680  0.67410  Biso   1.000  C
  C20      1.0000 0.45390  0.32420  0.75000  Biso   1.000  C
  H11      1.0000 0.35240  0.30690  0.76390  Biso   1.000  H
  C21      1.0000 0.57830  0.28800  0.80430  Biso   1.000  C
  H12      1.0000 0.56050  0.24640  0.85450  Biso   1.000  H
  C22      1.0000 0.73020  0.31370  0.78420  Biso   1.000  C
  C23      1.0000 0.75560  0.37460  0.70940  Biso   1.000  C
  H13      1.0000 0.85720  0.39130  0.69530  Biso   1.000  H
  C24      1.0000 0.62930  0.41120  0.65480  Biso   1.000  C
  H14      1.0000 0.64740  0.45270  0.60460  Biso   1.000  H
  C25      1.0000 0.99860  0.29800  0.83320  Biso   1.000  C
  H15      1.0000 0.99380  0.38750  0.82620  Biso   1.000  H
  H16      1.0000 0.04740  0.27080  0.78770  Biso   1.000  H
  C26      1.0000 0.09500  0.23050  0.90430  Biso   1.000  C
  K1       1.0000 0.84368  0.00772  0.90829  Biso   1.000  K
  N1       1.0000 0.93970  0.44940  0.40680  Biso   1.000  N
  N2       1.0000 0.21230  0.39290  0.50060  Biso   1.000  N
  O1       1.0000 0.46960  0.00420  0.17560  Biso   1.000  O
  O2       1.0000 0.35660  0.16530  0.03970  Biso   1.000  O
  O3       1.0000 0.60080  0.13700  0.98670  Biso   1.000  O
  O4       1.0000 0.84330  0.27050  0.84310  Biso   1.000  O
  O5       1.0000 0.22540  0.27300  0.91230  Biso   1.000  O
  H17      1.0000 0.25550  0.25270  0.95800  Biso   1.000  H
  O6       1.0000 0.05830  0.14440  0.94840  Biso   1.000  O
  C27      1.0000 0.20650  0.51370  0.63480  Biso   1.000  C
  C28      1.0000 0.20400  0.57210  0.69880  Biso   1.000  C
  H18      1.0000 0.28820  0.56260  0.73400  Biso   1.000  H
  C29      1.0000 0.05580  0.64470  0.69940  Biso   1.000  C
  H19      1.0000 0.01890  0.69410  0.73510  Biso   1.000  H
  C30      1.0000 0.96570  0.63030  0.63330  Biso   1.000  C
  C31      1.0000 0.81150  0.69250  0.61520  Biso   1.000  C
  C32      1.0000 0.73140  0.68290  0.55200  Biso   1.000  C
  C33      1.0000 0.57160  0.74920  0.52830  Biso   1.000  C
  H20      1.0000 0.50610  0.80330  0.55480  Biso   1.000  H
  C34      1.0000 0.53330  0.72180  0.46420  Biso   1.000  C
  H21      1.0000 0.43900  0.75670  0.43500  Biso   1.000  H
  C35      1.0000 0.66320  0.62680  0.44530  Biso   1.000  C
  C36      1.0000 0.66050  0.57630  0.38220  Biso   1.000  C
  C37      1.0000 0.72930  0.77450  0.66880  Biso   1.000  C
  C38      1.0000 0.64310  0.72190  0.73150  Biso   1.000  C
  H22      1.0000 0.63190  0.63870  0.73860  Biso   1.000  H
  C39      1.0000 0.57190  0.79720  0.78480  Biso   1.000  C
  H23      1.0000 0.51490  0.76200  0.82680  Biso   1.000  H
  C40      1.0000 0.58590  0.91570  0.77530  Biso   1.000  C
  C41      1.0000 0.67120  0.97080  0.71310  Biso   1.000  C
  H24      1.0000 0.68220  0.05390  0.70690  Biso   1.000  H
  C42      1.0000 0.74030  0.89860  0.65980  Biso   1.000  C
  H25      1.0000 0.79470  0.93560  0.61740  Biso   1.000  H
  C43      1.0000 0.41780  0.96080  0.88210  Biso   1.000  C
  H26      1.0000 0.35180  0.03630  0.89320  Biso   1.000  H
  H27      1.0000 0.34700  0.91630  0.86080  Biso   1.000  H
  C44      1.0000 0.49180  0.87880  0.95840  Biso   1.000  C
  C45      1.0000 0.52130  0.61320  0.32590  Biso   1.000  C
  C46      1.0000 0.54610  0.67580  0.25000  Biso   1.000  C
  H28      1.0000 0.64760  0.69310  0.23610  Biso   1.000  H
  C47      1.0000 0.42170  0.71200  0.19570  Biso   1.000  C
  H29      1.0000 0.43950  0.75360  0.14550  Biso   1.000  H
  C48      1.0000 0.26980  0.68630  0.21580  Biso   1.000  C
  C49      1.0000 0.24440  0.62540  0.29060  Biso   1.000  C
  H30      1.0000 0.14280  0.60870  0.30470  Biso   1.000  H
  C50      1.0000 0.37070  0.58880  0.34520  Biso   1.000  C
  H31      1.0000 0.35260  0.54730  0.39540  Biso   1.000  H
  C51      1.0000 0.00140  0.70200  0.16680  Biso   1.000  C
  H32      1.0000 0.00620  0.61250  0.17380  Biso   1.000  H
  H33      1.0000 0.95260  0.72920  0.21230  Biso   1.000  H
  C52      1.0000 0.90500  0.76950  0.09570  Biso   1.000  C
  K2       1.0000 0.15632  0.99228  0.09171  Biso   1.000  K
  N3       1.0000 0.06030  0.55060  0.59320  Biso   1.000  N
  N4       1.0000 0.78770  0.60710  0.49940  Biso   1.000  N
  O7       1.0000 0.53040  0.99580  0.82440  Biso   1.000  O
  O8       1.0000 0.64340  0.83470  0.96030  Biso   1.000  O
  O9       1.0000 0.39920  0.86300  0.01330  Biso   1.000  O
  O10      1.0000 0.15670  0.72950  0.15690  Biso   1.000  O
  O11      1.0000 0.77460  0.72700  0.08770  Biso   1.000  O
  H34      1.0000 0.74450  0.74730  0.04200  Biso   1.000  H
  O12      1.0000 0.94170  0.85560  0.05160  Biso   1.000  O
  Ni1      1.0000 0.00000  0.50000  0.50000  Biso   1.000  Ni
