data_image0
_cell_length_a       17.2544
_cell_length_b       17.2544
_cell_length_c       15.3517
_cell_angle_alpha    90
_cell_angle_beta     90
_cell_angle_gamma    90

_symmetry_space_group_name_H-M    "P 1"
_symmetry_int_tables_number       1

loop_
  _symmetry_equiv_pos_as_xyz
  'x, y, z'

loop_
  _atom_site_label
  _atom_site_occupancy
  _atom_site_fract_x
  _atom_site_fract_y
  _atom_site_fract_z
  _atom_site_thermal_displace_type
  _atom_site_B_iso_or_equiv
  _atom_site_type_symbol
  C1       1.0000 0.30520  0.56870  0.30130  Biso   1.000  C
  C2       1.0000 0.25560  0.61940  0.24660  Biso   1.000  C
  C3       1.0000 0.19450  0.59110  0.19830  Biso   1.000  C
  H1       1.0000 0.18390  0.53770  0.20010  Biso   1.000  H
  C4       1.0000 0.14830  0.63790  0.14730  Biso   1.000  C
  H2       1.0000 0.10920  0.61670  0.11200  Biso   1.000  H
  C5       1.0000 0.16130  0.71680  0.14980  Biso   1.000  C
  C6       1.0000 0.21930  0.74700  0.19630  Biso   1.000  C
  H3       1.0000 0.22760  0.80090  0.19590  Biso   1.000  H
  C7       1.0000 0.26770  0.69910  0.24560  Biso   1.000  C
  H4       1.0000 0.30840  0.72070  0.27810  Biso   1.000  H
  C8       1.0000 0.99090  0.75180  0.19430  Biso   1.000  C
  H5       1.0000 0.02560  0.74100  0.24250  Biso   1.000  H
  H6       1.0000 0.96650  0.70410  0.17540  Biso   1.000  H
  H7       1.0000 0.95150  0.78830  0.21290  Biso   1.000  H
  C9       1.0000 0.03610  0.78600  0.12030  Biso   1.000  C
  C10      1.0000 0.13090  0.81350  0.03360  Biso   1.000  C
  C11      1.0000 0.20750  0.81580  0.99200  Biso   1.000  C
  H8       1.0000 0.20880  0.85750  0.94960  Biso   1.000  H
  H9       1.0000 0.21720  0.76680  0.96290  Biso   1.000  H
  H10      1.0000 0.24700  0.82460  0.03590  Biso   1.000  H
  N1       1.0000 0.01080  0.83820  0.06790  Biso   1.000  N
  N2       1.0000 0.07130  0.85460  0.01130  Biso   1.000  N
  N3       1.0000 0.11080  0.76790  0.10290  Biso   1.000  N
  O1       1.0000 0.36610  0.59860  0.32840  Biso   1.000  O
  O2       1.0000 0.28390  0.50140  0.31780  Biso   1.000  O
  Cu1      1.0000 0.43218  0.54997  0.41692  Biso   1.000  Cu
  C12      1.0000 0.69480  0.43130  0.30130  Biso   1.000  C
  C13      1.0000 0.74440  0.38060  0.24660  Biso   1.000  C
  C14      1.0000 0.80550  0.40890  0.19830  Biso   1.000  C
  H11      1.0000 0.81610  0.46230  0.20010  Biso   1.000  H
  C15      1.0000 0.85170  0.36210  0.14730  Biso   1.000  C
  H12      1.0000 0.89080  0.38330  0.11200  Biso   1.000  H
  C16      1.0000 0.83870  0.28320  0.14980  Biso   1.000  C
  C17      1.0000 0.78070  0.25300  0.19630  Biso   1.000  C
  H13      1.0000 0.77240  0.19910  0.19590  Biso   1.000  H
  C18      1.0000 0.73230  0.30090  0.24560  Biso   1.000  C
  H14      1.0000 0.69160  0.27930  0.27810  Biso   1.000  H
  C19      1.0000 0.00910  0.24820  0.19430  Biso   1.000  C
  H15      1.0000 0.97440  0.25900  0.24250  Biso   1.000  H
  H16      1.0000 0.03350  0.29590  0.17540  Biso   1.000  H
  H17      1.0000 0.04850  0.21170  0.21290  Biso   1.000  H
  C20      1.0000 0.96390  0.21400  0.12030  Biso   1.000  C
  C21      1.0000 0.86910  0.18650  0.03360  Biso   1.000  C
  C22      1.0000 0.79250  0.18420  0.99200  Biso   1.000  C
  H18      1.0000 0.79120  0.14250  0.94960  Biso   1.000  H
  H19      1.0000 0.78280  0.23320  0.96290  Biso   1.000  H
  H20      1.0000 0.75300  0.17540  0.03590  Biso   1.000  H
  N4       1.0000 0.98920  0.16180  0.06790  Biso   1.000  N
  N5       1.0000 0.92870  0.14540  0.01130  Biso   1.000  N
  N6       1.0000 0.88920  0.23210  0.10290  Biso   1.000  N
  O3       1.0000 0.63390  0.40140  0.32840  Biso   1.000  O
  O4       1.0000 0.71610  0.49860  0.31780  Biso   1.000  O
  Cu2      1.0000 0.56782  0.45003  0.41692  Biso   1.000  Cu
  C23      1.0000 0.56870  0.69480  0.69870  Biso   1.000  C
  C24      1.0000 0.61940  0.74440  0.75340  Biso   1.000  C
  C25      1.0000 0.59110  0.80550  0.80170  Biso   1.000  C
  H21      1.0000 0.53770  0.81610  0.79990  Biso   1.000  H
  C26      1.0000 0.63790  0.85170  0.85270  Biso   1.000  C
  H22      1.0000 0.61670  0.89080  0.88800  Biso   1.000  H
  C27      1.0000 0.71680  0.83870  0.85020  Biso   1.000  C
  C28      1.0000 0.74700  0.78070  0.80370  Biso   1.000  C
  H23      1.0000 0.80090  0.77240  0.80410  Biso   1.000  H
  C29      1.0000 0.69910  0.73230  0.75440  Biso   1.000  C
  H24      1.0000 0.72070  0.69160  0.72190  Biso   1.000  H
  C30      1.0000 0.75180  0.00910  0.80570  Biso   1.000  C
  H25      1.0000 0.74100  0.97440  0.75750  Biso   1.000  H
  H26      1.0000 0.70410  0.03350  0.82460  Biso   1.000  H
  H27      1.0000 0.78830  0.04850  0.78710  Biso   1.000  H
  C31      1.0000 0.78600  0.96390  0.87970  Biso   1.000  C
  C32      1.0000 0.81350  0.86910  0.96640  Biso   1.000  C
  C33      1.0000 0.81580  0.79250  0.00800  Biso   1.000  C
  H28      1.0000 0.85750  0.79120  0.05040  Biso   1.000  H
  H29      1.0000 0.76680  0.78280  0.03710  Biso   1.000  H
  H30      1.0000 0.82460  0.75300  0.96410  Biso   1.000  H
  N7       1.0000 0.83820  0.98920  0.93210  Biso   1.000  N
  N8       1.0000 0.85460  0.92870  0.98870  Biso   1.000  N
  N9       1.0000 0.76790  0.88920  0.89710  Biso   1.000  N
  O5       1.0000 0.59860  0.63390  0.67160  Biso   1.000  O
  O6       1.0000 0.50140  0.71610  0.68220  Biso   1.000  O
  Cu3      1.0000 0.54997  0.56782  0.58308  Biso   1.000  Cu
  C34      1.0000 0.43130  0.30520  0.69870  Biso   1.000  C
  C35      1.0000 0.38060  0.25560  0.75340  Biso   1.000  C
  C36      1.0000 0.40890  0.19450  0.80170  Biso   1.000  C
  H31      1.0000 0.46230  0.18390  0.79990  Biso   1.000  H
  C37      1.0000 0.36210  0.14830  0.85270  Biso   1.000  C
  H32      1.0000 0.38330  0.10920  0.88800  Biso   1.000  H
  C38      1.0000 0.28320  0.16130  0.85020  Biso   1.000  C
  C39      1.0000 0.25300  0.21930  0.80370  Biso   1.000  C
  H33      1.0000 0.19910  0.22760  0.80410  Biso   1.000  H
  C40      1.0000 0.30090  0.26770  0.75440  Biso   1.000  C
  H34      1.0000 0.27930  0.30840  0.72190  Biso   1.000  H
  C41      1.0000 0.24820  0.99090  0.80570  Biso   1.000  C
  H35      1.0000 0.25900  0.02560  0.75750  Biso   1.000  H
  H36      1.0000 0.29590  0.96650  0.82460  Biso   1.000  H
  H37      1.0000 0.21170  0.95150  0.78710  Biso   1.000  H
  C42      1.0000 0.21400  0.03610  0.87970  Biso   1.000  C
  C43      1.0000 0.18650  0.13090  0.96640  Biso   1.000  C
  C44      1.0000 0.18420  0.20750  0.00800  Biso   1.000  C
  H38      1.0000 0.14250  0.20880  0.05040  Biso   1.000  H
  H39      1.0000 0.23320  0.21720  0.03710  Biso   1.000  H
  H40      1.0000 0.17540  0.24700  0.96410  Biso   1.000  H
  N10      1.0000 0.16180  0.01080  0.93210  Biso   1.000  N
  N11      1.0000 0.14540  0.07130  0.98870  Biso   1.000  N
  N12      1.0000 0.23210  0.11080  0.89710  Biso   1.000  N
  O7       1.0000 0.40140  0.36610  0.67160  Biso   1.000  O
  O8       1.0000 0.49860  0.28390  0.68220  Biso   1.000  O
  Cu4      1.0000 0.45003  0.43218  0.58308  Biso   1.000  Cu
  C45      1.0000 0.19480  0.06870  0.19870  Biso   1.000  C
  C46      1.0000 0.24440  0.11940  0.25340  Biso   1.000  C
  C47      1.0000 0.30550  0.09110  0.30170  Biso   1.000  C
  H41      1.0000 0.31610  0.03770  0.29990  Biso   1.000  H
  C48      1.0000 0.35170  0.13790  0.35270  Biso   1.000  C
  H42      1.0000 0.39080  0.11670  0.38800  Biso   1.000  H
  C49      1.0000 0.33870  0.21680  0.35020  Biso   1.000  C
  C50      1.0000 0.28070  0.24700  0.30370  Biso   1.000  C
  H43      1.0000 0.27240  0.30090  0.30410  Biso   1.000  H
  C51      1.0000 0.23230  0.19910  0.25440  Biso   1.000  C
  H44      1.0000 0.19160  0.22070  0.22190  Biso   1.000  H
  C52      1.0000 0.50910  0.25180  0.30570  Biso   1.000  C
  H45      1.0000 0.47440  0.24100  0.25750  Biso   1.000  H
  H46      1.0000 0.53350  0.20410  0.32460  Biso   1.000  H
  H47      1.0000 0.54850  0.28830  0.28710  Biso   1.000  H
  C53      1.0000 0.46390  0.28600  0.37970  Biso   1.000  C
  C54      1.0000 0.36910  0.31350  0.46640  Biso   1.000  C
  C55      1.0000 0.29250  0.31580  0.50800  Biso   1.000  C
  H48      1.0000 0.29120  0.35750  0.55040  Biso   1.000  H
  H49      1.0000 0.28280  0.26680  0.53710  Biso   1.000  H
  H50      1.0000 0.25300  0.32460  0.46410  Biso   1.000  H
  N13      1.0000 0.48920  0.33820  0.43210  Biso   1.000  N
  N14      1.0000 0.42870  0.35460  0.48870  Biso   1.000  N
  N15      1.0000 0.38920  0.26790  0.39710  Biso   1.000  N
  O9       1.0000 0.13390  0.09860  0.17160  Biso   1.000  O
  O10      1.0000 0.21610  0.00140  0.18220  Biso   1.000  O
  Cu5      1.0000 0.06782  0.04997  0.08308  Biso   1.000  Cu
  C56      1.0000 0.80520  0.93130  0.19870  Biso   1.000  C
  C57      1.0000 0.75560  0.88060  0.25340  Biso   1.000  C
  C58      1.0000 0.69450  0.90890  0.30170  Biso   1.000  C
  H51      1.0000 0.68390  0.96230  0.29990  Biso   1.000  H
  C59      1.0000 0.64830  0.86210  0.35270  Biso   1.000  C
  H52      1.0000 0.60920  0.88330  0.38800  Biso   1.000  H
  C60      1.0000 0.66130  0.78320  0.35020  Biso   1.000  C
  C61      1.0000 0.71930  0.75300  0.30370  Biso   1.000  C
  H53      1.0000 0.72760  0.69910  0.30410  Biso   1.000  H
  C62      1.0000 0.76770  0.80090  0.25440  Biso   1.000  C
  H54      1.0000 0.80840  0.77930  0.22190  Biso   1.000  H
  C63      1.0000 0.49090  0.74820  0.30570  Biso   1.000  C
  H55      1.0000 0.52560  0.75900  0.25750  Biso   1.000  H
  H56      1.0000 0.46650  0.79590  0.32460  Biso   1.000  H
  H57      1.0000 0.45150  0.71170  0.28710  Biso   1.000  H
  C64      1.0000 0.53610  0.71400  0.37970  Biso   1.000  C
  C65      1.0000 0.63090  0.68650  0.46640  Biso   1.000  C
  C66      1.0000 0.70750  0.68420  0.50800  Biso   1.000  C
  H58      1.0000 0.70880  0.64250  0.55040  Biso   1.000  H
  H59      1.0000 0.71720  0.73320  0.53710  Biso   1.000  H
  H60      1.0000 0.74700  0.67540  0.46410  Biso   1.000  H
  N16      1.0000 0.51080  0.66180  0.43210  Biso   1.000  N
  N17      1.0000 0.57130  0.64540  0.48870  Biso   1.000  N
  N18      1.0000 0.61080  0.73210  0.39710  Biso   1.000  N
  O11      1.0000 0.86610  0.90140  0.17160  Biso   1.000  O
  O12      1.0000 0.78390  0.99860  0.18220  Biso   1.000  O
  Cu6      1.0000 0.93218  0.95003  0.08308  Biso   1.000  Cu
  C67      1.0000 0.93130  0.19480  0.80130  Biso   1.000  C
  C68      1.0000 0.88060  0.24440  0.74660  Biso   1.000  C
  C69      1.0000 0.90890  0.30550  0.69830  Biso   1.000  C
  H61      1.0000 0.96230  0.31610  0.70010  Biso   1.000  H
  C70      1.0000 0.86210  0.35170  0.64730  Biso   1.000  C
  H62      1.0000 0.88330  0.39080  0.61200  Biso   1.000  H
  C71      1.0000 0.78320  0.33870  0.64980  Biso   1.000  C
  C72      1.0000 0.75300  0.28070  0.69630  Biso   1.000  C
  H63      1.0000 0.69910  0.27240  0.69590  Biso   1.000  H
  C73      1.0000 0.80090  0.23230  0.74560  Biso   1.000  C
  H64      1.0000 0.77930  0.19160  0.77810  Biso   1.000  H
  C74      1.0000 0.74820  0.50910  0.69430  Biso   1.000  C
  H65      1.0000 0.75900  0.47440  0.74250  Biso   1.000  H
  H66      1.0000 0.79590  0.53350  0.67540  Biso   1.000  H
  H67      1.0000 0.71170  0.54850  0.71290  Biso   1.000  H
  C75      1.0000 0.71400  0.46390  0.62030  Biso   1.000  C
  C76      1.0000 0.68650  0.36910  0.53360  Biso   1.000  C
  C77      1.0000 0.68420  0.29250  0.49200  Biso   1.000  C
  H68      1.0000 0.64250  0.29120  0.44960  Biso   1.000  H
  H69      1.0000 0.73320  0.28280  0.46290  Biso   1.000  H
  H70      1.0000 0.67540  0.25300  0.53590  Biso   1.000  H
  N19      1.0000 0.66180  0.48920  0.56790  Biso   1.000  N
  N20      1.0000 0.64540  0.42870  0.51130  Biso   1.000  N
  N21      1.0000 0.73210  0.38920  0.60290  Biso   1.000  N
  O13      1.0000 0.90140  0.13390  0.82840  Biso   1.000  O
  O14      1.0000 0.99860  0.21610  0.81780  Biso   1.000  O
  Cu7      1.0000 0.95003  0.06782  0.91692  Biso   1.000  Cu
  C78      1.0000 0.06870  0.80520  0.80130  Biso   1.000  C
  C79      1.0000 0.11940  0.75560  0.74660  Biso   1.000  C
  C80      1.0000 0.09110  0.69450  0.69830  Biso   1.000  C
  H71      1.0000 0.03770  0.68390  0.70010  Biso   1.000  H
  C81      1.0000 0.13790  0.64830  0.64730  Biso   1.000  C
  H72      1.0000 0.11670  0.60920  0.61200  Biso   1.000  H
  C82      1.0000 0.21680  0.66130  0.64980  Biso   1.000  C
  C83      1.0000 0.24700  0.71930  0.69630  Biso   1.000  C
  H73      1.0000 0.30090  0.72760  0.69590  Biso   1.000  H
  C84      1.0000 0.19910  0.76770  0.74560  Biso   1.000  C
  H74      1.0000 0.22070  0.80840  0.77810  Biso   1.000  H
  C85      1.0000 0.25180  0.49090  0.69430  Biso   1.000  C
  H75      1.0000 0.24100  0.52560  0.74250  Biso   1.000  H
  H76      1.0000 0.20410  0.46650  0.67540  Biso   1.000  H
  H77      1.0000 0.28830  0.45150  0.71290  Biso   1.000  H
  C86      1.0000 0.28600  0.53610  0.62030  Biso   1.000  C
  C87      1.0000 0.31350  0.63090  0.53360  Biso   1.000  C
  C88      1.0000 0.31580  0.70750  0.49200  Biso   1.000  C
  H78      1.0000 0.35750  0.70880  0.44960  Biso   1.000  H
  H79      1.0000 0.26680  0.71720  0.46290  Biso   1.000  H
  H80      1.0000 0.32460  0.74700  0.53590  Biso   1.000  H
  N22      1.0000 0.33820  0.51080  0.56790  Biso   1.000  N
  N23      1.0000 0.35460  0.57130  0.51130  Biso   1.000  N
  N24      1.0000 0.26790  0.61080  0.60290  Biso   1.000  N
  O15      1.0000 0.09860  0.86610  0.82840  Biso   1.000  O
  O16      1.0000 0.00140  0.78390  0.81780  Biso   1.000  O
  Cu8      1.0000 0.04997  0.93218  0.91692  Biso   1.000  Cu
  O17      1.0000 0.50000  0.50000  0.50000  Biso   1.000  O
  O18      1.0000 0.00000  0.00000  0.00000  Biso   1.000  O
  O19      1.0000 0.50000  0.50000  0.33070  Biso   1.000  O
  O20      1.0000 0.50000  0.50000  0.66930  Biso   1.000  O
  O21      1.0000 0.00000  0.00000  0.16930  Biso   1.000  O
  O22      1.0000 0.00000  0.00000  0.83070  Biso   1.000  O
