data_image0
_cell_length_a       21.7036
_cell_length_b       21.7036
_cell_length_c       6.844
_cell_angle_alpha    90
_cell_angle_beta     90
_cell_angle_gamma    120

_symmetry_space_group_name_H-M    "P 1"
_symmetry_int_tables_number       1

loop_
  _symmetry_equiv_pos_as_xyz
  'x, y, z'

loop_
  _atom_site_label
  _atom_site_occupancy
  _atom_site_fract_x
  _atom_site_fract_y
  _atom_site_fract_z
  _atom_site_thermal_displace_type
  _atom_site_B_iso_or_equiv
  _atom_site_type_symbol
  Co1      1.0000 0.28176  0.60829  0.33908  Biso   1.000  Co
  O1       1.0000 0.41990  0.62880  0.78650  Biso   1.000  O
  O2       1.0000 0.36240  0.65010  0.54950  Biso   1.000  O
  O3       1.0000 0.35250  0.58910  0.19320  Biso   1.000  O
  C1       1.0000 0.39550  0.61970  0.61540  Biso   1.000  C
  C2       1.0000 0.40570  0.51810  0.17440  Biso   1.000  C
  H1       1.0000 0.39510  0.51230  0.03870  Biso   1.000  H
  C3       1.0000 0.43810  0.48340  0.25520  Biso   1.000  C
  H2       1.0000 0.44800  0.45340  0.17610  Biso   1.000  H
  C4       1.0000 0.40800  0.57230  0.48290  Biso   1.000  C
  C5       1.0000 0.38780  0.56120  0.28150  Biso   1.000  C
  C6       1.0000 0.44120  0.53760  0.56120  Biso   1.000  C
  H3       1.0000 0.45410  0.54530  0.69530  Biso   1.000  H
  C7       1.0000 0.45680  0.49220  0.45570  Biso   1.000  C
  Co2      1.0000 0.39171  0.67347  0.00575  Biso   1.000  Co
  O4       1.0000 0.37120  0.79110  0.45317  Biso   1.000  O
  O5       1.0000 0.34990  0.71230  0.21617  Biso   1.000  O
  O6       1.0000 0.41090  0.76340  0.85987  Biso   1.000  O
  C8       1.0000 0.38030  0.77580  0.28207  Biso   1.000  C
  C9       1.0000 0.48190  0.88760  0.84107  Biso   1.000  C
  H4       1.0000 0.48770  0.88280  0.70537  Biso   1.000  H
  C10      1.0000 0.51660  0.95470  0.92187  Biso   1.000  C
  H5       1.0000 0.54660  0.99460  0.84277  Biso   1.000  H
  C11      1.0000 0.42770  0.83570  0.14957  Biso   1.000  C
  C12      1.0000 0.43880  0.82660  0.94817  Biso   1.000  C
  C13      1.0000 0.46240  0.90360  0.22787  Biso   1.000  C
  H6       1.0000 0.45470  0.90880  0.36197  Biso   1.000  H
  C14      1.0000 0.50780  0.96460  0.12237  Biso   1.000  C
  Co3      1.0000 0.32653  0.71824  0.67241  Biso   1.000  Co
  O7       1.0000 0.20890  0.58010  0.11983  Biso   1.000  O
  O8       1.0000 0.28770  0.63760  0.88283  Biso   1.000  O
  O9       1.0000 0.23660  0.64750  0.52653  Biso   1.000  O
  C15      1.0000 0.22420  0.60450  0.94873  Biso   1.000  C
  C16      1.0000 0.11240  0.59430  0.50773  Biso   1.000  C
  H7       1.0000 0.11720  0.60490  0.37203  Biso   1.000  H
  C17      1.0000 0.04530  0.56190  0.58853  Biso   1.000  C
  H8       1.0000 0.00540  0.55200  0.50943  Biso   1.000  H
  C18      1.0000 0.16430  0.59200  0.81623  Biso   1.000  C
  C19      1.0000 0.17340  0.61220  0.61483  Biso   1.000  C
  C20      1.0000 0.09640  0.55880  0.89453  Biso   1.000  C
  H9       1.0000 0.09120  0.54590  0.02863  Biso   1.000  H
  C21      1.0000 0.03540  0.54320  0.78903  Biso   1.000  C
  Co4      1.0000 0.60829  0.28176  0.66092  Biso   1.000  Co
  O10      1.0000 0.62880  0.41990  0.21350  Biso   1.000  O
  O11      1.0000 0.65010  0.36240  0.45050  Biso   1.000  O
  O12      1.0000 0.58910  0.35250  0.80680  Biso   1.000  O
  C22      1.0000 0.61970  0.39550  0.38460  Biso   1.000  C
  C23      1.0000 0.51810  0.40570  0.82560  Biso   1.000  C
  H10      1.0000 0.51230  0.39510  0.96130  Biso   1.000  H
  C24      1.0000 0.48340  0.43810  0.74480  Biso   1.000  C
  H11      1.0000 0.45340  0.44800  0.82390  Biso   1.000  H
  C25      1.0000 0.57230  0.40800  0.51710  Biso   1.000  C
  C26      1.0000 0.56120  0.38780  0.71850  Biso   1.000  C
  C27      1.0000 0.53760  0.44120  0.43880  Biso   1.000  C
  H12      1.0000 0.54530  0.45410  0.30470  Biso   1.000  H
  C28      1.0000 0.49220  0.45680  0.54430  Biso   1.000  C
  Co5      1.0000 0.67347  0.39171  0.99425  Biso   1.000  Co
  O13      1.0000 0.79110  0.37120  0.54683  Biso   1.000  O
  O14      1.0000 0.71230  0.34990  0.78383  Biso   1.000  O
  O15      1.0000 0.76340  0.41090  0.14013  Biso   1.000  O
  C29      1.0000 0.77580  0.38030  0.71793  Biso   1.000  C
  C30      1.0000 0.88760  0.48190  0.15893  Biso   1.000  C
  H13      1.0000 0.88280  0.48770  0.29463  Biso   1.000  H
  C31      1.0000 0.95470  0.51660  0.07813  Biso   1.000  C
  H14      1.0000 0.99460  0.54660  0.15723  Biso   1.000  H
  C32      1.0000 0.83570  0.42770  0.85043  Biso   1.000  C
  C33      1.0000 0.82660  0.43880  0.05183  Biso   1.000  C
  C34      1.0000 0.90360  0.46240  0.77213  Biso   1.000  C
  H15      1.0000 0.90880  0.45470  0.63803  Biso   1.000  H
  C35      1.0000 0.96460  0.50780  0.87763  Biso   1.000  C
  Co6      1.0000 0.71824  0.32653  0.32759  Biso   1.000  Co
  O16      1.0000 0.58010  0.20890  0.88017  Biso   1.000  O
  O17      1.0000 0.63760  0.28770  0.11717  Biso   1.000  O
  O18      1.0000 0.64750  0.23660  0.47347  Biso   1.000  O
  C36      1.0000 0.60450  0.22420  0.05127  Biso   1.000  C
  C37      1.0000 0.59430  0.11240  0.49227  Biso   1.000  C
  H16      1.0000 0.60490  0.11720  0.62797  Biso   1.000  H
  C38      1.0000 0.56190  0.04530  0.41147  Biso   1.000  C
  H17      1.0000 0.55200  0.00540  0.49057  Biso   1.000  H
  C39      1.0000 0.59200  0.16430  0.18377  Biso   1.000  C
  C40      1.0000 0.61220  0.17340  0.38517  Biso   1.000  C
  C41      1.0000 0.55880  0.09640  0.10547  Biso   1.000  C
  H18      1.0000 0.54590  0.09120  0.97137  Biso   1.000  H
  C42      1.0000 0.54320  0.03540  0.21097  Biso   1.000  C
