data_image0
_cell_length_a       21.823
_cell_length_b       21.823
_cell_length_c       6.8695
_cell_angle_alpha    90
_cell_angle_beta     90
_cell_angle_gamma    120

_symmetry_space_group_name_H-M    "P 1"
_symmetry_int_tables_number       1

loop_
  _symmetry_equiv_pos_as_xyz
  'x, y, z'

loop_
  _atom_site_label
  _atom_site_occupancy
  _atom_site_fract_x
  _atom_site_fract_y
  _atom_site_fract_z
  _atom_site_thermal_displace_type
  _atom_site_B_iso_or_equiv
  _atom_site_type_symbol
  Fe1      1.0000 0.61380  0.28170  0.14290  Biso   1.000  Fe
  O1       1.0000 0.65260  0.23800  0.94700  Biso   1.000  O
  O2       1.0000 0.63530  0.28190  0.59200  Biso   1.000  O
  O3       1.0000 0.58120  0.20690  0.37300  Biso   1.000  O
  C1       1.0000 0.61380  0.17440  0.87870  Biso   1.000  C
  C2       1.0000 0.59400  0.16490  0.68100  Biso   1.000  C
  C3       1.0000 0.56020  0.09580  0.60290  Biso   1.000  C
  C4       1.0000 0.54490  0.03550  0.71050  Biso   1.000  C
  C5       1.0000 0.56380  0.04650  0.90890  Biso   1.000  C
  C6       1.0000 0.59620  0.11320  0.99110  Biso   1.000  C
  C7       1.0000 0.60500  0.22290  0.54810  Biso   1.000  C
  H1       1.0000 0.54700  0.08980  0.46940  Biso   1.000  H
  H2       1.0000 0.55380  0.00670  0.98810  Biso   1.000  H
  H3       1.0000 0.60700  0.11820  0.12620  Biso   1.000  H
  Fe2      1.0000 0.71830  0.33210  0.80957  Biso   1.000  Fe
  O4       1.0000 0.76200  0.41460  0.61367  Biso   1.000  O
  O5       1.0000 0.71810  0.35340  0.25867  Biso   1.000  O
  O6       1.0000 0.79310  0.37430  0.03967  Biso   1.000  O
  C8       1.0000 0.82560  0.43940  0.54537  Biso   1.000  C
  C9       1.0000 0.83510  0.42910  0.34767  Biso   1.000  C
  C10      1.0000 0.90420  0.46440  0.26957  Biso   1.000  C
  C11      1.0000 0.96450  0.50940  0.37717  Biso   1.000  C
  C12      1.0000 0.95350  0.51730  0.57557  Biso   1.000  C
  C13      1.0000 0.88680  0.48300  0.65777  Biso   1.000  C
  C14      1.0000 0.77710  0.38210  0.21477  Biso   1.000  C
  H4       1.0000 0.91020  0.45720  0.13607  Biso   1.000  H
  H5       1.0000 0.99330  0.54710  0.65477  Biso   1.000  H
  H6       1.0000 0.88180  0.48880  0.79287  Biso   1.000  H
  Fe3      1.0000 0.66790  0.38620  0.47623  Biso   1.000  Fe
  O7       1.0000 0.58540  0.34740  0.28033  Biso   1.000  O
  O8       1.0000 0.64660  0.36470  0.92533  Biso   1.000  O
  O9       1.0000 0.62570  0.41880  0.70633  Biso   1.000  O
  C15      1.0000 0.56060  0.38620  0.21203  Biso   1.000  C
  C16      1.0000 0.57090  0.40600  0.01433  Biso   1.000  C
  C17      1.0000 0.53560  0.43980  0.93623  Biso   1.000  C
  C18      1.0000 0.49060  0.45510  0.04383  Biso   1.000  C
  C19      1.0000 0.48270  0.43620  0.24223  Biso   1.000  C
  C20      1.0000 0.51700  0.40380  0.32443  Biso   1.000  C
  C21      1.0000 0.61790  0.39500  0.88143  Biso   1.000  C
  H7       1.0000 0.54280  0.45300  0.80273  Biso   1.000  H
  H8       1.0000 0.45290  0.44620  0.32143  Biso   1.000  H
  H9       1.0000 0.51120  0.39300  0.45953  Biso   1.000  H
  Fe4      1.0000 0.28170  0.61380  0.85710  Biso   1.000  Fe
  O10      1.0000 0.23800  0.65260  0.05300  Biso   1.000  O
  O11      1.0000 0.28190  0.63530  0.40800  Biso   1.000  O
  O12      1.0000 0.20690  0.58120  0.62700  Biso   1.000  O
  C22      1.0000 0.17440  0.61380  0.12130  Biso   1.000  C
  C23      1.0000 0.16490  0.59400  0.31900  Biso   1.000  C
  C24      1.0000 0.09580  0.56020  0.39710  Biso   1.000  C
  C25      1.0000 0.03550  0.54490  0.28950  Biso   1.000  C
  C26      1.0000 0.04650  0.56380  0.09110  Biso   1.000  C
  C27      1.0000 0.11320  0.59620  0.00890  Biso   1.000  C
  C28      1.0000 0.22290  0.60500  0.45190  Biso   1.000  C
  H10      1.0000 0.08980  0.54700  0.53060  Biso   1.000  H
  H11      1.0000 0.00670  0.55380  0.01190  Biso   1.000  H
  H12      1.0000 0.11820  0.60700  0.87380  Biso   1.000  H
  Fe5      1.0000 0.33210  0.71830  0.19043  Biso   1.000  Fe
  O13      1.0000 0.41460  0.76200  0.38633  Biso   1.000  O
  O14      1.0000 0.35340  0.71810  0.74133  Biso   1.000  O
  O15      1.0000 0.37430  0.79310  0.96033  Biso   1.000  O
  C29      1.0000 0.43940  0.82560  0.45463  Biso   1.000  C
  C30      1.0000 0.42910  0.83510  0.65233  Biso   1.000  C
  C31      1.0000 0.46440  0.90420  0.73043  Biso   1.000  C
  C32      1.0000 0.50940  0.96450  0.62283  Biso   1.000  C
  C33      1.0000 0.51730  0.95350  0.42443  Biso   1.000  C
  C34      1.0000 0.48300  0.88680  0.34223  Biso   1.000  C
  C35      1.0000 0.38210  0.77710  0.78523  Biso   1.000  C
  H13      1.0000 0.45720  0.91020  0.86393  Biso   1.000  H
  H14      1.0000 0.54710  0.99330  0.34523  Biso   1.000  H
  H15      1.0000 0.48880  0.88180  0.20713  Biso   1.000  H
  Fe6      1.0000 0.38620  0.66790  0.52377  Biso   1.000  Fe
  O16      1.0000 0.34740  0.58540  0.71967  Biso   1.000  O
  O17      1.0000 0.36470  0.64660  0.07467  Biso   1.000  O
  O18      1.0000 0.41880  0.62570  0.29367  Biso   1.000  O
  C36      1.0000 0.38620  0.56060  0.78797  Biso   1.000  C
  C37      1.0000 0.40600  0.57090  0.98567  Biso   1.000  C
  C38      1.0000 0.43980  0.53560  0.06377  Biso   1.000  C
  C39      1.0000 0.45510  0.49060  0.95617  Biso   1.000  C
  C40      1.0000 0.43620  0.48270  0.75777  Biso   1.000  C
  C41      1.0000 0.40380  0.51700  0.67557  Biso   1.000  C
  C42      1.0000 0.39500  0.61790  0.11857  Biso   1.000  C
  H16      1.0000 0.45300  0.54280  0.19727  Biso   1.000  H
  H17      1.0000 0.44620  0.45290  0.67857  Biso   1.000  H
  H18      1.0000 0.39300  0.51120  0.54047  Biso   1.000  H
