data_image0
_cell_length_a       20.7803
_cell_length_b       7.9154
_cell_length_c       17.299
_cell_angle_alpha    90
_cell_angle_beta     90
_cell_angle_gamma    90

_symmetry_space_group_name_H-M    "P 1"
_symmetry_int_tables_number       1

loop_
  _symmetry_equiv_pos_as_xyz
  'x, y, z'

loop_
  _atom_site_label
  _atom_site_occupancy
  _atom_site_fract_x
  _atom_site_fract_y
  _atom_site_fract_z
  _atom_site_thermal_displace_type
  _atom_site_B_iso_or_equiv
  _atom_site_type_symbol
  O1       1.0000 0.24540  0.43100  0.36000  Biso   1.000  O
  O2       1.0000 0.31520  0.27970  0.29240  Biso   1.000  O
  O3       1.0000 0.39310  0.97560  0.33040  Biso   1.000  O
  O4       1.0000 0.46240  0.18610  0.33890  Biso   1.000  O
  C1       1.0000 0.32330  0.27570  0.42990  Biso   1.000  C
  C2       1.0000 0.37840  0.17420  0.43010  Biso   1.000  C
  C3       1.0000 0.29350  0.33300  0.35540  Biso   1.000  C
  C4       1.0000 0.41250  0.10950  0.35970  Biso   1.000  C
  O5       1.0000 0.74540  0.93100  0.86000  Biso   1.000  O
  O6       1.0000 0.81520  0.77970  0.79240  Biso   1.000  O
  O7       1.0000 0.89310  0.47560  0.83040  Biso   1.000  O
  O8       1.0000 0.96240  0.68610  0.83890  Biso   1.000  O
  C5       1.0000 0.82330  0.77570  0.92990  Biso   1.000  C
  C6       1.0000 0.87840  0.67420  0.93010  Biso   1.000  C
  C7       1.0000 0.79350  0.83300  0.85540  Biso   1.000  C
  C8       1.0000 0.91250  0.60950  0.85970  Biso   1.000  C
  O9       1.0000 0.75460  0.56900  0.36000  Biso   1.000  O
  O10      1.0000 0.68480  0.72030  0.29240  Biso   1.000  O
  O11      1.0000 0.60690  0.02440  0.33040  Biso   1.000  O
  O12      1.0000 0.53760  0.81390  0.33890  Biso   1.000  O
  C9       1.0000 0.67670  0.72430  0.42990  Biso   1.000  C
  C10      1.0000 0.62160  0.82580  0.43010  Biso   1.000  C
  C11      1.0000 0.70650  0.66700  0.35540  Biso   1.000  C
  C12      1.0000 0.58750  0.89050  0.35970  Biso   1.000  C
  O13      1.0000 0.25460  0.06900  0.86000  Biso   1.000  O
  O14      1.0000 0.18480  0.22030  0.79240  Biso   1.000  O
  O15      1.0000 0.10690  0.52440  0.83040  Biso   1.000  O
  O16      1.0000 0.03760  0.31390  0.83890  Biso   1.000  O
  C13      1.0000 0.17670  0.22430  0.92990  Biso   1.000  C
  C14      1.0000 0.12160  0.32580  0.93010  Biso   1.000  C
  C15      1.0000 0.20650  0.16700  0.85540  Biso   1.000  C
  C16      1.0000 0.08750  0.39050  0.85970  Biso   1.000  C
  O17      1.0000 0.25460  0.93100  0.64000  Biso   1.000  O
  O18      1.0000 0.18480  0.77970  0.70760  Biso   1.000  O
  O19      1.0000 0.10690  0.47560  0.66960  Biso   1.000  O
  O20      1.0000 0.03760  0.68610  0.66110  Biso   1.000  O
  C17      1.0000 0.17670  0.77570  0.57010  Biso   1.000  C
  C18      1.0000 0.12160  0.67420  0.56990  Biso   1.000  C
  C19      1.0000 0.20650  0.83300  0.64460  Biso   1.000  C
  C20      1.0000 0.08750  0.60950  0.64030  Biso   1.000  C
  O21      1.0000 0.75460  0.43100  0.14000  Biso   1.000  O
  O22      1.0000 0.68480  0.27970  0.20760  Biso   1.000  O
  O23      1.0000 0.60690  0.97560  0.16960  Biso   1.000  O
  O24      1.0000 0.53760  0.18610  0.16110  Biso   1.000  O
  C21      1.0000 0.67670  0.27570  0.07010  Biso   1.000  C
  C22      1.0000 0.62160  0.17420  0.06990  Biso   1.000  C
  C23      1.0000 0.70650  0.33300  0.14460  Biso   1.000  C
  C24      1.0000 0.58750  0.10950  0.14030  Biso   1.000  C
  O25      1.0000 0.74540  0.06900  0.64000  Biso   1.000  O
  O26      1.0000 0.81520  0.22030  0.70760  Biso   1.000  O
  O27      1.0000 0.89310  0.52440  0.66960  Biso   1.000  O
  O28      1.0000 0.96240  0.31390  0.66110  Biso   1.000  O
  C25      1.0000 0.82330  0.22430  0.57010  Biso   1.000  C
  C26      1.0000 0.87840  0.32580  0.56990  Biso   1.000  C
  C27      1.0000 0.79350  0.16700  0.64460  Biso   1.000  C
  C28      1.0000 0.91250  0.39050  0.64030  Biso   1.000  C
  O29      1.0000 0.24540  0.56900  0.14000  Biso   1.000  O
  O30      1.0000 0.31520  0.72030  0.20760  Biso   1.000  O
  O31      1.0000 0.39310  0.02440  0.16960  Biso   1.000  O
  O32      1.0000 0.46240  0.81390  0.16110  Biso   1.000  O
  C29      1.0000 0.32330  0.72430  0.07010  Biso   1.000  C
  C30      1.0000 0.37840  0.82580  0.06990  Biso   1.000  C
  C31      1.0000 0.29350  0.66700  0.14460  Biso   1.000  C
  C32      1.0000 0.41250  0.89050  0.14030  Biso   1.000  C
  O33      1.0000 0.75460  0.56900  0.64000  Biso   1.000  O
  O34      1.0000 0.68480  0.72030  0.70760  Biso   1.000  O
  O35      1.0000 0.60690  0.02440  0.66960  Biso   1.000  O
  O36      1.0000 0.53760  0.81390  0.66110  Biso   1.000  O
  C33      1.0000 0.67670  0.72430  0.57010  Biso   1.000  C
  C34      1.0000 0.62160  0.82580  0.56990  Biso   1.000  C
  C35      1.0000 0.70650  0.66700  0.64460  Biso   1.000  C
  C36      1.0000 0.58750  0.89050  0.64030  Biso   1.000  C
  O37      1.0000 0.25460  0.06900  0.14000  Biso   1.000  O
  O38      1.0000 0.18480  0.22030  0.20760  Biso   1.000  O
  O39      1.0000 0.10690  0.52440  0.16960  Biso   1.000  O
  O40      1.0000 0.03760  0.31390  0.16110  Biso   1.000  O
  C37      1.0000 0.17670  0.22430  0.07010  Biso   1.000  C
  C38      1.0000 0.12160  0.32580  0.06990  Biso   1.000  C
  C39      1.0000 0.20650  0.16700  0.14460  Biso   1.000  C
  C40      1.0000 0.08750  0.39050  0.14030  Biso   1.000  C
  O41      1.0000 0.24540  0.43100  0.64000  Biso   1.000  O
  O42      1.0000 0.31520  0.27970  0.70760  Biso   1.000  O
  O43      1.0000 0.39310  0.97560  0.66960  Biso   1.000  O
  O44      1.0000 0.46240  0.18610  0.66110  Biso   1.000  O
  C41      1.0000 0.32330  0.27570  0.57010  Biso   1.000  C
  C42      1.0000 0.37840  0.17420  0.56990  Biso   1.000  C
  C43      1.0000 0.29350  0.33300  0.64460  Biso   1.000  C
  C44      1.0000 0.41250  0.10950  0.64030  Biso   1.000  C
  O45      1.0000 0.74540  0.93100  0.14000  Biso   1.000  O
  O46      1.0000 0.81520  0.77970  0.20760  Biso   1.000  O
  O47      1.0000 0.89310  0.47560  0.16960  Biso   1.000  O
  O48      1.0000 0.96240  0.68610  0.16110  Biso   1.000  O
  C45      1.0000 0.82330  0.77570  0.07010  Biso   1.000  C
  C46      1.0000 0.87840  0.67420  0.06990  Biso   1.000  C
  C47      1.0000 0.79350  0.83300  0.14460  Biso   1.000  C
  C48      1.0000 0.91250  0.60950  0.14030  Biso   1.000  C
  O49      1.0000 0.74540  0.06900  0.36000  Biso   1.000  O
  O50      1.0000 0.81520  0.22030  0.29240  Biso   1.000  O
  O51      1.0000 0.89310  0.52440  0.33040  Biso   1.000  O
  O52      1.0000 0.96240  0.31390  0.33890  Biso   1.000  O
  C49      1.0000 0.82330  0.22430  0.42990  Biso   1.000  C
  C50      1.0000 0.87840  0.32580  0.43010  Biso   1.000  C
  C51      1.0000 0.79350  0.16700  0.35540  Biso   1.000  C
  C52      1.0000 0.91250  0.39050  0.35970  Biso   1.000  C
  O53      1.0000 0.24540  0.56900  0.86000  Biso   1.000  O
  O54      1.0000 0.31520  0.72030  0.79240  Biso   1.000  O
  O55      1.0000 0.39310  0.02440  0.83040  Biso   1.000  O
  O56      1.0000 0.46240  0.81390  0.83890  Biso   1.000  O
  C53      1.0000 0.32330  0.72430  0.92990  Biso   1.000  C
  C54      1.0000 0.37840  0.82580  0.93010  Biso   1.000  C
  C55      1.0000 0.29350  0.66700  0.85540  Biso   1.000  C
  C56      1.0000 0.41250  0.89050  0.85970  Biso   1.000  C
  O57      1.0000 0.25460  0.93100  0.36000  Biso   1.000  O
  O58      1.0000 0.18480  0.77970  0.29240  Biso   1.000  O
  O59      1.0000 0.10690  0.47560  0.33040  Biso   1.000  O
  O60      1.0000 0.03760  0.68610  0.33890  Biso   1.000  O
  C57      1.0000 0.17670  0.77570  0.42990  Biso   1.000  C
  C58      1.0000 0.12160  0.67420  0.43010  Biso   1.000  C
  C59      1.0000 0.20650  0.83300  0.35540  Biso   1.000  C
  C60      1.0000 0.08750  0.60950  0.35970  Biso   1.000  C
  O61      1.0000 0.75460  0.43100  0.86000  Biso   1.000  O
  O62      1.0000 0.68480  0.27970  0.79240  Biso   1.000  O
  O63      1.0000 0.60690  0.97560  0.83040  Biso   1.000  O
  O64      1.0000 0.53760  0.18610  0.83890  Biso   1.000  O
  C61      1.0000 0.67670  0.27570  0.92990  Biso   1.000  C
  C62      1.0000 0.62160  0.17420  0.93010  Biso   1.000  C
  C63      1.0000 0.70650  0.33300  0.85540  Biso   1.000  C
  C64      1.0000 0.58750  0.10950  0.85970  Biso   1.000  C
  Cd1      1.0000 0.50000  0.00000  0.25000  Biso   1.000  Cd
  Cd2      1.0000 0.00000  0.50000  0.75000  Biso   1.000  Cd
  Cd3      1.0000 0.50000  0.00000  0.75000  Biso   1.000  Cd
  Cd4      1.0000 0.00000  0.50000  0.25000  Biso   1.000  Cd
  Cd5      1.0000 0.30182  0.00000  0.25000  Biso   1.000  Cd
  Cd6      1.0000 0.69818  0.00000  0.25000  Biso   1.000  Cd
  Cd7      1.0000 0.19818  0.50000  0.75000  Biso   1.000  Cd
  Cd8      1.0000 0.80182  0.50000  0.75000  Biso   1.000  Cd
  Cd9      1.0000 0.69818  0.00000  0.75000  Biso   1.000  Cd
  Cd10     1.0000 0.19818  0.50000  0.25000  Biso   1.000  Cd
  Cd11     1.0000 0.30182  0.00000  0.75000  Biso   1.000  Cd
  Cd12     1.0000 0.80182  0.50000  0.25000  Biso   1.000  Cd
  C65      1.0000 0.29740  0.32960  0.50000  Biso   1.000  C
  H1       1.0000 0.26230  0.40260  0.50000  Biso   1.000  H
  C66      1.0000 0.40510  0.12990  0.50000  Biso   1.000  C
  H2       1.0000 0.44290  0.06720  0.50000  Biso   1.000  H
  C67      1.0000 0.79740  0.82960  0.00000  Biso   1.000  C
  H3       1.0000 0.76230  0.90260  0.00000  Biso   1.000  H
  C68      1.0000 0.90510  0.62990  0.00000  Biso   1.000  C
  H4       1.0000 0.94290  0.56720  0.00000  Biso   1.000  H
  C69      1.0000 0.70260  0.67040  0.50000  Biso   1.000  C
  H5       1.0000 0.73770  0.59740  0.50000  Biso   1.000  H
  C70      1.0000 0.59490  0.87010  0.50000  Biso   1.000  C
  H6       1.0000 0.55710  0.93280  0.50000  Biso   1.000  H
  C71      1.0000 0.20260  0.17040  0.00000  Biso   1.000  C
  H7       1.0000 0.23770  0.09740  0.00000  Biso   1.000  H
  C72      1.0000 0.09490  0.37010  0.00000  Biso   1.000  C
  H8       1.0000 0.05710  0.43280  0.00000  Biso   1.000  H
  C73      1.0000 0.20260  0.82960  0.50000  Biso   1.000  C
  H9       1.0000 0.23770  0.90260  0.50000  Biso   1.000  H
  C74      1.0000 0.09490  0.62990  0.50000  Biso   1.000  C
  H10      1.0000 0.05710  0.56720  0.50000  Biso   1.000  H
  C75      1.0000 0.70260  0.32960  0.00000  Biso   1.000  C
  H11      1.0000 0.73770  0.40260  0.00000  Biso   1.000  H
  C76      1.0000 0.59490  0.12990  0.00000  Biso   1.000  C
  H12      1.0000 0.55710  0.06720  0.00000  Biso   1.000  H
  C77      1.0000 0.79740  0.17040  0.50000  Biso   1.000  C
  H13      1.0000 0.76230  0.09740  0.50000  Biso   1.000  H
  C78      1.0000 0.90510  0.37010  0.50000  Biso   1.000  C
  H14      1.0000 0.94290  0.43280  0.50000  Biso   1.000  H
  C79      1.0000 0.29740  0.67040  0.00000  Biso   1.000  C
  H15      1.0000 0.26230  0.59740  0.00000  Biso   1.000  H
  C80      1.0000 0.40510  0.87010  0.00000  Biso   1.000  C
  H16      1.0000 0.44290  0.93280  0.00000  Biso   1.000  H
