data_MALYIJ_charged
_audit_creation_date              2014-07-02
_audit_creation_method            'Materials Studio'
_symmetry_space_group_name_H-M    'P1'
_symmetry_Int_Tables_number       1
_symmetry_cell_setting            triclinic
loop_
_symmetry_equiv_pos_as_xyz
  x,y,z
_cell_length_a                    14.8680
_cell_length_b                    22.5230
_cell_length_c                    25.1740
_cell_angle_alpha                 90.0000
_cell_angle_beta                  90.0000
_cell_angle_gamma                 98.4580
loop_
_atom_site_label
_atom_site_type_symbol
_atom_site_fract_x
_atom_site_fract_y
_atom_site_fract_z
_atom_site_U_iso_or_equiv
_atom_site_adp_type
_atom_site_occupancy
Ce1    Ce    0.37210   0.45896   0.52151   0.01267  Uiso   1.00
Ce2    Ce    0.62790   0.04104   0.02151   0.01267  Uiso   1.00
Ce3    Ce    0.62790   0.54104   0.47849   0.01267  Uiso   1.00
Ce4    Ce    0.37210   0.95896   0.97849   0.01267  Uiso   1.00
H1     H     0.53590   0.67650   0.46210   0.01267  Uiso   1.00
H2     H     0.26340   0.63960   0.44760   0.01267  Uiso   1.00
H3     H     0.36530   0.87280   0.43820   0.01267  Uiso   1.00
H4     H     0.37330   0.94640   0.36560   0.01267  Uiso   1.00
H5     H     0.42270   0.79130   0.30670   0.01267  Uiso   1.00
H6     H     0.57010   0.97130   0.18910   0.01267  Uiso   1.00
H7     H     0.30960   0.91390   0.15500   0.01267  Uiso   1.00
H8     H     0.55440   0.82390   0.40580   0.01267  Uiso   1.00
H9     H     0.63600   0.75760   0.48240   0.01267  Uiso   1.00
H10    H     0.59240   0.81560   0.49380   0.01267  Uiso   1.00
H11    H     0.68220   0.81980   0.46050   0.01267  Uiso   1.00
H12    H     0.65630   0.73080   0.38760   0.01267  Uiso   1.00
H13    H     0.66980   0.79460   0.36120   0.01267  Uiso   1.00
H14    H     0.58680   0.74680   0.34500   0.01267  Uiso   1.00
H15    H     0.23780   0.77740   0.38280   0.01267  Uiso   1.00
H16    H     0.24780   0.68940   0.32570   0.01267  Uiso   1.00
H17    H     0.15660   0.71650   0.32330   0.01267  Uiso   1.00
H18    H     0.16210   0.65840   0.35670   0.01267  Uiso   1.00
H19    H     0.12670   0.69260   0.44170   0.01267  Uiso   1.00
H20    H     0.10880   0.75690   0.42510   0.01267  Uiso   1.00
H21    H     0.18110   0.74940   0.46900   0.01267  Uiso   1.00
H22    H     0.56050   0.92010   0.32330   0.01267  Uiso   1.00
H23    H     0.67240   0.90820   0.23620   0.01267  Uiso   1.00
H24    H     0.63230   0.85760   0.27600   0.01267  Uiso   1.00
H25    H     0.70840   0.90900   0.29470   0.01267  Uiso   1.00
H26    H     0.66140   0.00480   0.32940   0.01267  Uiso   1.00
H27    H     0.57240   0.02400   0.30580   0.01267  Uiso   1.00
H28    H     0.65510   0.01820   0.26850   0.01267  Uiso   1.00
H29    H     0.24970   0.85270   0.28320   0.01267  Uiso   1.00
H30    H     0.16170   0.78920   0.22660   0.01267  Uiso   1.00
H31    H     0.26410   0.78290   0.21730   0.01267  Uiso   1.00
H32    H     0.21350   0.81980   0.17720   0.01267  Uiso   1.00
H33    H     0.18310   0.93440   0.26820   0.01267  Uiso   1.00
H34    H     0.11640   0.88130   0.24330   0.01267  Uiso   1.00
H35    H     0.18130   0.92440   0.20650   0.01267  Uiso   1.00
H36    H     0.91890   0.12380   0.93500   0.01267  Uiso   1.00
H37    H     0.75750   0.24910   0.94830   0.01267  Uiso   1.00
H38    H     0.09500   0.35150   0.94260   0.01267  Uiso   1.00
H39    H     0.01790   0.29460   0.79790   0.01267  Uiso   1.00
H40    H     0.19000   0.41110   0.87750   0.01267  Uiso   1.00
H41    H     0.14910   0.46940   0.67330   0.01267  Uiso   1.00
H42    H     0.31680   0.34720   0.69300   0.01267  Uiso   1.00
H43    H     0.91970   0.37030   0.89690   0.01267  Uiso   1.00
H44    H     0.80340   0.40890   0.94570   0.01267  Uiso   1.00
H45    H     0.86750   0.37650   0.98160   0.01267  Uiso   1.00
H46    H     0.77060   0.34360   0.96640   0.01267  Uiso   1.00
H47    H     0.81490   0.31780   0.83130   0.01267  Uiso   1.00
H48    H     0.81070   0.38610   0.84140   0.01267  Uiso   1.00
H49    H     0.73840   0.33710   0.86760   0.01267  Uiso   1.00
H50    H     0.11130   0.21920   0.88010   0.01267  Uiso   1.00
H51    H     0.06010   0.11930   0.94710   0.01267  Uiso   1.00
H52    H     0.13470   0.17450   0.95890   0.01267  Uiso   1.00
H53    H     0.15310   0.12650   0.91670   0.01267  Uiso   1.00
H54    H     0.01820   0.10750   0.84920   0.01267  Uiso   1.00
H55    H     0.11140   0.13860   0.82630   0.01267  Uiso   1.00
H56    H     0.02180   0.16510   0.81390   0.01267  Uiso   1.00
H57    H     0.23620   0.29990   0.82260   0.01267  Uiso   1.00
H58    H     0.39550   0.33900   0.76540   0.01267  Uiso   1.00
H59    H     0.39480   0.28210   0.80140   0.01267  Uiso   1.00
H60    H     0.38020   0.34360   0.82680   0.01267  Uiso   1.00
H61    H     0.18200   0.23050   0.75330   0.01267  Uiso   1.00
H62    H     0.26520   0.20970   0.78240   0.01267  Uiso   1.00
H63    H     0.27850   0.24120   0.72690   0.01267  Uiso   1.00
H64    H     0.03350   0.44010   0.79790   0.01267  Uiso   1.00
H65    H     0.03350   0.53700   0.79110   0.01267  Uiso   1.00
H66    H     0.07030   0.53980   0.73260   0.01267  Uiso   1.00
H67    H     0.13540   0.53060   0.78000   0.01267  Uiso   1.00
H68    H     0.91550   0.45320   0.74560   0.01267  Uiso   1.00
H69    H     0.95410   0.39630   0.72480   0.01267  Uiso   1.00
H70    H     0.97620   0.45750   0.69450   0.01267  Uiso   1.00
H71    H     0.46410   0.82350   0.96210   0.01267  Uiso   1.00
H72    H     0.73660   0.86040   0.94760   0.01267  Uiso   1.00
H73    H     0.63470   0.62720   0.93820   0.01267  Uiso   1.00
H74    H     0.62670   0.55360   0.86560   0.01267  Uiso   1.00
H75    H     0.57730   0.70870   0.80670   0.01267  Uiso   1.00
H76    H     0.42990   0.52870   0.68910   0.01267  Uiso   1.00
H77    H     0.69040   0.58610   0.65500   0.01267  Uiso   1.00
H78    H     0.44560   0.67610   0.90580   0.01267  Uiso   1.00
H79    H     0.36400   0.74240   0.98240   0.01267  Uiso   1.00
H80    H     0.40760   0.68440   0.99380   0.01267  Uiso   1.00
H81    H     0.31780   0.68020   0.96050   0.01267  Uiso   1.00
H82    H     0.34370   0.76920   0.88760   0.01267  Uiso   1.00
H83    H     0.33020   0.70540   0.86120   0.01267  Uiso   1.00
H84    H     0.41320   0.75320   0.84500   0.01267  Uiso   1.00
H85    H     0.76220   0.72260   0.88280   0.01267  Uiso   1.00
H86    H     0.75220   0.81060   0.82570   0.01267  Uiso   1.00
H87    H     0.84340   0.78350   0.82330   0.01267  Uiso   1.00
H88    H     0.83790   0.84160   0.85670   0.01267  Uiso   1.00
H89    H     0.87330   0.80740   0.94170   0.01267  Uiso   1.00
H90    H     0.89120   0.74310   0.92510   0.01267  Uiso   1.00
H91    H     0.81890   0.75060   0.96900   0.01267  Uiso   1.00
H92    H     0.43950   0.57990   0.82330   0.01267  Uiso   1.00
H93    H     0.32760   0.59180   0.73620   0.01267  Uiso   1.00
H94    H     0.36770   0.64240   0.77600   0.01267  Uiso   1.00
H95    H     0.29160   0.59100   0.79470   0.01267  Uiso   1.00
H96    H     0.33860   0.49520   0.82940   0.01267  Uiso   1.00
H97    H     0.42760   0.47600   0.80580   0.01267  Uiso   1.00
H98    H     0.34490   0.48180   0.76850   0.01267  Uiso   1.00
H99    H     0.75030   0.64730   0.78320   0.01267  Uiso   1.00
H100   H     0.83830   0.71080   0.72660   0.01267  Uiso   1.00
H101   H     0.73590   0.71710   0.71730   0.01267  Uiso   1.00
H102   H     0.78650   0.68020   0.67720   0.01267  Uiso   1.00
H103   H     0.81690   0.56560   0.76820   0.01267  Uiso   1.00
H104   H     0.88360   0.61870   0.74330   0.01267  Uiso   1.00
H105   H     0.81870   0.57560   0.70650   0.01267  Uiso   1.00
H106   H     0.08110   0.37620   0.43500   0.01267  Uiso   1.00
H107   H     0.24250   0.25090   0.44830   0.01267  Uiso   1.00
H108   H     0.90500   0.14850   0.44260   0.01267  Uiso   1.00
H109   H     0.98210   0.20540   0.29790   0.01267  Uiso   1.00
H110   H     0.81000   0.08890   0.37750   0.01267  Uiso   1.00
H111   H     0.85090   0.03060   0.17330   0.01267  Uiso   1.00
H112   H     0.68320   0.15280   0.19300   0.01267  Uiso   1.00
H113   H     0.08030   0.12970   0.39690   0.01267  Uiso   1.00
H114   H     0.19660   0.09110   0.44570   0.01267  Uiso   1.00
H115   H     0.13250   0.12350   0.48160   0.01267  Uiso   1.00
H116   H     0.22940   0.15640   0.46640   0.01267  Uiso   1.00
H117   H     0.18510   0.18220   0.33130   0.01267  Uiso   1.00
H118   H     0.18930   0.11390   0.34140   0.01267  Uiso   1.00
H119   H     0.26160   0.16290   0.36760   0.01267  Uiso   1.00
H120   H     0.88870   0.28080   0.38010   0.01267  Uiso   1.00
H121   H     0.93990   0.38070   0.44710   0.01267  Uiso   1.00
H122   H     0.86530   0.32550   0.45890   0.01267  Uiso   1.00
H123   H     0.84690   0.37350   0.41670   0.01267  Uiso   1.00
H124   H     0.98180   0.39250   0.34920   0.01267  Uiso   1.00
H125   H     0.88860   0.36140   0.32630   0.01267  Uiso   1.00
H126   H     0.97820   0.33490   0.31390   0.01267  Uiso   1.00
H127   H     0.76380   0.20010   0.32260   0.01267  Uiso   1.00
H128   H     0.60450   0.16100   0.26540   0.01267  Uiso   1.00
H129   H     0.60520   0.21790   0.30140   0.01267  Uiso   1.00
H130   H     0.61980   0.15640   0.32680   0.01267  Uiso   1.00
H131   H     0.81800   0.26950   0.25330   0.01267  Uiso   1.00
H132   H     0.73480   0.29030   0.28240   0.01267  Uiso   1.00
H133   H     0.72150   0.25880   0.22690   0.01267  Uiso   1.00
H134   H     0.96650   0.05990   0.29790   0.01267  Uiso   1.00
H135   H     0.96650   0.96300   0.29110   0.01267  Uiso   1.00
H136   H     0.92970   0.96020   0.23260   0.01267  Uiso   1.00
H137   H     0.86460   0.96940   0.28000   0.01267  Uiso   1.00
H138   H     0.08450   0.04680   0.24560   0.01267  Uiso   1.00
H139   H     0.04590   0.10370   0.22480   0.01267  Uiso   1.00
H140   H     0.02380   0.04250   0.19450   0.01267  Uiso   1.00
H141   H     0.46410   0.32350   0.53790   0.01267  Uiso   1.00
H142   H     0.73660   0.36040   0.55240   0.01267  Uiso   1.00
H143   H     0.63470   0.12720   0.56180   0.01267  Uiso   1.00
H144   H     0.62670   0.05360   0.63440   0.01267  Uiso   1.00
H145   H     0.57730   0.20870   0.69330   0.01267  Uiso   1.00
H146   H     0.42990   0.02870   0.81090   0.01267  Uiso   1.00
H147   H     0.69040   0.08610   0.84500   0.01267  Uiso   1.00
H148   H     0.44560   0.17610   0.59420   0.01267  Uiso   1.00
H149   H     0.36400   0.24240   0.51760   0.01267  Uiso   1.00
H150   H     0.40760   0.18440   0.50620   0.01267  Uiso   1.00
H151   H     0.31780   0.18020   0.53950   0.01267  Uiso   1.00
H152   H     0.34370   0.26920   0.61240   0.01267  Uiso   1.00
H153   H     0.33020   0.20540   0.63880   0.01267  Uiso   1.00
H154   H     0.41320   0.25320   0.65500   0.01267  Uiso   1.00
H155   H     0.76220   0.22260   0.61720   0.01267  Uiso   1.00
H156   H     0.75220   0.31060   0.67430   0.01267  Uiso   1.00
H157   H     0.84340   0.28350   0.67670   0.01267  Uiso   1.00
H158   H     0.83790   0.34160   0.64330   0.01267  Uiso   1.00
H159   H     0.87330   0.30740   0.55830   0.01267  Uiso   1.00
H160   H     0.89120   0.24310   0.57490   0.01267  Uiso   1.00
H161   H     0.81890   0.25060   0.53100   0.01267  Uiso   1.00
H162   H     0.43950   0.07990   0.67670   0.01267  Uiso   1.00
H163   H     0.32760   0.09180   0.76380   0.01267  Uiso   1.00
H164   H     0.36770   0.14240   0.72400   0.01267  Uiso   1.00
H165   H     0.29160   0.09100   0.70530   0.01267  Uiso   1.00
H166   H     0.33860   0.99520   0.67060   0.01267  Uiso   1.00
H167   H     0.42760   0.97600   0.69420   0.01267  Uiso   1.00
H168   H     0.34490   0.98180   0.73150   0.01267  Uiso   1.00
H169   H     0.75030   0.14730   0.71680   0.01267  Uiso   1.00
H170   H     0.83830   0.21080   0.77340   0.01267  Uiso   1.00
H171   H     0.73590   0.21710   0.78270   0.01267  Uiso   1.00
H172   H     0.78650   0.18020   0.82280   0.01267  Uiso   1.00
H173   H     0.81690   0.06560   0.73180   0.01267  Uiso   1.00
H174   H     0.88360   0.11870   0.75670   0.01267  Uiso   1.00
H175   H     0.81870   0.07560   0.79350   0.01267  Uiso   1.00
H176   H     0.08110   0.87620   0.06500   0.01267  Uiso   1.00
H177   H     0.24250   0.75090   0.05170   0.01267  Uiso   1.00
H178   H     0.90500   0.64850   0.05740   0.01267  Uiso   1.00
H179   H     0.98210   0.70540   0.20210   0.01267  Uiso   1.00
H180   H     0.81000   0.58890   0.12250   0.01267  Uiso   1.00
H181   H     0.85090   0.53060   0.32670   0.01267  Uiso   1.00
H182   H     0.68320   0.65280   0.30700   0.01267  Uiso   1.00
H183   H     0.08030   0.62970   0.10310   0.01267  Uiso   1.00
H184   H     0.19660   0.59110   0.05430   0.01267  Uiso   1.00
H185   H     0.13250   0.62350   0.01840   0.01267  Uiso   1.00
H186   H     0.22940   0.65640   0.03360   0.01267  Uiso   1.00
H187   H     0.18510   0.68220   0.16870   0.01267  Uiso   1.00
H188   H     0.18930   0.61390   0.15860   0.01267  Uiso   1.00
H189   H     0.26160   0.66290   0.13240   0.01267  Uiso   1.00
H190   H     0.88870   0.78080   0.11990   0.01267  Uiso   1.00
H191   H     0.93990   0.88070   0.05290   0.01267  Uiso   1.00
H192   H     0.86530   0.82550   0.04110   0.01267  Uiso   1.00
H193   H     0.84690   0.87350   0.08330   0.01267  Uiso   1.00
H194   H     0.98180   0.89250   0.15080   0.01267  Uiso   1.00
H195   H     0.88860   0.86140   0.17370   0.01267  Uiso   1.00
H196   H     0.97820   0.83490   0.18610   0.01267  Uiso   1.00
H197   H     0.76380   0.70010   0.17740   0.01267  Uiso   1.00
H198   H     0.60450   0.66100   0.23460   0.01267  Uiso   1.00
H199   H     0.60520   0.71790   0.19860   0.01267  Uiso   1.00
H200   H     0.61980   0.65640   0.17320   0.01267  Uiso   1.00
H201   H     0.81800   0.76950   0.24670   0.01267  Uiso   1.00
H202   H     0.73480   0.79030   0.21760   0.01267  Uiso   1.00
H203   H     0.72150   0.75880   0.27310   0.01267  Uiso   1.00
H204   H     0.96650   0.55990   0.20210   0.01267  Uiso   1.00
H205   H     0.96650   0.46300   0.20890   0.01267  Uiso   1.00
H206   H     0.92970   0.46020   0.26740   0.01267  Uiso   1.00
H207   H     0.86460   0.46940   0.22000   0.01267  Uiso   1.00
H208   H     0.08450   0.54680   0.25440   0.01267  Uiso   1.00
H209   H     0.04590   0.60370   0.27520   0.01267  Uiso   1.00
H210   H     0.02380   0.54250   0.30550   0.01267  Uiso   1.00
H211   H     0.53590   0.17650   0.03790   0.01267  Uiso   1.00
H212   H     0.26340   0.13960   0.05240   0.01267  Uiso   1.00
H213   H     0.36530   0.37280   0.06180   0.01267  Uiso   1.00
H214   H     0.37330   0.44640   0.13440   0.01267  Uiso   1.00
H215   H     0.42270   0.29130   0.19330   0.01267  Uiso   1.00
H216   H     0.57010   0.47130   0.31090   0.01267  Uiso   1.00
H217   H     0.30960   0.41390   0.34500   0.01267  Uiso   1.00
H218   H     0.55440   0.32390   0.09420   0.01267  Uiso   1.00
H219   H     0.63600   0.25760   0.01760   0.01267  Uiso   1.00
H220   H     0.59240   0.31560   0.00620   0.01267  Uiso   1.00
H221   H     0.68220   0.31980   0.03950   0.01267  Uiso   1.00
H222   H     0.65630   0.23080   0.11240   0.01267  Uiso   1.00
H223   H     0.66980   0.29460   0.13880   0.01267  Uiso   1.00
H224   H     0.58680   0.24680   0.15500   0.01267  Uiso   1.00
H225   H     0.23780   0.27740   0.11720   0.01267  Uiso   1.00
H226   H     0.24780   0.18940   0.17430   0.01267  Uiso   1.00
H227   H     0.15660   0.21650   0.17670   0.01267  Uiso   1.00
H228   H     0.16210   0.15840   0.14330   0.01267  Uiso   1.00
H229   H     0.12670   0.19260   0.05830   0.01267  Uiso   1.00
H230   H     0.10880   0.25690   0.07490   0.01267  Uiso   1.00
H231   H     0.18110   0.24940   0.03100   0.01267  Uiso   1.00
H232   H     0.56050   0.42010   0.17670   0.01267  Uiso   1.00
H233   H     0.67240   0.40820   0.26380   0.01267  Uiso   1.00
H234   H     0.63230   0.35760   0.22400   0.01267  Uiso   1.00
H235   H     0.70840   0.40900   0.20530   0.01267  Uiso   1.00
H236   H     0.66140   0.50480   0.17060   0.01267  Uiso   1.00
H237   H     0.57240   0.52400   0.19420   0.01267  Uiso   1.00
H238   H     0.65510   0.51820   0.23150   0.01267  Uiso   1.00
H239   H     0.24970   0.35270   0.21680   0.01267  Uiso   1.00
H240   H     0.16170   0.28920   0.27340   0.01267  Uiso   1.00
H241   H     0.26410   0.28290   0.28270   0.01267  Uiso   1.00
H242   H     0.21350   0.31980   0.32280   0.01267  Uiso   1.00
H243   H     0.18310   0.43440   0.23180   0.01267  Uiso   1.00
H244   H     0.11640   0.38130   0.25670   0.01267  Uiso   1.00
H245   H     0.18130   0.42440   0.29350   0.01267  Uiso   1.00
H246   H     0.91890   0.62380   0.56500   0.01267  Uiso   1.00
H247   H     0.75750   0.74910   0.55170   0.01267  Uiso   1.00
H248   H     0.09500   0.85150   0.55740   0.01267  Uiso   1.00
H249   H     0.01790   0.79460   0.70210   0.01267  Uiso   1.00
H250   H     0.19000   0.91110   0.62250   0.01267  Uiso   1.00
H251   H     0.14910   0.96940   0.82670   0.01267  Uiso   1.00
H252   H     0.31680   0.84720   0.80700   0.01267  Uiso   1.00
H253   H     0.91970   0.87030   0.60310   0.01267  Uiso   1.00
H254   H     0.80340   0.90890   0.55430   0.01267  Uiso   1.00
H255   H     0.86750   0.87650   0.51840   0.01267  Uiso   1.00
H256   H     0.77060   0.84360   0.53360   0.01267  Uiso   1.00
H257   H     0.81490   0.81780   0.66870   0.01267  Uiso   1.00
H258   H     0.81070   0.88610   0.65860   0.01267  Uiso   1.00
H259   H     0.73840   0.83710   0.63240   0.01267  Uiso   1.00
H260   H     0.11130   0.71920   0.61990   0.01267  Uiso   1.00
H261   H     0.06010   0.61930   0.55290   0.01267  Uiso   1.00
H262   H     0.13470   0.67450   0.54110   0.01267  Uiso   1.00
H263   H     0.15310   0.62650   0.58330   0.01267  Uiso   1.00
H264   H     0.01820   0.60750   0.65080   0.01267  Uiso   1.00
H265   H     0.11140   0.63860   0.67370   0.01267  Uiso   1.00
H266   H     0.02180   0.66510   0.68610   0.01267  Uiso   1.00
H267   H     0.23620   0.79990   0.67740   0.01267  Uiso   1.00
H268   H     0.39550   0.83900   0.73460   0.01267  Uiso   1.00
H269   H     0.39480   0.78210   0.69860   0.01267  Uiso   1.00
H270   H     0.38020   0.84360   0.67320   0.01267  Uiso   1.00
H271   H     0.18200   0.73050   0.74670   0.01267  Uiso   1.00
H272   H     0.26520   0.70970   0.71760   0.01267  Uiso   1.00
H273   H     0.27850   0.74120   0.77310   0.01267  Uiso   1.00
H274   H     0.03350   0.94010   0.70210   0.01267  Uiso   1.00
H275   H     0.03350   0.03700   0.70890   0.01267  Uiso   1.00
H276   H     0.07030   0.03980   0.76740   0.01267  Uiso   1.00
H277   H     0.13540   0.03060   0.72000   0.01267  Uiso   1.00
H278   H     0.91550   0.95320   0.75440   0.01267  Uiso   1.00
H279   H     0.95410   0.89630   0.77520   0.01267  Uiso   1.00
H280   H     0.97620   0.95750   0.80550   0.01267  Uiso   1.00
C1     C     0.40100   0.58710   0.48320   0.01267  Uiso   1.00
C2     C     0.39930   0.64850   0.45840   0.01267  Uiso   1.00
C3     C     0.48110   0.68760   0.45100   0.01267  Uiso   1.00
C4     C     0.47960   0.74370   0.42640   0.01267  Uiso   1.00
C5     C     0.39480   0.75690   0.40990   0.01267  Uiso   1.00
C6     C     0.31410   0.71930   0.41580   0.01267  Uiso   1.00
C7     C     0.31730   0.66530   0.44150   0.01267  Uiso   1.00
C8     C     0.37760   0.86580   0.40280   0.01267  Uiso   1.00
C9     C     0.38210   0.90650   0.36280   0.01267  Uiso   1.00
C10    C     0.40930   0.82050   0.33040   0.01267  Uiso   1.00
C11    C     0.41620   0.90180   0.26420   0.01267  Uiso   1.00
C12    C     0.50340   0.93050   0.25150   0.01267  Uiso   1.00
C13    C     0.51350   0.95160   0.19980   0.01267  Uiso   1.00
C14    C     0.44300   0.94470   0.16330   0.01267  Uiso   1.00
C15    C     0.35740   0.91720   0.17910   0.01267  Uiso   1.00
C16    C     0.34140   0.89470   0.22980   0.01267  Uiso   1.00
C17    C     0.45970   0.96750   0.10640   0.01267  Uiso   1.00
C18    C     0.56930   0.78490   0.41730   0.01267  Uiso   1.00
C19    C     0.62520   0.79540   0.46820   0.01267  Uiso   1.00
C20    C     0.62570   0.76220   0.37380   0.01267  Uiso   1.00
C21    C     0.22520   0.73570   0.39510   0.01267  Uiso   1.00
C22    C     0.19500   0.69620   0.34540   0.01267  Uiso   1.00
C23    C     0.15430   0.73350   0.43630   0.01267  Uiso   1.00
C24    C     0.58410   0.93650   0.28910   0.01267  Uiso   1.00
C25    C     0.65580   0.89950   0.27250   0.01267  Uiso   1.00
C26    C     0.62170   0.00190   0.29910   0.01267  Uiso   1.00
C27    C     0.24730   0.86460   0.24580   0.01267  Uiso   1.00
C28    C     0.21910   0.80920   0.21390   0.01267  Uiso   1.00
C29    C     0.17560   0.90480   0.24050   0.01267  Uiso   1.00
C30    C     0.75850   0.13540   0.97350   0.01267  Uiso   1.00
C31    C     0.82890   0.17930   0.94690   0.01267  Uiso   1.00
C32    C     0.91010   0.16350   0.93030   0.01267  Uiso   1.00
C33    C     0.98010   0.20250   0.90690   0.01267  Uiso   1.00
C34    C     0.95950   0.26150   0.89980   0.01267  Uiso   1.00
C35    C     0.88020   0.28140   0.91400   0.01267  Uiso   1.00
C36    C     0.81290   0.23800   0.93820   0.01267  Uiso   1.00
C37    C     0.09160   0.34740   0.90590   0.01267  Uiso   1.00
C38    C     0.04880   0.31570   0.82570   0.01267  Uiso   1.00
C39    C     0.14350   0.37990   0.86990   0.01267  Uiso   1.00
C40    C     0.16100   0.37910   0.77190   0.01267  Uiso   1.00
C41    C     0.12660   0.42490   0.74290   0.01267  Uiso   1.00
C42    C     0.16870   0.43940   0.69380   0.01267  Uiso   1.00
C43    C     0.23960   0.41020   0.67450   0.01267  Uiso   1.00
C44    C     0.26980   0.36650   0.70550   0.01267  Uiso   1.00
C45    C     0.23190   0.35070   0.75490   0.01267  Uiso   1.00
C46    C     0.27980   0.42560   0.62010   0.01267  Uiso   1.00
C47    C     0.86160   0.34540   0.90480   0.01267  Uiso   1.00
C48    C     0.82210   0.37100   0.95420   0.01267  Uiso   1.00
C49    C     0.80090   0.34670   0.85690   0.01267  Uiso   1.00
C50    C     0.06780   0.18330   0.88830   0.01267  Uiso   1.00
C51    C     0.10760   0.14760   0.93180   0.01267  Uiso   1.00
C52    C     0.05350   0.14530   0.84020   0.01267  Uiso   1.00
C53    C     0.26640   0.30230   0.78790   0.01267  Uiso   1.00
C54    C     0.36870   0.31820   0.79610   0.01267  Uiso   1.00
C55    C     0.24610   0.23990   0.75990   0.01267  Uiso   1.00
C56    C     0.04890   0.45540   0.76210   0.01267  Uiso   1.00
C57    C     0.07430   0.52160   0.76690   0.01267  Uiso   1.00
C58    C     0.96640   0.43920   0.72880   0.01267  Uiso   1.00
C59    C     0.59900   0.91290   0.98320   0.01267  Uiso   1.00
C60    C     0.60070   0.85150   0.95840   0.01267  Uiso   1.00
C61    C     0.51890   0.81240   0.95100   0.01267  Uiso   1.00
C62    C     0.52040   0.75630   0.92640   0.01267  Uiso   1.00
C63    C     0.60520   0.74310   0.90990   0.01267  Uiso   1.00
C64    C     0.68590   0.78070   0.91580   0.01267  Uiso   1.00
C65    C     0.68270   0.83470   0.94150   0.01267  Uiso   1.00
C66    C     0.62240   0.63420   0.90280   0.01267  Uiso   1.00
C67    C     0.61790   0.59350   0.86280   0.01267  Uiso   1.00
C68    C     0.59070   0.67950   0.83040   0.01267  Uiso   1.00
C69    C     0.58380   0.59820   0.76420   0.01267  Uiso   1.00
C70    C     0.49660   0.56950   0.75150   0.01267  Uiso   1.00
C71    C     0.48650   0.54840   0.69980   0.01267  Uiso   1.00
C72    C     0.55700   0.55530   0.66330   0.01267  Uiso   1.00
C73    C     0.64260   0.58280   0.67910   0.01267  Uiso   1.00
C74    C     0.65860   0.60530   0.72980   0.01267  Uiso   1.00
C75    C     0.54030   0.53250   0.60640   0.01267  Uiso   1.00
C76    C     0.43070   0.71510   0.91730   0.01267  Uiso   1.00
C77    C     0.37480   0.70460   0.96820   0.01267  Uiso   1.00
C78    C     0.37430   0.73780   0.87380   0.01267  Uiso   1.00
C79    C     0.77480   0.76430   0.89510   0.01267  Uiso   1.00
C80    C     0.80500   0.80380   0.84540   0.01267  Uiso   1.00
C81    C     0.84570   0.76650   0.93630   0.01267  Uiso   1.00
C82    C     0.41590   0.56350   0.78910   0.01267  Uiso   1.00
C83    C     0.34420   0.60050   0.77250   0.01267  Uiso   1.00
C84    C     0.37830   0.49810   0.79910   0.01267  Uiso   1.00
C85    C     0.75270   0.63540   0.74580   0.01267  Uiso   1.00
C86    C     0.78090   0.69080   0.71390   0.01267  Uiso   1.00
C87    C     0.82440   0.59520   0.74050   0.01267  Uiso   1.00
C88    C     0.24150   0.36460   0.47350   0.01267  Uiso   1.00
C89    C     0.17110   0.32070   0.44690   0.01267  Uiso   1.00
C90    C     0.08990   0.33650   0.43030   0.01267  Uiso   1.00
C91    C     0.01990   0.29750   0.40690   0.01267  Uiso   1.00
C92    C     0.04050   0.23850   0.39980   0.01267  Uiso   1.00
C93    C     0.11980   0.21860   0.41400   0.01267  Uiso   1.00
C94    C     0.18710   0.26200   0.43820   0.01267  Uiso   1.00
C95    C     0.90840   0.15260   0.40590   0.01267  Uiso   1.00
C96    C     0.95120   0.18430   0.32570   0.01267  Uiso   1.00
C97    C     0.85650   0.12010   0.36990   0.01267  Uiso   1.00
C98    C     0.83900   0.12090   0.27190   0.01267  Uiso   1.00
C99    C     0.87340   0.07510   0.24290   0.01267  Uiso   1.00
C100   C     0.83130   0.06060   0.19380   0.01267  Uiso   1.00
C101   C     0.76040   0.08980   0.17450   0.01267  Uiso   1.00
C102   C     0.73020   0.13350   0.20550   0.01267  Uiso   1.00
C103   C     0.76810   0.14930   0.25490   0.01267  Uiso   1.00
C104   C     0.72020   0.07440   0.12010   0.01267  Uiso   1.00
C105   C     0.13840   0.15460   0.40480   0.01267  Uiso   1.00
C106   C     0.17790   0.12900   0.45420   0.01267  Uiso   1.00
C107   C     0.19910   0.15330   0.35690   0.01267  Uiso   1.00
C108   C     0.93220   0.31670   0.38830   0.01267  Uiso   1.00
C109   C     0.89240   0.35240   0.43180   0.01267  Uiso   1.00
C110   C     0.94650   0.35470   0.34020   0.01267  Uiso   1.00
C111   C     0.73360   0.19770   0.28790   0.01267  Uiso   1.00
C112   C     0.63130   0.18180   0.29610   0.01267  Uiso   1.00
C113   C     0.75390   0.26010   0.25990   0.01267  Uiso   1.00
C114   C     0.95110   0.04460   0.26210   0.01267  Uiso   1.00
C115   C     0.92570   0.97840   0.26690   0.01267  Uiso   1.00
C116   C     0.03360   0.06080   0.22880   0.01267  Uiso   1.00
C117   C     0.59900   0.41290   0.51680   0.01267  Uiso   1.00
C118   C     0.60070   0.35150   0.54160   0.01267  Uiso   1.00
C119   C     0.51890   0.31240   0.54900   0.01267  Uiso   1.00
C120   C     0.52040   0.25630   0.57360   0.01267  Uiso   1.00
C121   C     0.60520   0.24310   0.59010   0.01267  Uiso   1.00
C122   C     0.68590   0.28070   0.58420   0.01267  Uiso   1.00
C123   C     0.68270   0.33470   0.55850   0.01267  Uiso   1.00
C124   C     0.62240   0.13420   0.59720   0.01267  Uiso   1.00
C125   C     0.61790   0.09350   0.63720   0.01267  Uiso   1.00
C126   C     0.59070   0.17950   0.66960   0.01267  Uiso   1.00
C127   C     0.58380   0.09820   0.73580   0.01267  Uiso   1.00
C128   C     0.49660   0.06950   0.74850   0.01267  Uiso   1.00
C129   C     0.48650   0.04840   0.80020   0.01267  Uiso   1.00
C130   C     0.55700   0.05530   0.83670   0.01267  Uiso   1.00
C131   C     0.64260   0.08280   0.82090   0.01267  Uiso   1.00
C132   C     0.65860   0.10530   0.77020   0.01267  Uiso   1.00
C133   C     0.54030   0.03250   0.89360   0.01267  Uiso   1.00
C134   C     0.43070   0.21510   0.58270   0.01267  Uiso   1.00
C135   C     0.37480   0.20460   0.53180   0.01267  Uiso   1.00
C136   C     0.37430   0.23780   0.62620   0.01267  Uiso   1.00
C137   C     0.77480   0.26430   0.60490   0.01267  Uiso   1.00
C138   C     0.80500   0.30380   0.65460   0.01267  Uiso   1.00
C139   C     0.84570   0.26650   0.56370   0.01267  Uiso   1.00
C140   C     0.41590   0.06350   0.71090   0.01267  Uiso   1.00
C141   C     0.34420   0.10050   0.72750   0.01267  Uiso   1.00
C142   C     0.37830   0.99810   0.70090   0.01267  Uiso   1.00
C143   C     0.75270   0.13540   0.75420   0.01267  Uiso   1.00
C144   C     0.78090   0.19080   0.78610   0.01267  Uiso   1.00
C145   C     0.82440   0.09520   0.75950   0.01267  Uiso   1.00
C146   C     0.24150   0.86460   0.02650   0.01267  Uiso   1.00
C147   C     0.17110   0.82070   0.05310   0.01267  Uiso   1.00
C148   C     0.08990   0.83650   0.06970   0.01267  Uiso   1.00
C149   C     0.01990   0.79750   0.09310   0.01267  Uiso   1.00
C150   C     0.04050   0.73850   0.10020   0.01267  Uiso   1.00
C151   C     0.11980   0.71860   0.08600   0.01267  Uiso   1.00
C152   C     0.18710   0.76200   0.06180   0.01267  Uiso   1.00
C153   C     0.90840   0.65260   0.09410   0.01267  Uiso   1.00
C154   C     0.95120   0.68430   0.17430   0.01267  Uiso   1.00
C155   C     0.85650   0.62010   0.13010   0.01267  Uiso   1.00
C156   C     0.83900   0.62090   0.22810   0.01267  Uiso   1.00
C157   C     0.87340   0.57510   0.25710   0.01267  Uiso   1.00
C158   C     0.83130   0.56060   0.30620   0.01267  Uiso   1.00
C159   C     0.76040   0.58980   0.32550   0.01267  Uiso   1.00
C160   C     0.73020   0.63350   0.29450   0.01267  Uiso   1.00
C161   C     0.76810   0.64930   0.24510   0.01267  Uiso   1.00
C162   C     0.72020   0.57440   0.37990   0.01267  Uiso   1.00
C163   C     0.13840   0.65460   0.09520   0.01267  Uiso   1.00
C164   C     0.17790   0.62900   0.04580   0.01267  Uiso   1.00
C165   C     0.19910   0.65330   0.14310   0.01267  Uiso   1.00
C166   C     0.93220   0.81670   0.11170   0.01267  Uiso   1.00
C167   C     0.89240   0.85240   0.06820   0.01267  Uiso   1.00
C168   C     0.94650   0.85470   0.15980   0.01267  Uiso   1.00
C169   C     0.73360   0.69770   0.21210   0.01267  Uiso   1.00
C170   C     0.63130   0.68180   0.20390   0.01267  Uiso   1.00
C171   C     0.75390   0.76010   0.24010   0.01267  Uiso   1.00
C172   C     0.95110   0.54460   0.23790   0.01267  Uiso   1.00
C173   C     0.92570   0.47840   0.23310   0.01267  Uiso   1.00
C174   C     0.03360   0.56080   0.27120   0.01267  Uiso   1.00
C175   C     0.40100   0.08710   0.01680   0.01267  Uiso   1.00
C176   C     0.39930   0.14850   0.04160   0.01267  Uiso   1.00
C177   C     0.48110   0.18760   0.04900   0.01267  Uiso   1.00
C178   C     0.47960   0.24370   0.07360   0.01267  Uiso   1.00
C179   C     0.39480   0.25690   0.09010   0.01267  Uiso   1.00
C180   C     0.31410   0.21930   0.08420   0.01267  Uiso   1.00
C181   C     0.31730   0.16530   0.05850   0.01267  Uiso   1.00
C182   C     0.37760   0.36580   0.09720   0.01267  Uiso   1.00
C183   C     0.38210   0.40650   0.13720   0.01267  Uiso   1.00
C184   C     0.40930   0.32050   0.16960   0.01267  Uiso   1.00
C185   C     0.41620   0.40180   0.23580   0.01267  Uiso   1.00
C186   C     0.50340   0.43050   0.24850   0.01267  Uiso   1.00
C187   C     0.51350   0.45160   0.30020   0.01267  Uiso   1.00
C188   C     0.44300   0.44470   0.33670   0.01267  Uiso   1.00
C189   C     0.35740   0.41720   0.32090   0.01267  Uiso   1.00
C190   C     0.34140   0.39470   0.27020   0.01267  Uiso   1.00
C191   C     0.45970   0.46750   0.39360   0.01267  Uiso   1.00
C192   C     0.56930   0.28490   0.08270   0.01267  Uiso   1.00
C193   C     0.62520   0.29540   0.03180   0.01267  Uiso   1.00
C194   C     0.62570   0.26220   0.12620   0.01267  Uiso   1.00
C195   C     0.22520   0.23570   0.10490   0.01267  Uiso   1.00
C196   C     0.19500   0.19620   0.15460   0.01267  Uiso   1.00
C197   C     0.15430   0.23350   0.06370   0.01267  Uiso   1.00
C198   C     0.58410   0.43650   0.21090   0.01267  Uiso   1.00
C199   C     0.65580   0.39950   0.22750   0.01267  Uiso   1.00
C200   C     0.62170   0.50190   0.20090   0.01267  Uiso   1.00
C201   C     0.24730   0.36460   0.25420   0.01267  Uiso   1.00
C202   C     0.21910   0.30920   0.28610   0.01267  Uiso   1.00
C203   C     0.17560   0.40480   0.25950   0.01267  Uiso   1.00
C204   C     0.75850   0.63540   0.52650   0.01267  Uiso   1.00
C205   C     0.82890   0.67930   0.55310   0.01267  Uiso   1.00
C206   C     0.91010   0.66350   0.56970   0.01267  Uiso   1.00
C207   C     0.98010   0.70250   0.59310   0.01267  Uiso   1.00
C208   C     0.95950   0.76150   0.60020   0.01267  Uiso   1.00
C209   C     0.88020   0.78140   0.58600   0.01267  Uiso   1.00
C210   C     0.81290   0.73800   0.56180   0.01267  Uiso   1.00
C211   C     0.09160   0.84740   0.59410   0.01267  Uiso   1.00
C212   C     0.04880   0.81570   0.67430   0.01267  Uiso   1.00
C213   C     0.14350   0.87990   0.63010   0.01267  Uiso   1.00
C214   C     0.16100   0.87910   0.72810   0.01267  Uiso   1.00
C215   C     0.12660   0.92490   0.75710   0.01267  Uiso   1.00
C216   C     0.16870   0.93940   0.80620   0.01267  Uiso   1.00
C217   C     0.23960   0.91020   0.82550   0.01267  Uiso   1.00
C218   C     0.26980   0.86650   0.79450   0.01267  Uiso   1.00
C219   C     0.23190   0.85070   0.74510   0.01267  Uiso   1.00
C220   C     0.27980   0.92560   0.87990   0.01267  Uiso   1.00
C221   C     0.86160   0.84540   0.59520   0.01267  Uiso   1.00
C222   C     0.82210   0.87100   0.54580   0.01267  Uiso   1.00
C223   C     0.80090   0.84670   0.64310   0.01267  Uiso   1.00
C224   C     0.06780   0.68330   0.61170   0.01267  Uiso   1.00
C225   C     0.10760   0.64760   0.56820   0.01267  Uiso   1.00
C226   C     0.05350   0.64530   0.65980   0.01267  Uiso   1.00
C227   C     0.26640   0.80230   0.71210   0.01267  Uiso   1.00
C228   C     0.36870   0.81820   0.70390   0.01267  Uiso   1.00
C229   C     0.24610   0.73990   0.74010   0.01267  Uiso   1.00
C230   C     0.04890   0.95540   0.73790   0.01267  Uiso   1.00
C231   C     0.07430   0.02160   0.73310   0.01267  Uiso   1.00
C232   C     0.96640   0.93920   0.77120   0.01267  Uiso   1.00
N1     N     0.39450   0.81270   0.38160   0.01267  Uiso   1.00
N2     N     0.40210   0.87740   0.31780   0.01267  Uiso   1.00
N3     N     0.11780   0.36030   0.82100   0.01267  Uiso   1.00
N4     N     0.03180   0.30650   0.87750   0.01267  Uiso   1.00
N5     N     0.60550   0.68730   0.88160   0.01267  Uiso   1.00
N6     N     0.59790   0.62260   0.81780   0.01267  Uiso   1.00
N7     N     0.88220   0.13970   0.32100   0.01267  Uiso   1.00
N8     N     0.96820   0.19350   0.37750   0.01267  Uiso   1.00
N9     N     0.60550   0.18730   0.61840   0.01267  Uiso   1.00
N10    N     0.59790   0.12260   0.68220   0.01267  Uiso   1.00
N11    N     0.88220   0.63970   0.17900   0.01267  Uiso   1.00
N12    N     0.96820   0.69350   0.12250   0.01267  Uiso   1.00
N13    N     0.39450   0.31270   0.11840   0.01267  Uiso   1.00
N14    N     0.40210   0.37740   0.18220   0.01267  Uiso   1.00
N15    N     0.11780   0.86030   0.67900   0.01267  Uiso   1.00
N16    N     0.03180   0.80650   0.62250   0.01267  Uiso   1.00
O1     O     0.32580   0.55820   0.49700   0.01267  Uiso   1.00
O2     O     0.47520   0.56820   0.48913   0.01267  Uiso   1.00
O3     O     0.39180   0.96130   0.07559   0.01267  Uiso   1.00
O4     O     0.54060   0.98950   0.09525   0.01267  Uiso   1.00
O5     O     0.68280   0.14950   0.98590   0.01267  Uiso   1.00
O6     O     0.77990   0.08410   0.98280   0.01267  Uiso   1.00
O7     O     0.33550   0.39350   0.60250   0.01267  Uiso   1.00
O8     O     0.25850   0.47040   0.59540   0.01267  Uiso   1.00
O9     O     0.67420   0.94180   0.99700   0.01267  Uiso   1.00
O10    O     0.52480   0.93180   0.98913   0.01267  Uiso   1.00
O11    O     0.60820   0.53870   0.57559   0.01267  Uiso   1.00
O12    O     0.45940   0.51050   0.59525   0.01267  Uiso   1.00
O13    O     0.31720   0.35050   0.48590   0.01267  Uiso   1.00
O14    O     0.22010   0.41590   0.48280   0.01267  Uiso   1.00
O15    O     0.66450   0.10650   0.10250   0.01267  Uiso   1.00
O16    O     0.74150   0.02960   0.09540   0.01267  Uiso   1.00
O17    O     0.67420   0.44180   0.50300   0.01267  Uiso   1.00
O18    O     0.52480   0.43180   0.51087   0.01267  Uiso   1.00
O19    O     0.60820   0.03870   0.92441   0.01267  Uiso   1.00
O20    O     0.45940   0.01050   0.90475   0.01267  Uiso   1.00
O21    O     0.31720   0.85050   0.01410   0.01267  Uiso   1.00
O22    O     0.22010   0.91590   0.01720   0.01267  Uiso   1.00
O23    O     0.66450   0.60650   0.39750   0.01267  Uiso   1.00
O24    O     0.74150   0.52960   0.40460   0.01267  Uiso   1.00
O25    O     0.32580   0.05820   0.00300   0.01267  Uiso   1.00
O26    O     0.47520   0.06820   0.01087   0.01267  Uiso   1.00
O27    O     0.39180   0.46130   0.42441   0.01267  Uiso   1.00
O28    O     0.54060   0.48950   0.40475   0.01267  Uiso   1.00
O29    O     0.68280   0.64950   0.51410   0.01267  Uiso   1.00
O30    O     0.77990   0.58410   0.51720   0.01267  Uiso   1.00
O31    O     0.33550   0.89350   0.89750   0.01267  Uiso   1.00
O32    O     0.25850   0.97040   0.90460   0.01267  Uiso   1.00
N17    N     0.44220   0.71490   0.59530   0.01267  Uiso   1.00
O33    O     0.37770   0.65760   0.61740   0.01267  Uiso   1.00
O34    O     0.53690   0.72490   0.60430   0.01267  Uiso   1.00
N18    N     0.55780   0.78510   0.09530   0.01267  Uiso   1.00
O35    O     0.62230   0.84240   0.11740   0.01267  Uiso   1.00
O36    O     0.46310   0.77510   0.10430   0.01267  Uiso   1.00
N19    N     0.55780   0.28510   0.40470   0.01267  Uiso   1.00
O37    O     0.62230   0.34240   0.38260   0.01267  Uiso   1.00
O38    O     0.46310   0.27510   0.39570   0.01267  Uiso   1.00
N20    N     0.44220   0.21490   0.90470   0.01267  Uiso   1.00
O39    O     0.37770   0.15760   0.88260   0.01267  Uiso   1.00
O40    O     0.53690   0.22490   0.89570   0.01267  Uiso   1.00
