data_MANLAP_ion_b
_audit_creation_date              2014-07-02
_audit_creation_method            'Materials Studio'
_symmetry_space_group_name_H-M    'P1'
_symmetry_Int_Tables_number       1
_symmetry_cell_setting            triclinic
loop_
_symmetry_equiv_pos_as_xyz
  x,y,z
_cell_length_a                    13.5835
_cell_length_b                    13.5835
_cell_length_c                    16.5010
_cell_angle_alpha                 119.8021
_cell_angle_beta                  119.8021
_cell_angle_gamma                 77.6220
loop_
_atom_site_label
_atom_site_type_symbol
_atom_site_fract_x
_atom_site_fract_y
_atom_site_fract_z
_atom_site_U_iso_or_equiv
_atom_site_adp_type
_atom_site_occupancy
N1     N     0.11370   0.12270   0.86670   0.00000  Uiso   1.00
N2     N     0.10950   0.82170   0.83490   0.00000  Uiso   1.00
C3     C     0.04030   0.19690   0.88850   0.00000  Uiso   1.00
H4     H     0.96780   0.16920   0.86550   0.00000  Uiso   1.00
C5     C     0.06200   0.31600   0.94430   0.00000  Uiso   1.00
H6     H     0.00550   0.36630   0.95780   0.00000  Uiso   1.00
C7     C     0.21780   0.16420   0.90480   0.00000  Uiso   1.00
H8     H     0.27420   0.11240   0.89300   0.00000  Uiso   1.00
C9     C     0.24580   0.27980   0.96060   0.00000  Uiso   1.00
H10    H     0.32050   0.30510   0.98670   0.00000  Uiso   1.00
C11    C     0.16680   0.35720   0.97830   0.00000  Uiso   1.00
C12    C     0.19320   0.48260   0.03200   0.00000  Uiso   1.00
C13    C     0.16270   0.53730   0.97090   0.00000  Uiso   1.00
C14    C     0.19030   0.65270   0.02010   0.00000  Uiso   1.00
C15    C     0.24820   0.71400   0.13000   0.00000  Uiso   1.00
C16    C     0.27840   0.65860   0.19120   0.00000  Uiso   1.00
C17    C     0.25110   0.54210   0.14130   0.00000  Uiso   1.00
C18    C     0.10030   0.47250   0.85080   0.00000  Uiso   1.00
H19    H     0.11420   0.39140   0.82790   0.00000  Uiso   1.00
H20    H     0.12800   0.50080   0.82120   0.00000  Uiso   1.00
H21    H     0.01860   0.48380   0.82640   0.00000  Uiso   1.00
C22    C     0.28590   0.47930   0.20550   0.00000  Uiso   1.00
H23    H     0.22370   0.42670   0.17570   0.00000  Uiso   1.00
H24    H     0.30300   0.53400   0.27840   0.00000  Uiso   1.00
H25    H     0.35350   0.43650   0.20400   0.00000  Uiso   1.00
C26    C     0.27850   0.83830   0.18010   0.00000  Uiso   1.00
H27    H     0.30580   0.87240   0.25610   0.00000  Uiso   1.00
H28    H     0.21110   0.87690   0.15000   0.00000  Uiso   1.00
H29    H     0.33810   0.84650   0.16660   0.00000  Uiso   1.00
C30    C     0.16050   0.71290   0.95500   0.00000  Uiso   1.00
C31    C     0.05350   0.74630   0.90960   0.00000  Uiso   1.00
H32    H     0.99450   0.73070   0.91720   0.00000  Uiso   1.00
C33    C     0.03070   0.80350   0.85160   0.00000  Uiso   1.00
H34    H     0.95680   0.83020   0.82340   0.00000  Uiso   1.00
C35    C     0.24080   0.73140   0.93630   0.00000  Uiso   1.00
H36    H     0.31590   0.70710   0.96460   0.00000  Uiso   1.00
C37    C     0.21180   0.78580   0.87580   0.00000  Uiso   1.00
H38    H     0.26820   0.79780   0.86320   0.00000  Uiso   1.00
N57    N     0.87730   0.88630   0.63330   0.00000  Uiso   1.00
N58    N     0.17830   0.89050   0.66510   0.00000  Uiso   1.00
C59    C     0.80310   0.95970   0.61150   0.00000  Uiso   1.00
H60    H     0.83080   0.03220   0.63450   0.00000  Uiso   1.00
C61    C     0.68400   0.93800   0.55570   0.00000  Uiso   1.00
H62    H     0.63370   0.99450   0.54220   0.00000  Uiso   1.00
C63    C     0.83580   0.78220   0.59520   0.00000  Uiso   1.00
H64    H     0.88760   0.72580   0.60700   0.00000  Uiso   1.00
C65    C     0.72020   0.75420   0.53940   0.00000  Uiso   1.00
H66    H     0.69490   0.67950   0.51330   0.00000  Uiso   1.00
C67    C     0.64280   0.83320   0.52170   0.00000  Uiso   1.00
C68    C     0.51740   0.80680   0.46800   0.00000  Uiso   1.00
C69    C     0.46270   0.83730   0.52910   0.00000  Uiso   1.00
C70    C     0.34730   0.80970   0.47990   0.00000  Uiso   1.00
C71    C     0.28600   0.75180   0.37000   0.00000  Uiso   1.00
C72    C     0.34140   0.72160   0.30880   0.00000  Uiso   1.00
C73    C     0.45790   0.74890   0.35870   0.00000  Uiso   1.00
C74    C     0.52750   0.89970   0.64920   0.00000  Uiso   1.00
H75    H     0.60860   0.88580   0.67210   0.00000  Uiso   1.00
H76    H     0.49920   0.87200   0.67880   0.00000  Uiso   1.00
H77    H     0.51620   0.98140   0.67360   0.00000  Uiso   1.00
C78    C     0.52070   0.71410   0.29450   0.00000  Uiso   1.00
H79    H     0.57330   0.77630   0.32430   0.00000  Uiso   1.00
H80    H     0.46600   0.69700   0.22160   0.00000  Uiso   1.00
H81    H     0.56350   0.64650   0.29600   0.00000  Uiso   1.00
C82    C     0.16170   0.72150   0.31990   0.00000  Uiso   1.00
H83    H     0.12760   0.69420   0.24390   0.00000  Uiso   1.00
H84    H     0.12310   0.78890   0.35000   0.00000  Uiso   1.00
H85    H     0.15350   0.66190   0.33340   0.00000  Uiso   1.00
C86    C     0.28710   0.83950   0.54500   0.00000  Uiso   1.00
C87    C     0.25370   0.94650   0.59040   0.00000  Uiso   1.00
H88    H     0.26930   0.00550   0.58280   0.00000  Uiso   1.00
C89    C     0.19650   0.96930   0.64840   0.00000  Uiso   1.00
H90    H     0.16980   0.04320   0.67660   0.00000  Uiso   1.00
C91    C     0.26860   0.75920   0.56370   0.00000  Uiso   1.00
H92    H     0.29290   0.68410   0.53540   0.00000  Uiso   1.00
C93    C     0.21420   0.78820   0.62420   0.00000  Uiso   1.00
H94    H     0.20220   0.73180   0.63680   0.00000  Uiso   1.00
N113   N     0.88630   0.87730   0.13330   0.00000  Uiso   1.00
N114   N     0.89050   0.17830   0.16510   0.00000  Uiso   1.00
C115   C     0.95970   0.80310   0.11150   0.00000  Uiso   1.00
H116   H     0.03220   0.83080   0.13450   0.00000  Uiso   1.00
C117   C     0.93800   0.68400   0.05570   0.00000  Uiso   1.00
H118   H     0.99450   0.63370   0.04220   0.00000  Uiso   1.00
C119   C     0.78220   0.83580   0.09520   0.00000  Uiso   1.00
H120   H     0.72580   0.88760   0.10700   0.00000  Uiso   1.00
C121   C     0.75420   0.72020   0.03940   0.00000  Uiso   1.00
H122   H     0.67950   0.69490   0.01330   0.00000  Uiso   1.00
C123   C     0.83320   0.64280   0.02170   0.00000  Uiso   1.00
C124   C     0.80680   0.51740   0.96800   0.00000  Uiso   1.00
C125   C     0.83730   0.46270   0.02910   0.00000  Uiso   1.00
C126   C     0.80970   0.34730   0.97990   0.00000  Uiso   1.00
C127   C     0.75180   0.28600   0.87000   0.00000  Uiso   1.00
C128   C     0.72160   0.34140   0.80880   0.00000  Uiso   1.00
C129   C     0.74890   0.45790   0.85870   0.00000  Uiso   1.00
C130   C     0.89970   0.52750   0.14920   0.00000  Uiso   1.00
H131   H     0.88580   0.60860   0.17210   0.00000  Uiso   1.00
H132   H     0.87200   0.49920   0.17880   0.00000  Uiso   1.00
H133   H     0.98140   0.51620   0.17360   0.00000  Uiso   1.00
C134   C     0.71410   0.52070   0.79450   0.00000  Uiso   1.00
H135   H     0.77630   0.57330   0.82430   0.00000  Uiso   1.00
H136   H     0.69700   0.46600   0.72160   0.00000  Uiso   1.00
H137   H     0.64650   0.56350   0.79600   0.00000  Uiso   1.00
C138   C     0.72150   0.16170   0.81990   0.00000  Uiso   1.00
H139   H     0.69420   0.12760   0.74390   0.00000  Uiso   1.00
H140   H     0.78890   0.12310   0.85000   0.00000  Uiso   1.00
H141   H     0.66190   0.15350   0.83340   0.00000  Uiso   1.00
C142   C     0.83950   0.28710   0.04500   0.00000  Uiso   1.00
C143   C     0.94650   0.25370   0.09040   0.00000  Uiso   1.00
H144   H     0.00550   0.26930   0.08280   0.00000  Uiso   1.00
C145   C     0.96930   0.19650   0.14840   0.00000  Uiso   1.00
H146   H     0.04320   0.16980   0.17660   0.00000  Uiso   1.00
C147   C     0.75920   0.26860   0.06370   0.00000  Uiso   1.00
H148   H     0.68410   0.29290   0.03540   0.00000  Uiso   1.00
C149   C     0.78820   0.21420   0.12420   0.00000  Uiso   1.00
H150   H     0.73180   0.20220   0.13680   0.00000  Uiso   1.00
N169   N     0.12270   0.11370   0.36670   0.00000  Uiso   1.00
N170   N     0.82170   0.10950   0.33490   0.00000  Uiso   1.00
C171   C     0.19690   0.04030   0.38850   0.00000  Uiso   1.00
H172   H     0.16920   0.96780   0.36550   0.00000  Uiso   1.00
C173   C     0.31600   0.06200   0.44430   0.00000  Uiso   1.00
H174   H     0.36630   0.00550   0.45780   0.00000  Uiso   1.00
C175   C     0.16420   0.21780   0.40480   0.00000  Uiso   1.00
H176   H     0.11240   0.27420   0.39300   0.00000  Uiso   1.00
C177   C     0.27980   0.24580   0.46060   0.00000  Uiso   1.00
H178   H     0.30510   0.32050   0.48670   0.00000  Uiso   1.00
C179   C     0.35720   0.16680   0.47830   0.00000  Uiso   1.00
C180   C     0.48260   0.19320   0.53200   0.00000  Uiso   1.00
C181   C     0.53730   0.16270   0.47090   0.00000  Uiso   1.00
C182   C     0.65270   0.19030   0.52010   0.00000  Uiso   1.00
C183   C     0.71400   0.24820   0.63000   0.00000  Uiso   1.00
C184   C     0.65860   0.27840   0.69120   0.00000  Uiso   1.00
C185   C     0.54210   0.25110   0.64130   0.00000  Uiso   1.00
C186   C     0.47250   0.10030   0.35080   0.00000  Uiso   1.00
H187   H     0.39140   0.11420   0.32790   0.00000  Uiso   1.00
H188   H     0.50080   0.12800   0.32120   0.00000  Uiso   1.00
H189   H     0.48380   0.01860   0.32640   0.00000  Uiso   1.00
C190   C     0.47930   0.28590   0.70550   0.00000  Uiso   1.00
H191   H     0.42670   0.22370   0.67570   0.00000  Uiso   1.00
H192   H     0.53400   0.30300   0.77840   0.00000  Uiso   1.00
H193   H     0.43650   0.35350   0.70400   0.00000  Uiso   1.00
C194   C     0.83830   0.27850   0.68010   0.00000  Uiso   1.00
H195   H     0.87240   0.30580   0.75610   0.00000  Uiso   1.00
H196   H     0.87690   0.21110   0.65000   0.00000  Uiso   1.00
H197   H     0.84650   0.33810   0.66660   0.00000  Uiso   1.00
C198   C     0.71290   0.16050   0.45500   0.00000  Uiso   1.00
C199   C     0.74630   0.05350   0.40960   0.00000  Uiso   1.00
H200   H     0.73070   0.99450   0.41720   0.00000  Uiso   1.00
C201   C     0.80350   0.03070   0.35160   0.00000  Uiso   1.00
H202   H     0.83020   0.95680   0.32340   0.00000  Uiso   1.00
C203   C     0.73140   0.24080   0.43630   0.00000  Uiso   1.00
H204   H     0.70710   0.31590   0.46460   0.00000  Uiso   1.00
C205   C     0.78580   0.21180   0.37580   0.00000  Uiso   1.00
H206   H     0.79780   0.26820   0.36320   0.00000  Uiso   1.00
Ag225  Ag    0.06900   0.93100   0.75000   0.00000  Uiso   1.00
Ag226  Ag    0.93100   0.06900   0.25000   0.00000  Uiso   1.00
loop_
_geom_bond_atom_site_label_1
_geom_bond_atom_site_label_2
_geom_bond_distance
_geom_bond_site_symmetry_2
_ccdc_geom_bond_type
N1     C3      1.306   .     D
N1     C7      1.348   .     S
N1     Ag225   2.321   1_545 D
N2     C33     1.326   .     D
N2     C37     1.315   .     S
N2     Ag225   2.328   .     S
C3     C5      1.416   .     S
C3     H4      0.949   1_455 S
H4     C3      0.949   1_655 S
C5     H6      0.948   .     S
C5     C11     1.375   .     D
C7     H8      0.949   .     S
C7     C9      1.389   .     D
C9     H10     0.949   .     S
C9     C11     1.366   .     S
C11    C12     1.504   1_556 S
C12    C17     1.392   .     D
C12    C11     1.504   1_554 S
C12    C13     1.392   1_554 S
C13    C18     1.529   .     S
C13    C12     1.392   1_556 S
C13    C14     1.393   1_556 D
C14    C15     1.401   .     S
C14    C13     1.393   1_554 D
C14    C30     1.512   1_554 D
C15    C16     1.402   .     D
C15    C26     1.509   .     S
C16    C17     1.404   .     S
C16    C72     1.498   .     S
C17    C22     1.517   .     S
C18    H19     0.980   .     S
C18    H20     0.979   .     S
C18    H21     0.981   .     S
C22    H23     0.981   .     S
C22    H24     0.980   .     S
C22    H25     0.980   .     S
C26    H27     0.979   .     S
C26    H28     0.980   .     S
C26    H29     0.980   .     S
C30    C31     1.361   .     D
C30    C35     1.370   .     S
C30    C14     1.512   1_556 D
C31    C33     1.399   .     S
C31    H32     0.950   1_455 S
H32    C31     0.950   1_655 S
C33    H34     0.950   1_455 S
H34    C33     0.950   1_655 S
C35    H36     0.950   .     S
C35    C37     1.384   .     D
C37    H38     0.950   .     S
N57    C59     1.306   .     D
N57    C63     1.348   .     S
N57    Ag225   2.321   1_655 D
N58    C89     1.326   .     S
N58    C93     1.315   .     D
N58    Ag225   2.328   .     S
C59    C61     1.416   .     S
C59    H60     0.949   1_565 S
H60    C59     0.949   1_545 S
C61    H62     0.948   .     S
C61    C67     1.375   .     D
C63    H64     0.949   .     S
C63    C65     1.389   .     D
C65    H66     0.949   .     S
C65    C67     1.366   .     S
C67    C68     1.504   .     S
C68    C69     1.392   .     D
C68    C73     1.392   .     S
C69    C70     1.393   .     S
C69    C74     1.529   .     S
C70    C71     1.401   .     D
C70    C86     1.512   .     S
C71    C72     1.402   .     S
C71    C82     1.509   .     S
C72    C73     1.404   .     D
C73    C78     1.517   .     S
C74    H75     0.980   .     S
C74    H76     0.979   .     S
C74    H77     0.981   .     S
C78    H79     0.981   .     S
C78    H80     0.980   .     S
C78    H81     0.980   .     S
C82    H83     0.979   .     S
C82    H84     0.980   .     S
C82    H85     0.980   .     S
C86    C87     1.361   .     S
C86    C91     1.370   .     D
C87    C89     1.399   .     D
C87    H88     0.950   1_565 S
H88    C87     0.950   1_545 S
C89    H90     0.950   1_565 S
H90    C89     0.950   1_545 S
C91    H92     0.950   .     S
C91    C93     1.384   .     S
C93    H94     0.950   .     S
N113   C115    1.306   .     S
N113   C119    1.348   .     D
N113   Ag226   2.321   1_565 S
N114   C145    1.326   .     D
N114   C149    1.315   .     S
N114   Ag226   2.328   .     S
C115   C117    1.416   .     D
C115   H116    0.949   1_655 S
H116   C115    0.949   1_455 S
C117   H118    0.948   .     S
C117   C123    1.375   .     S
C119   H120    0.949   .     S
C119   C121    1.389   .     S
C121   H122    0.949   .     S
C121   C123    1.366   .     D
C123   C124    1.504   1_554 S
C124   C129    1.392   .     D
C124   C123    1.504   1_556 S
C124   C125    1.392   1_556 S
C125   C130    1.529   .     S
C125   C124    1.392   1_554 S
C125   C126    1.393   1_554 D
C126   C127    1.401   .     S
C126   C125    1.393   1_556 D
C126   C142    1.512   1_556 S
C127   C128    1.402   .     D
C127   C138    1.509   .     S
C128   C129    1.404   .     S
C128   C184    1.498   .     S
C129   C134    1.517   .     S
C130   H131    0.980   .     S
C130   H132    0.979   .     S
C130   H133    0.981   .     S
C134   H135    0.981   .     S
C134   H136    0.980   .     S
C134   H137    0.980   .     S
C138   H139    0.979   .     S
C138   H140    0.980   .     S
C138   H141    0.980   .     S
C142   C143    1.361   .     D
C142   C147    1.370   .     S
C142   C126    1.512   1_554 S
C143   C145    1.399   .     S
C143   H144    0.950   1_655 D
H144   C143    0.950   1_455 D
C145   H146    0.950   1_655 D
H146   C145    0.950   1_455 D
C147   H148    0.950   .     S
C147   C149    1.384   .     D
C149   H150    0.950   .     S
N169   C171    1.306   .     S
N169   C175    1.348   .     D
N169   Ag226   2.321   1_455 S
N170   C201    1.326   .     S
N170   C205    1.315   .     D
N170   Ag226   2.328   .     S
C171   C173    1.416   .     D
C171   H172    0.949   1_545 D
H172   C171    0.949   1_565 D
C173   H174    0.948   .     S
C173   C179    1.375   .     S
C175   H176    0.949   .     S
C175   C177    1.389   .     S
C177   H178    0.949   .     S
C177   C179    1.366   .     D
C179   C180    1.504   .     S
C180   C181    1.392   .     D
C180   C185    1.392   .     S
C181   C182    1.393   .     S
C181   C186    1.529   .     S
C182   C183    1.401   .     D
C182   C198    1.512   .     S
C183   C184    1.402   .     S
C183   C194    1.509   .     S
C184   C185    1.404   .     D
C185   C190    1.517   .     S
C186   H187    0.980   .     S
C186   H188    0.979   .     S
C186   H189    0.981   .     S
C190   H191    0.981   .     S
C190   H192    0.980   .     S
C190   H193    0.980   .     S
C194   H195    0.979   .     S
C194   H196    0.980   .     S
C194   H197    0.980   .     S
C198   C199    1.361   .     S
C198   C203    1.370   .     D
C199   C201    1.399   .     D
C199   H200    0.950   1_545 S
H200   C199    0.950   1_565 S
C201   H202    0.950   1_545 D
H202   C201    0.950   1_565 D
C203   H204    0.950   .     S
C203   C205    1.384   .     S
C205   H206    0.950   .     S
Ag225  N1      2.321   1_565 D
Ag225  N57     2.321   1_455 D
Ag226  N113    2.321   1_545 S
Ag226  N169    2.321   1_655 S
