data_image0
_cell_length_a       15.261
_cell_length_b       15.261
_cell_length_c       28.898
_cell_angle_alpha    90
_cell_angle_beta     90
_cell_angle_gamma    90

_symmetry_space_group_name_H-M    "P 1"
_symmetry_int_tables_number       1

loop_
  _symmetry_equiv_pos_as_xyz
  'x, y, z'

loop_
  _atom_site_label
  _atom_site_occupancy
  _atom_site_fract_x
  _atom_site_fract_y
  _atom_site_fract_z
  _atom_site_thermal_displace_type
  _atom_site_B_iso_or_equiv
  _atom_site_type_symbol
  Ga1      1.0000 0.19942  0.25867  0.29642  Biso   1.000  Ga
  Ga2      1.0000 0.06992  0.15520  0.19930  Biso   1.000  Ga
  P1       1.0000 0.22778  0.07486  0.25108  Biso   1.000  P
  P2       1.0000 0.20545  0.17983  0.11171  Biso   1.000  P
  O1       1.0000 0.21260  0.13270  0.29438  Biso   1.000  O
  O2       1.0000 0.12830  0.14320  0.13902  Biso   1.000  O
  O3       1.0000 0.29450  0.11950  0.21846  Biso   1.000  O
  O4       1.0000 0.17850  0.22800  0.06803  Biso   1.000  O
  O5       1.0000 0.23590  0.26230  0.35885  Biso   1.000  O
  O6       1.0000 0.23590  0.40010  0.40368  Biso   1.000  O
  O7       1.0000 0.49290  0.33230  0.24256  Biso   1.000  O
  O8       1.0000 0.16580  0.24320  0.22517  Biso   1.000  O
  O9       1.0000 0.58070  0.25940  0.18149  Biso   1.000  O
  O10      1.0000 0.23340  0.51190  0.23328  Biso   1.000  O
  O11      1.0000 0.35920  0.43960  0.27491  Biso   1.000  O
  Ga3      1.0000 0.69942  0.75867  0.79642  Biso   1.000  Ga
  Ga4      1.0000 0.56992  0.65520  0.69930  Biso   1.000  Ga
  P3       1.0000 0.72778  0.57486  0.75108  Biso   1.000  P
  P4       1.0000 0.70545  0.67983  0.61171  Biso   1.000  P
  O12      1.0000 0.71260  0.63270  0.79438  Biso   1.000  O
  O13      1.0000 0.62830  0.64320  0.63902  Biso   1.000  O
  O14      1.0000 0.79450  0.61950  0.71846  Biso   1.000  O
  O15      1.0000 0.67850  0.72800  0.56803  Biso   1.000  O
  O16      1.0000 0.73590  0.76230  0.85885  Biso   1.000  O
  O17      1.0000 0.73590  0.90010  0.90368  Biso   1.000  O
  O18      1.0000 0.99290  0.83230  0.74256  Biso   1.000  O
  O19      1.0000 0.66580  0.74320  0.72517  Biso   1.000  O
  O20      1.0000 0.08070  0.75940  0.68149  Biso   1.000  O
  O21      1.0000 0.73340  0.01190  0.73328  Biso   1.000  O
  O22      1.0000 0.85920  0.93960  0.77491  Biso   1.000  O
  Ga5      1.0000 0.30058  0.74133  0.79642  Biso   1.000  Ga
  Ga6      1.0000 0.43008  0.84480  0.69930  Biso   1.000  Ga
  P5       1.0000 0.27222  0.92514  0.75108  Biso   1.000  P
  P6       1.0000 0.29455  0.82017  0.61171  Biso   1.000  P
  O23      1.0000 0.28740  0.86730  0.79438  Biso   1.000  O
  O24      1.0000 0.37170  0.85680  0.63902  Biso   1.000  O
  O25      1.0000 0.20550  0.88050  0.71846  Biso   1.000  O
  O26      1.0000 0.32150  0.77200  0.56803  Biso   1.000  O
  O27      1.0000 0.26410  0.73770  0.85885  Biso   1.000  O
  O28      1.0000 0.26410  0.59990  0.90368  Biso   1.000  O
  O29      1.0000 0.00710  0.66770  0.74256  Biso   1.000  O
  O30      1.0000 0.33420  0.75680  0.72517  Biso   1.000  O
  O31      1.0000 0.91930  0.74060  0.68149  Biso   1.000  O
  O32      1.0000 0.26660  0.48810  0.73328  Biso   1.000  O
  O33      1.0000 0.14080  0.56040  0.77491  Biso   1.000  O
  Ga7      1.0000 0.80058  0.24133  0.29642  Biso   1.000  Ga
  Ga8      1.0000 0.93008  0.34480  0.19930  Biso   1.000  Ga
  P7       1.0000 0.77222  0.42514  0.25108  Biso   1.000  P
  P8       1.0000 0.79455  0.32017  0.11171  Biso   1.000  P
  O34      1.0000 0.78740  0.36730  0.29438  Biso   1.000  O
  O35      1.0000 0.87170  0.35680  0.13902  Biso   1.000  O
  O36      1.0000 0.70550  0.38050  0.21846  Biso   1.000  O
  O37      1.0000 0.82150  0.27200  0.06803  Biso   1.000  O
  O38      1.0000 0.76410  0.23770  0.35885  Biso   1.000  O
  O39      1.0000 0.76410  0.09990  0.40368  Biso   1.000  O
  O40      1.0000 0.50710  0.16770  0.24256  Biso   1.000  O
  O41      1.0000 0.83420  0.25680  0.22517  Biso   1.000  O
  O42      1.0000 0.41930  0.24060  0.18149  Biso   1.000  O
  O43      1.0000 0.76660  0.98810  0.23328  Biso   1.000  O
  O44      1.0000 0.64080  0.06040  0.27491  Biso   1.000  O
  Ga9      1.0000 0.49133  0.44942  0.54642  Biso   1.000  Ga
  Ga10     1.0000 0.59480  0.31992  0.44930  Biso   1.000  Ga
  P9       1.0000 0.67514  0.47778  0.50108  Biso   1.000  P
  P10      1.0000 0.57017  0.45545  0.36171  Biso   1.000  P
  O45      1.0000 0.61730  0.46260  0.54438  Biso   1.000  O
  O46      1.0000 0.60680  0.37830  0.38902  Biso   1.000  O
  O47      1.0000 0.63050  0.54450  0.46846  Biso   1.000  O
  O48      1.0000 0.52200  0.42850  0.31803  Biso   1.000  O
  O49      1.0000 0.48770  0.48590  0.60885  Biso   1.000  O
  O50      1.0000 0.34990  0.48590  0.65368  Biso   1.000  O
  O51      1.0000 0.41770  0.74290  0.49256  Biso   1.000  O
  O52      1.0000 0.50680  0.41580  0.47517  Biso   1.000  O
  O53      1.0000 0.49060  0.83070  0.43149  Biso   1.000  O
  O54      1.0000 0.23810  0.48340  0.48328  Biso   1.000  O
  O55      1.0000 0.31040  0.60920  0.52491  Biso   1.000  O
  Ga11     1.0000 0.99133  0.94942  0.04642  Biso   1.000  Ga
  Ga12     1.0000 0.09480  0.81992  0.94930  Biso   1.000  Ga
  P11      1.0000 0.17514  0.97778  0.00108  Biso   1.000  P
  P12      1.0000 0.07017  0.95545  0.86171  Biso   1.000  P
  O56      1.0000 0.11730  0.96260  0.04438  Biso   1.000  O
  O57      1.0000 0.10680  0.87830  0.88902  Biso   1.000  O
  O58      1.0000 0.13050  0.04450  0.96846  Biso   1.000  O
  O59      1.0000 0.02200  0.92850  0.81803  Biso   1.000  O
  O60      1.0000 0.98770  0.98590  0.10885  Biso   1.000  O
  O61      1.0000 0.84990  0.98590  0.15368  Biso   1.000  O
  O62      1.0000 0.91770  0.24290  0.99256  Biso   1.000  O
  O63      1.0000 0.00680  0.91580  0.97517  Biso   1.000  O
  O64      1.0000 0.99060  0.33070  0.93149  Biso   1.000  O
  O65      1.0000 0.73810  0.98340  0.98328  Biso   1.000  O
  O66      1.0000 0.81040  0.10920  0.02491  Biso   1.000  O
  Ga13     1.0000 0.00867  0.55058  0.04642  Biso   1.000  Ga
  Ga14     1.0000 0.90520  0.68008  0.94930  Biso   1.000  Ga
  P13      1.0000 0.82486  0.52222  0.00108  Biso   1.000  P
  P14      1.0000 0.92983  0.54455  0.86171  Biso   1.000  P
  O67      1.0000 0.88270  0.53740  0.04438  Biso   1.000  O
  O68      1.0000 0.89320  0.62170  0.88902  Biso   1.000  O
  O69      1.0000 0.86950  0.45550  0.96846  Biso   1.000  O
  O70      1.0000 0.97800  0.57150  0.81803  Biso   1.000  O
  O71      1.0000 0.01230  0.51410  0.10885  Biso   1.000  O
  O72      1.0000 0.15010  0.51410  0.15368  Biso   1.000  O
  O73      1.0000 0.08230  0.25710  0.99256  Biso   1.000  O
  O74      1.0000 0.99320  0.58420  0.97517  Biso   1.000  O
  O75      1.0000 0.00940  0.16930  0.93149  Biso   1.000  O
  O76      1.0000 0.26190  0.51660  0.98328  Biso   1.000  O
  O77      1.0000 0.18960  0.39080  0.02491  Biso   1.000  O
  Ga15     1.0000 0.50867  0.05058  0.54642  Biso   1.000  Ga
  Ga16     1.0000 0.40520  0.18008  0.44930  Biso   1.000  Ga
  P15      1.0000 0.32486  0.02222  0.50108  Biso   1.000  P
  P16      1.0000 0.42983  0.04455  0.36171  Biso   1.000  P
  O78      1.0000 0.38270  0.03740  0.54438  Biso   1.000  O
  O79      1.0000 0.39320  0.12170  0.38902  Biso   1.000  O
  O80      1.0000 0.36950  0.95550  0.46846  Biso   1.000  O
  O81      1.0000 0.47800  0.07150  0.31803  Biso   1.000  O
  O82      1.0000 0.51230  0.01410  0.60885  Biso   1.000  O
  O83      1.0000 0.65010  0.01410  0.65368  Biso   1.000  O
  O84      1.0000 0.58230  0.75710  0.49256  Biso   1.000  O
  O85      1.0000 0.49320  0.08420  0.47517  Biso   1.000  O
  O86      1.0000 0.50940  0.66930  0.43149  Biso   1.000  O
  O87      1.0000 0.76190  0.01660  0.48328  Biso   1.000  O
  O88      1.0000 0.68960  0.89080  0.52491  Biso   1.000  O
  Ga17     1.0000 0.80058  0.74133  0.70358  Biso   1.000  Ga
  Ga18     1.0000 0.93008  0.84480  0.80070  Biso   1.000  Ga
  P17      1.0000 0.77222  0.92514  0.74892  Biso   1.000  P
  P18      1.0000 0.79455  0.82017  0.88829  Biso   1.000  P
  O89      1.0000 0.78740  0.86730  0.70562  Biso   1.000  O
  O90      1.0000 0.87170  0.85680  0.86098  Biso   1.000  O
  O91      1.0000 0.70550  0.88050  0.78154  Biso   1.000  O
  O92      1.0000 0.82150  0.77200  0.93197  Biso   1.000  O
  O93      1.0000 0.76410  0.73770  0.64115  Biso   1.000  O
  O94      1.0000 0.76410  0.59990  0.59632  Biso   1.000  O
  O95      1.0000 0.50710  0.66770  0.75744  Biso   1.000  O
  O96      1.0000 0.83420  0.75680  0.77483  Biso   1.000  O
  O97      1.0000 0.41930  0.74060  0.81851  Biso   1.000  O
  O98      1.0000 0.76660  0.48810  0.76672  Biso   1.000  O
  O99      1.0000 0.64080  0.56040  0.72509  Biso   1.000  O
  Ga19     1.0000 0.30058  0.24133  0.20358  Biso   1.000  Ga
  Ga20     1.0000 0.43008  0.34480  0.30070  Biso   1.000  Ga
  P19      1.0000 0.27222  0.42514  0.24892  Biso   1.000  P
  P20      1.0000 0.29455  0.32017  0.38829  Biso   1.000  P
  O100     1.0000 0.28740  0.36730  0.20562  Biso   1.000  O
  O101     1.0000 0.37170  0.35680  0.36098  Biso   1.000  O
  O102     1.0000 0.20550  0.38050  0.28154  Biso   1.000  O
  O103     1.0000 0.32150  0.27200  0.43197  Biso   1.000  O
  O104     1.0000 0.26410  0.23770  0.14115  Biso   1.000  O
  O105     1.0000 0.26410  0.09990  0.09632  Biso   1.000  O
  O106     1.0000 0.00710  0.16770  0.25744  Biso   1.000  O
  O107     1.0000 0.33420  0.25680  0.27483  Biso   1.000  O
  O108     1.0000 0.91930  0.24060  0.31851  Biso   1.000  O
  O109     1.0000 0.26660  0.98810  0.26672  Biso   1.000  O
  O110     1.0000 0.14080  0.06040  0.22509  Biso   1.000  O
  Ga21     1.0000 0.69942  0.25867  0.20358  Biso   1.000  Ga
  Ga22     1.0000 0.56992  0.15520  0.30070  Biso   1.000  Ga
  P21      1.0000 0.72778  0.07486  0.24892  Biso   1.000  P
  P22      1.0000 0.70545  0.17983  0.38829  Biso   1.000  P
  O111     1.0000 0.71260  0.13270  0.20562  Biso   1.000  O
  O112     1.0000 0.62830  0.14320  0.36098  Biso   1.000  O
  O113     1.0000 0.79450  0.11950  0.28154  Biso   1.000  O
  O114     1.0000 0.67850  0.22800  0.43197  Biso   1.000  O
  O115     1.0000 0.73590  0.26230  0.14115  Biso   1.000  O
  O116     1.0000 0.73590  0.40010  0.09632  Biso   1.000  O
  O117     1.0000 0.99290  0.33230  0.25744  Biso   1.000  O
  O118     1.0000 0.66580  0.24320  0.27483  Biso   1.000  O
  O119     1.0000 0.08070  0.25940  0.31851  Biso   1.000  O
  O120     1.0000 0.73340  0.51190  0.26672  Biso   1.000  O
  O121     1.0000 0.85920  0.43960  0.22509  Biso   1.000  O
  Ga23     1.0000 0.19942  0.75867  0.70358  Biso   1.000  Ga
  Ga24     1.0000 0.06992  0.65520  0.80070  Biso   1.000  Ga
  P23      1.0000 0.22778  0.57486  0.74892  Biso   1.000  P
  P24      1.0000 0.20545  0.67983  0.88829  Biso   1.000  P
  O122     1.0000 0.21260  0.63270  0.70562  Biso   1.000  O
  O123     1.0000 0.12830  0.64320  0.86098  Biso   1.000  O
  O124     1.0000 0.29450  0.61950  0.78154  Biso   1.000  O
  O125     1.0000 0.17850  0.72800  0.93197  Biso   1.000  O
  O126     1.0000 0.23590  0.76230  0.64115  Biso   1.000  O
  O127     1.0000 0.23590  0.90010  0.59632  Biso   1.000  O
  O128     1.0000 0.49290  0.83230  0.75744  Biso   1.000  O
  O129     1.0000 0.16580  0.74320  0.77483  Biso   1.000  O
  O130     1.0000 0.58070  0.75940  0.81851  Biso   1.000  O
  O131     1.0000 0.23340  0.01190  0.76672  Biso   1.000  O
  O132     1.0000 0.35920  0.93960  0.72509  Biso   1.000  O
  Ga25     1.0000 0.50867  0.55058  0.45358  Biso   1.000  Ga
  Ga26     1.0000 0.40520  0.68008  0.55070  Biso   1.000  Ga
  P25      1.0000 0.32486  0.52222  0.49892  Biso   1.000  P
  P26      1.0000 0.42983  0.54455  0.63829  Biso   1.000  P
  O133     1.0000 0.38270  0.53740  0.45562  Biso   1.000  O
  O134     1.0000 0.39320  0.62170  0.61098  Biso   1.000  O
  O135     1.0000 0.36950  0.45550  0.53154  Biso   1.000  O
  O136     1.0000 0.47800  0.57150  0.68197  Biso   1.000  O
  O137     1.0000 0.51230  0.51410  0.39115  Biso   1.000  O
  O138     1.0000 0.65010  0.51410  0.34632  Biso   1.000  O
  O139     1.0000 0.58230  0.25710  0.50744  Biso   1.000  O
  O140     1.0000 0.49320  0.58420  0.52483  Biso   1.000  O
  O141     1.0000 0.50940  0.16930  0.56851  Biso   1.000  O
  O142     1.0000 0.76190  0.51660  0.51672  Biso   1.000  O
  O143     1.0000 0.68960  0.39080  0.47509  Biso   1.000  O
  Ga27     1.0000 0.00867  0.05058  0.95358  Biso   1.000  Ga
  Ga28     1.0000 0.90520  0.18008  0.05070  Biso   1.000  Ga
  P27      1.0000 0.82486  0.02222  0.99892  Biso   1.000  P
  P28      1.0000 0.92983  0.04455  0.13829  Biso   1.000  P
  O144     1.0000 0.88270  0.03740  0.95562  Biso   1.000  O
  O145     1.0000 0.89320  0.12170  0.11098  Biso   1.000  O
  O146     1.0000 0.86950  0.95550  0.03154  Biso   1.000  O
  O147     1.0000 0.97800  0.07150  0.18197  Biso   1.000  O
  O148     1.0000 0.01230  0.01410  0.89115  Biso   1.000  O
  O149     1.0000 0.15010  0.01410  0.84632  Biso   1.000  O
  O150     1.0000 0.08230  0.75710  0.00744  Biso   1.000  O
  O151     1.0000 0.99320  0.08420  0.02483  Biso   1.000  O
  O152     1.0000 0.00940  0.66930  0.06851  Biso   1.000  O
  O153     1.0000 0.26190  0.01660  0.01672  Biso   1.000  O
  O154     1.0000 0.18960  0.89080  0.97509  Biso   1.000  O
  Ga29     1.0000 0.99133  0.44942  0.95358  Biso   1.000  Ga
  Ga30     1.0000 0.09480  0.31992  0.05070  Biso   1.000  Ga
  P29      1.0000 0.17514  0.47778  0.99892  Biso   1.000  P
  P30      1.0000 0.07017  0.45545  0.13829  Biso   1.000  P
  O155     1.0000 0.11730  0.46260  0.95562  Biso   1.000  O
  O156     1.0000 0.10680  0.37830  0.11098  Biso   1.000  O
  O157     1.0000 0.13050  0.54450  0.03154  Biso   1.000  O
  O158     1.0000 0.02200  0.42850  0.18197  Biso   1.000  O
  O159     1.0000 0.98770  0.48590  0.89115  Biso   1.000  O
  O160     1.0000 0.84990  0.48590  0.84632  Biso   1.000  O
  O161     1.0000 0.91770  0.74290  0.00744  Biso   1.000  O
  O162     1.0000 0.00680  0.41580  0.02483  Biso   1.000  O
  O163     1.0000 0.99060  0.83070  0.06851  Biso   1.000  O
  O164     1.0000 0.73810  0.48340  0.01672  Biso   1.000  O
  O165     1.0000 0.81040  0.60920  0.97509  Biso   1.000  O
  Ga31     1.0000 0.49133  0.94942  0.45358  Biso   1.000  Ga
  Ga32     1.0000 0.59480  0.81992  0.55070  Biso   1.000  Ga
  P31      1.0000 0.67514  0.97778  0.49892  Biso   1.000  P
  P32      1.0000 0.57017  0.95545  0.63829  Biso   1.000  P
  O166     1.0000 0.61730  0.96260  0.45562  Biso   1.000  O
  O167     1.0000 0.60680  0.87830  0.61098  Biso   1.000  O
  O168     1.0000 0.63050  0.04450  0.53154  Biso   1.000  O
  O169     1.0000 0.52200  0.92850  0.68197  Biso   1.000  O
  O170     1.0000 0.48770  0.98590  0.39115  Biso   1.000  O
  O171     1.0000 0.34990  0.98590  0.34632  Biso   1.000  O
  O172     1.0000 0.41770  0.24290  0.50744  Biso   1.000  O
  O173     1.0000 0.50680  0.91580  0.52483  Biso   1.000  O
  O174     1.0000 0.49060  0.33070  0.56851  Biso   1.000  O
  O175     1.0000 0.23810  0.98340  0.51672  Biso   1.000  O
  O176     1.0000 0.31040  0.10920  0.47509  Biso   1.000  O
  P33      1.0000 0.50000  0.25000  0.21256  Biso   1.000  P
  P34      1.0000 0.00000  0.75000  0.71256  Biso   1.000  P
  P35      1.0000 0.50000  0.75000  0.46256  Biso   1.000  P
  P36      1.0000 0.00000  0.25000  0.96256  Biso   1.000  P
  P37      1.0000 0.50000  0.75000  0.78744  Biso   1.000  P
  P38      1.0000 0.00000  0.25000  0.28744  Biso   1.000  P
  P39      1.0000 0.50000  0.25000  0.53744  Biso   1.000  P
  P40      1.0000 0.00000  0.75000  0.03744  Biso   1.000  P
  O177     1.0000 0.00000  0.25000  0.17430  Biso   1.000  O
  O178     1.0000 0.50000  0.75000  0.67430  Biso   1.000  O
  O179     1.0000 0.50000  0.25000  0.42430  Biso   1.000  O
  O180     1.0000 0.00000  0.75000  0.92430  Biso   1.000  O
  O181     1.0000 0.00000  0.75000  0.82570  Biso   1.000  O
  O182     1.0000 0.50000  0.25000  0.32570  Biso   1.000  O
  O183     1.0000 0.50000  0.75000  0.57570  Biso   1.000  O
  O184     1.0000 0.00000  0.25000  0.07570  Biso   1.000  O
