data_image0
_cell_length_a       19.6084
_cell_length_b       11.9016
_cell_length_c       21.9364
_cell_angle_alpha    90
_cell_angle_beta     97.186
_cell_angle_gamma    90

_symmetry_space_group_name_H-M    "P 1"
_symmetry_int_tables_number       1

loop_
  _symmetry_equiv_pos_as_xyz
  'x, y, z'

loop_
  _atom_site_label
  _atom_site_occupancy
  _atom_site_fract_x
  _atom_site_fract_y
  _atom_site_fract_z
  _atom_site_thermal_displace_type
  _atom_site_B_iso_or_equiv
  _atom_site_type_symbol
  Tb1      1.0000 0.83076  0.33084  0.47426  Biso   1.000  Tb
  O1       1.0000 0.80021  0.15739  0.51471  Biso   1.000  O
  O2       1.0000 0.67796  0.13537  0.41949  Biso   1.000  O
  O3       1.0000 0.74268  0.00212  0.52434  Biso   1.000  O
  O4       1.0000 0.76697  0.23539  0.39205  Biso   1.000  O
  C1       1.0000 0.66408  0.17440  0.21109  Biso   1.000  C
  H1       1.0000 0.65050  0.22990  0.18080  Biso   1.000  H
  O5       1.0000 0.05228  0.71996  0.47769  Biso   1.000  O
  O6       1.0000 0.08600  0.78222  0.57034  Biso   1.000  O
  C2       1.0000 0.71848  0.16747  0.38192  Biso   1.000  C
  O7       1.0000 0.59540  0.09071  0.09798  Biso   1.000  O
  C3       1.0000 0.68855  0.81718  0.34566  Biso   1.000  C
  H2       1.0000 0.64930  0.80380  0.31660  Biso   1.000  H
  C4       1.0000 0.92061  0.82400  0.47762  Biso   1.000  C
  H3       1.0000 0.92250  0.76360  0.44960  Biso   1.000  H
  O8       1.0000 0.65282  0.92960  0.11425  Biso   1.000  O
  C5       1.0000 0.80073  0.86360  0.42918  Biso   1.000  C
  C6       1.0000 0.70080  0.01090  0.30168  Biso   1.000  C
  C7       1.0000 0.70320  0.12530  0.31697  Biso   1.000  C
  C8       1.0000 0.97711  0.84650  0.52218  Biso   1.000  C
  N1       1.0000 0.77696  0.94510  0.38954  Biso   1.000  N
  C9       1.0000 0.86133  0.98240  0.51470  Biso   1.000  C
  C10      1.0000 0.72289  0.92210  0.34791  Biso   1.000  C
  C11      1.0000 0.04178  0.77790  0.52357  Biso   1.000  C
  C12      1.0000 0.91787  0.00450  0.55822  Biso   1.000  C
  H4       1.0000 0.91710  0.06710  0.58500  Biso   1.000  H
  C13      1.0000 0.97525  0.93530  0.56244  Biso   1.000  C
  H5       1.0000 0.01310  0.94900  0.59300  Biso   1.000  H
  C14      1.0000 0.63489  0.02420  0.13103  Biso   1.000  C
  C15      1.0000 0.68047  0.98080  0.24021  Biso   1.000  C
  H6       1.0000 0.68030  0.90370  0.22900  Biso   1.000  H
  C16      1.0000 0.79766  0.05150  0.51725  Biso   1.000  C
  C17      1.0000 0.86182  0.89080  0.47482  Biso   1.000  C
  C18      1.0000 0.68729  0.20610  0.27073  Biso   1.000  C
  H7       1.0000 0.69250  0.28360  0.28060  Biso   1.000  H
  C19      1.0000 0.66058  0.06050  0.19545  Biso   1.000  C
  C20      1.0000 0.77108  0.75640  0.42885  Biso   1.000  C
  H8       1.0000 0.78980  0.70000  0.45670  Biso   1.000  H
  C21      1.0000 0.71372  0.73490  0.38688  Biso   1.000  C
  H9       1.0000 0.69170  0.66370  0.38650  Biso   1.000  H
  Tb2      1.0000 0.33076  0.83084  0.47426  Biso   1.000  Tb
  O9       1.0000 0.30021  0.65739  0.51471  Biso   1.000  O
  O10      1.0000 0.17796  0.63537  0.41949  Biso   1.000  O
  O11      1.0000 0.24268  0.50212  0.52434  Biso   1.000  O
  O12      1.0000 0.26697  0.73539  0.39205  Biso   1.000  O
  C22      1.0000 0.16408  0.67440  0.21109  Biso   1.000  C
  H10      1.0000 0.15050  0.72990  0.18080  Biso   1.000  H
  O13      1.0000 0.55228  0.21996  0.47769  Biso   1.000  O
  O14      1.0000 0.58600  0.28222  0.57034  Biso   1.000  O
  C23      1.0000 0.21848  0.66747  0.38192  Biso   1.000  C
  O15      1.0000 0.09540  0.59071  0.09798  Biso   1.000  O
  C24      1.0000 0.18855  0.31718  0.34566  Biso   1.000  C
  H11      1.0000 0.14930  0.30380  0.31660  Biso   1.000  H
  C25      1.0000 0.42061  0.32400  0.47762  Biso   1.000  C
  H12      1.0000 0.42250  0.26360  0.44960  Biso   1.000  H
  O16      1.0000 0.15282  0.42960  0.11425  Biso   1.000  O
  C26      1.0000 0.30073  0.36360  0.42918  Biso   1.000  C
  C27      1.0000 0.20080  0.51090  0.30168  Biso   1.000  C
  C28      1.0000 0.20320  0.62530  0.31697  Biso   1.000  C
  C29      1.0000 0.47711  0.34650  0.52218  Biso   1.000  C
  N2       1.0000 0.27696  0.44510  0.38954  Biso   1.000  N
  C30      1.0000 0.36133  0.48240  0.51470  Biso   1.000  C
  C31      1.0000 0.22289  0.42210  0.34791  Biso   1.000  C
  C32      1.0000 0.54178  0.27790  0.52357  Biso   1.000  C
  C33      1.0000 0.41787  0.50450  0.55822  Biso   1.000  C
  H13      1.0000 0.41710  0.56710  0.58500  Biso   1.000  H
  C34      1.0000 0.47525  0.43530  0.56244  Biso   1.000  C
  H14      1.0000 0.51310  0.44900  0.59300  Biso   1.000  H
  C35      1.0000 0.13489  0.52420  0.13103  Biso   1.000  C
  C36      1.0000 0.18047  0.48080  0.24021  Biso   1.000  C
  H15      1.0000 0.18030  0.40370  0.22900  Biso   1.000  H
  C37      1.0000 0.29766  0.55150  0.51725  Biso   1.000  C
  C38      1.0000 0.36182  0.39080  0.47482  Biso   1.000  C
  C39      1.0000 0.18729  0.70610  0.27073  Biso   1.000  C
  H16      1.0000 0.19250  0.78360  0.28060  Biso   1.000  H
  C40      1.0000 0.16058  0.56050  0.19545  Biso   1.000  C
  C41      1.0000 0.27108  0.25640  0.42885  Biso   1.000  C
  H17      1.0000 0.28980  0.20000  0.45670  Biso   1.000  H
  C42      1.0000 0.21372  0.23490  0.38688  Biso   1.000  C
  H18      1.0000 0.19170  0.16370  0.38650  Biso   1.000  H
  Tb3      1.0000 0.16924  0.33084  0.02574  Biso   1.000  Tb
  O17      1.0000 0.19979  0.15739  0.98529  Biso   1.000  O
  O18      1.0000 0.32204  0.13537  0.08051  Biso   1.000  O
  O19      1.0000 0.25732  0.00212  0.97566  Biso   1.000  O
  O20      1.0000 0.23303  0.23539  0.10795  Biso   1.000  O
  C43      1.0000 0.33592  0.17440  0.28891  Biso   1.000  C
  H19      1.0000 0.34950  0.22990  0.31920  Biso   1.000  H
  O21      1.0000 0.94772  0.71996  0.02231  Biso   1.000  O
  O22      1.0000 0.91400  0.78222  0.92966  Biso   1.000  O
  C44      1.0000 0.28152  0.16747  0.11808  Biso   1.000  C
  O23      1.0000 0.40460  0.09071  0.40202  Biso   1.000  O
  C45      1.0000 0.31145  0.81718  0.15434  Biso   1.000  C
  H20      1.0000 0.35070  0.80380  0.18340  Biso   1.000  H
  C46      1.0000 0.07939  0.82400  0.02238  Biso   1.000  C
  H21      1.0000 0.07750  0.76360  0.05040  Biso   1.000  H
  O24      1.0000 0.34718  0.92960  0.38575  Biso   1.000  O
  C47      1.0000 0.19927  0.86360  0.07082  Biso   1.000  C
  C48      1.0000 0.29920  0.01090  0.19832  Biso   1.000  C
  C49      1.0000 0.29680  0.12530  0.18303  Biso   1.000  C
  C50      1.0000 0.02289  0.84650  0.97782  Biso   1.000  C
  N3       1.0000 0.22304  0.94510  0.11046  Biso   1.000  N
  C51      1.0000 0.13867  0.98240  0.98530  Biso   1.000  C
  C52      1.0000 0.27711  0.92210  0.15209  Biso   1.000  C
  C53      1.0000 0.95822  0.77790  0.97643  Biso   1.000  C
  C54      1.0000 0.08213  0.00450  0.94178  Biso   1.000  C
  H22      1.0000 0.08290  0.06710  0.91500  Biso   1.000  H
  C55      1.0000 0.02475  0.93530  0.93756  Biso   1.000  C
  H23      1.0000 0.98690  0.94900  0.90700  Biso   1.000  H
  C56      1.0000 0.36511  0.02420  0.36897  Biso   1.000  C
  C57      1.0000 0.31953  0.98080  0.25979  Biso   1.000  C
  H24      1.0000 0.31970  0.90370  0.27100  Biso   1.000  H
  C58      1.0000 0.20234  0.05150  0.98275  Biso   1.000  C
  C59      1.0000 0.13818  0.89080  0.02518  Biso   1.000  C
  C60      1.0000 0.31271  0.20610  0.22927  Biso   1.000  C
  H25      1.0000 0.30750  0.28360  0.21940  Biso   1.000  H
  C61      1.0000 0.33942  0.06050  0.30455  Biso   1.000  C
  C62      1.0000 0.22892  0.75640  0.07115  Biso   1.000  C
  H26      1.0000 0.21020  0.70000  0.04330  Biso   1.000  H
  C63      1.0000 0.28628  0.73490  0.11312  Biso   1.000  C
  H27      1.0000 0.30830  0.66370  0.11350  Biso   1.000  H
  Tb4      1.0000 0.66924  0.83084  0.02574  Biso   1.000  Tb
  O25      1.0000 0.69979  0.65739  0.98529  Biso   1.000  O
  O26      1.0000 0.82204  0.63537  0.08051  Biso   1.000  O
  O27      1.0000 0.75732  0.50212  0.97566  Biso   1.000  O
  O28      1.0000 0.73303  0.73539  0.10795  Biso   1.000  O
  C64      1.0000 0.83592  0.67440  0.28891  Biso   1.000  C
  H28      1.0000 0.84950  0.72990  0.31920  Biso   1.000  H
  O29      1.0000 0.44772  0.21996  0.02231  Biso   1.000  O
  O30      1.0000 0.41400  0.28222  0.92966  Biso   1.000  O
  C65      1.0000 0.78152  0.66747  0.11808  Biso   1.000  C
  O31      1.0000 0.90460  0.59071  0.40202  Biso   1.000  O
  C66      1.0000 0.81145  0.31718  0.15434  Biso   1.000  C
  H29      1.0000 0.85070  0.30380  0.18340  Biso   1.000  H
  C67      1.0000 0.57939  0.32400  0.02238  Biso   1.000  C
  H30      1.0000 0.57750  0.26360  0.05040  Biso   1.000  H
  O32      1.0000 0.84718  0.42960  0.38575  Biso   1.000  O
  C68      1.0000 0.69927  0.36360  0.07082  Biso   1.000  C
  C69      1.0000 0.79920  0.51090  0.19832  Biso   1.000  C
  C70      1.0000 0.79680  0.62530  0.18303  Biso   1.000  C
  C71      1.0000 0.52289  0.34650  0.97782  Biso   1.000  C
  N4       1.0000 0.72304  0.44510  0.11046  Biso   1.000  N
  C72      1.0000 0.63867  0.48240  0.98530  Biso   1.000  C
  C73      1.0000 0.77711  0.42210  0.15209  Biso   1.000  C
  C74      1.0000 0.45822  0.27790  0.97643  Biso   1.000  C
  C75      1.0000 0.58213  0.50450  0.94178  Biso   1.000  C
  H31      1.0000 0.58290  0.56710  0.91500  Biso   1.000  H
  C76      1.0000 0.52475  0.43530  0.93756  Biso   1.000  C
  H32      1.0000 0.48690  0.44900  0.90700  Biso   1.000  H
  C77      1.0000 0.86511  0.52420  0.36897  Biso   1.000  C
  C78      1.0000 0.81953  0.48080  0.25979  Biso   1.000  C
  H33      1.0000 0.81970  0.40370  0.27100  Biso   1.000  H
  C79      1.0000 0.70234  0.55150  0.98275  Biso   1.000  C
  C80      1.0000 0.63818  0.39080  0.02518  Biso   1.000  C
  C81      1.0000 0.81271  0.70610  0.22927  Biso   1.000  C
  H34      1.0000 0.80750  0.78360  0.21940  Biso   1.000  H
  C82      1.0000 0.83942  0.56050  0.30455  Biso   1.000  C
  C83      1.0000 0.72892  0.25640  0.07115  Biso   1.000  C
  H35      1.0000 0.71020  0.20000  0.04330  Biso   1.000  H
  C84      1.0000 0.78628  0.23490  0.11312  Biso   1.000  C
  H36      1.0000 0.80830  0.16370  0.11350  Biso   1.000  H
  Tb5      1.0000 0.16924  0.66916  0.52574  Biso   1.000  Tb
  O33      1.0000 0.19979  0.84261  0.48529  Biso   1.000  O
  O34      1.0000 0.32204  0.86463  0.58051  Biso   1.000  O
  O35      1.0000 0.25732  0.99788  0.47566  Biso   1.000  O
  O36      1.0000 0.23303  0.76461  0.60795  Biso   1.000  O
  C85      1.0000 0.33592  0.82560  0.78891  Biso   1.000  C
  H37      1.0000 0.34950  0.77010  0.81920  Biso   1.000  H
  O37      1.0000 0.94772  0.28004  0.52231  Biso   1.000  O
  O38      1.0000 0.91400  0.21778  0.42966  Biso   1.000  O
  C86      1.0000 0.28152  0.83253  0.61808  Biso   1.000  C
  O39      1.0000 0.40460  0.90929  0.90202  Biso   1.000  O
  C87      1.0000 0.31145  0.18282  0.65434  Biso   1.000  C
  H38      1.0000 0.35070  0.19620  0.68340  Biso   1.000  H
  C88      1.0000 0.07939  0.17600  0.52238  Biso   1.000  C
  H39      1.0000 0.07750  0.23640  0.55040  Biso   1.000  H
  O40      1.0000 0.34718  0.07040  0.88575  Biso   1.000  O
  C89      1.0000 0.19927  0.13640  0.57082  Biso   1.000  C
  C90      1.0000 0.29920  0.98910  0.69832  Biso   1.000  C
  C91      1.0000 0.29680  0.87470  0.68303  Biso   1.000  C
  C92      1.0000 0.02289  0.15350  0.47782  Biso   1.000  C
  N5       1.0000 0.22304  0.05490  0.61046  Biso   1.000  N
  C93      1.0000 0.13867  0.01760  0.48530  Biso   1.000  C
  C94      1.0000 0.27711  0.07790  0.65209  Biso   1.000  C
  C95      1.0000 0.95822  0.22210  0.47643  Biso   1.000  C
  C96      1.0000 0.08213  0.99550  0.44178  Biso   1.000  C
  H40      1.0000 0.08290  0.93290  0.41500  Biso   1.000  H
  C97      1.0000 0.02475  0.06470  0.43756  Biso   1.000  C
  H41      1.0000 0.98690  0.05100  0.40700  Biso   1.000  H
  C98      1.0000 0.36511  0.97580  0.86897  Biso   1.000  C
  C99      1.0000 0.31953  0.01920  0.75979  Biso   1.000  C
  H42      1.0000 0.31970  0.09630  0.77100  Biso   1.000  H
  C100     1.0000 0.20234  0.94850  0.48275  Biso   1.000  C
  C101     1.0000 0.13818  0.10920  0.52518  Biso   1.000  C
  C102     1.0000 0.31271  0.79390  0.72927  Biso   1.000  C
  H43      1.0000 0.30750  0.71640  0.71940  Biso   1.000  H
  C103     1.0000 0.33942  0.93950  0.80455  Biso   1.000  C
  C104     1.0000 0.22892  0.24360  0.57115  Biso   1.000  C
  H44      1.0000 0.21020  0.30000  0.54330  Biso   1.000  H
  C105     1.0000 0.28628  0.26510  0.61312  Biso   1.000  C
  H45      1.0000 0.30830  0.33630  0.61350  Biso   1.000  H
  Tb6      1.0000 0.66924  0.16916  0.52574  Biso   1.000  Tb
  O41      1.0000 0.69979  0.34261  0.48529  Biso   1.000  O
  O42      1.0000 0.82204  0.36463  0.58051  Biso   1.000  O
  O43      1.0000 0.75732  0.49788  0.47566  Biso   1.000  O
  O44      1.0000 0.73303  0.26461  0.60795  Biso   1.000  O
  C106     1.0000 0.83592  0.32560  0.78891  Biso   1.000  C
  H46      1.0000 0.84950  0.27010  0.81920  Biso   1.000  H
  O45      1.0000 0.44772  0.78004  0.52231  Biso   1.000  O
  O46      1.0000 0.41400  0.71778  0.42966  Biso   1.000  O
  C107     1.0000 0.78152  0.33253  0.61808  Biso   1.000  C
  O47      1.0000 0.90460  0.40929  0.90202  Biso   1.000  O
  C108     1.0000 0.81145  0.68282  0.65434  Biso   1.000  C
  H47      1.0000 0.85070  0.69620  0.68340  Biso   1.000  H
  C109     1.0000 0.57939  0.67600  0.52238  Biso   1.000  C
  H48      1.0000 0.57750  0.73640  0.55040  Biso   1.000  H
  O48      1.0000 0.84718  0.57040  0.88575  Biso   1.000  O
  C110     1.0000 0.69927  0.63640  0.57082  Biso   1.000  C
  C111     1.0000 0.79920  0.48910  0.69832  Biso   1.000  C
  C112     1.0000 0.79680  0.37470  0.68303  Biso   1.000  C
  C113     1.0000 0.52289  0.65350  0.47782  Biso   1.000  C
  N6       1.0000 0.72304  0.55490  0.61046  Biso   1.000  N
  C114     1.0000 0.63867  0.51760  0.48530  Biso   1.000  C
  C115     1.0000 0.77711  0.57790  0.65209  Biso   1.000  C
  C116     1.0000 0.45822  0.72210  0.47643  Biso   1.000  C
  C117     1.0000 0.58213  0.49550  0.44178  Biso   1.000  C
  H49      1.0000 0.58290  0.43290  0.41500  Biso   1.000  H
  C118     1.0000 0.52475  0.56470  0.43756  Biso   1.000  C
  H50      1.0000 0.48690  0.55100  0.40700  Biso   1.000  H
  C119     1.0000 0.86511  0.47580  0.86897  Biso   1.000  C
  C120     1.0000 0.81953  0.51920  0.75979  Biso   1.000  C
  H51      1.0000 0.81970  0.59630  0.77100  Biso   1.000  H
  C121     1.0000 0.70234  0.44850  0.48275  Biso   1.000  C
  C122     1.0000 0.63818  0.60920  0.52518  Biso   1.000  C
  C123     1.0000 0.81271  0.29390  0.72927  Biso   1.000  C
  H52      1.0000 0.80750  0.21640  0.71940  Biso   1.000  H
  C124     1.0000 0.83942  0.43950  0.80455  Biso   1.000  C
  C125     1.0000 0.72892  0.74360  0.57115  Biso   1.000  C
  H53      1.0000 0.71020  0.80000  0.54330  Biso   1.000  H
  C126     1.0000 0.78628  0.76510  0.61312  Biso   1.000  C
  H54      1.0000 0.80830  0.83630  0.61350  Biso   1.000  H
  Tb7      1.0000 0.83076  0.66916  0.97426  Biso   1.000  Tb
  O49      1.0000 0.80021  0.84261  0.01471  Biso   1.000  O
  O50      1.0000 0.67796  0.86463  0.91949  Biso   1.000  O
  O51      1.0000 0.74268  0.99788  0.02434  Biso   1.000  O
  O52      1.0000 0.76697  0.76461  0.89205  Biso   1.000  O
  C127     1.0000 0.66408  0.82560  0.71109  Biso   1.000  C
  H55      1.0000 0.65050  0.77010  0.68080  Biso   1.000  H
  O53      1.0000 0.05228  0.28004  0.97769  Biso   1.000  O
  O54      1.0000 0.08600  0.21778  0.07034  Biso   1.000  O
  C128     1.0000 0.71848  0.83253  0.88192  Biso   1.000  C
  O55      1.0000 0.59540  0.90929  0.59798  Biso   1.000  O
  C129     1.0000 0.68855  0.18282  0.84566  Biso   1.000  C
  H56      1.0000 0.64930  0.19620  0.81660  Biso   1.000  H
  C130     1.0000 0.92061  0.17600  0.97762  Biso   1.000  C
  H57      1.0000 0.92250  0.23640  0.94960  Biso   1.000  H
  O56      1.0000 0.65282  0.07040  0.61425  Biso   1.000  O
  C131     1.0000 0.80073  0.13640  0.92918  Biso   1.000  C
  C132     1.0000 0.70080  0.98910  0.80168  Biso   1.000  C
  C133     1.0000 0.70320  0.87470  0.81697  Biso   1.000  C
  C134     1.0000 0.97711  0.15350  0.02218  Biso   1.000  C
  N7       1.0000 0.77696  0.05490  0.88954  Biso   1.000  N
  C135     1.0000 0.86133  0.01760  0.01470  Biso   1.000  C
  C136     1.0000 0.72289  0.07790  0.84791  Biso   1.000  C
  C137     1.0000 0.04178  0.22210  0.02357  Biso   1.000  C
  C138     1.0000 0.91787  0.99550  0.05822  Biso   1.000  C
  H58      1.0000 0.91710  0.93290  0.08500  Biso   1.000  H
  C139     1.0000 0.97525  0.06470  0.06244  Biso   1.000  C
  H59      1.0000 0.01310  0.05100  0.09300  Biso   1.000  H
  C140     1.0000 0.63489  0.97580  0.63103  Biso   1.000  C
  C141     1.0000 0.68047  0.01920  0.74021  Biso   1.000  C
  H60      1.0000 0.68030  0.09630  0.72900  Biso   1.000  H
  C142     1.0000 0.79766  0.94850  0.01725  Biso   1.000  C
  C143     1.0000 0.86182  0.10920  0.97482  Biso   1.000  C
  C144     1.0000 0.68729  0.79390  0.77073  Biso   1.000  C
  H61      1.0000 0.69250  0.71640  0.78060  Biso   1.000  H
  C145     1.0000 0.66058  0.93950  0.69545  Biso   1.000  C
  C146     1.0000 0.77108  0.24360  0.92885  Biso   1.000  C
  H62      1.0000 0.78980  0.30000  0.95670  Biso   1.000  H
  C147     1.0000 0.71372  0.26510  0.88688  Biso   1.000  C
  H63      1.0000 0.69170  0.33630  0.88650  Biso   1.000  H
  Tb8      1.0000 0.33076  0.16916  0.97426  Biso   1.000  Tb
  O57      1.0000 0.30021  0.34261  0.01471  Biso   1.000  O
  O58      1.0000 0.17796  0.36463  0.91949  Biso   1.000  O
  O59      1.0000 0.24268  0.49788  0.02434  Biso   1.000  O
  O60      1.0000 0.26697  0.26461  0.89205  Biso   1.000  O
  C148     1.0000 0.16408  0.32560  0.71109  Biso   1.000  C
  H64      1.0000 0.15050  0.27010  0.68080  Biso   1.000  H
  O61      1.0000 0.55228  0.78004  0.97769  Biso   1.000  O
  O62      1.0000 0.58600  0.71778  0.07034  Biso   1.000  O
  C149     1.0000 0.21848  0.33253  0.88192  Biso   1.000  C
  O63      1.0000 0.09540  0.40929  0.59798  Biso   1.000  O
  C150     1.0000 0.18855  0.68282  0.84566  Biso   1.000  C
  H65      1.0000 0.14930  0.69620  0.81660  Biso   1.000  H
  C151     1.0000 0.42061  0.67600  0.97762  Biso   1.000  C
  H66      1.0000 0.42250  0.73640  0.94960  Biso   1.000  H
  O64      1.0000 0.15282  0.57040  0.61425  Biso   1.000  O
  C152     1.0000 0.30073  0.63640  0.92918  Biso   1.000  C
  C153     1.0000 0.20080  0.48910  0.80168  Biso   1.000  C
  C154     1.0000 0.20320  0.37470  0.81697  Biso   1.000  C
  C155     1.0000 0.47711  0.65350  0.02218  Biso   1.000  C
  N8       1.0000 0.27696  0.55490  0.88954  Biso   1.000  N
  C156     1.0000 0.36133  0.51760  0.01470  Biso   1.000  C
  C157     1.0000 0.22289  0.57790  0.84791  Biso   1.000  C
  C158     1.0000 0.54178  0.72210  0.02357  Biso   1.000  C
  C159     1.0000 0.41787  0.49550  0.05822  Biso   1.000  C
  H67      1.0000 0.41710  0.43290  0.08500  Biso   1.000  H
  C160     1.0000 0.47525  0.56470  0.06244  Biso   1.000  C
  H68      1.0000 0.51310  0.55100  0.09300  Biso   1.000  H
  C161     1.0000 0.13489  0.47580  0.63103  Biso   1.000  C
  C162     1.0000 0.18047  0.51920  0.74021  Biso   1.000  C
  H69      1.0000 0.18030  0.59630  0.72900  Biso   1.000  H
  C163     1.0000 0.29766  0.44850  0.01725  Biso   1.000  C
  C164     1.0000 0.36182  0.60920  0.97482  Biso   1.000  C
  C165     1.0000 0.18729  0.29390  0.77073  Biso   1.000  C
  H70      1.0000 0.19250  0.21640  0.78060  Biso   1.000  H
  C166     1.0000 0.16058  0.43950  0.69545  Biso   1.000  C
  C167     1.0000 0.27108  0.74360  0.92885  Biso   1.000  C
  H71      1.0000 0.28980  0.80000  0.95670  Biso   1.000  H
  C168     1.0000 0.21372  0.76510  0.88688  Biso   1.000  C
  H72      1.0000 0.19170  0.83630  0.88650  Biso   1.000  H
