data_MAPFOY_clean
_audit_creation_date              2014-07-02
_audit_creation_method            'Materials Studio'
_symmetry_space_group_name_H-M    'P1'
_symmetry_Int_Tables_number       1
_symmetry_cell_setting            triclinic
loop_
_symmetry_equiv_pos_as_xyz
  x,y,z
_cell_length_a                    11.0950
_cell_length_b                    17.9700
_cell_length_c                    19.4840
_cell_angle_alpha                 90.0000
_cell_angle_beta                  90.0000
_cell_angle_gamma                 90.0000
loop_
_atom_site_label
_atom_site_type_symbol
_atom_site_fract_x
_atom_site_fract_y
_atom_site_fract_z
_atom_site_U_iso_or_equiv
_atom_site_adp_type
_atom_site_occupancy
Ti1    Ti    0.09970   0.45850   0.55380   0.01267  Uiso   1.00
Ti2    Ti    0.40030   0.54150   0.05380   0.01267  Uiso   1.00
Ti3    Ti    0.90030   0.95850   0.94620   0.01267  Uiso   1.00
Ti4    Ti    0.59970   0.04150   0.44620   0.01267  Uiso   1.00
Ti5    Ti    0.90030   0.54150   0.44620   0.01267  Uiso   1.00
Ti6    Ti    0.59970   0.45850   0.94620   0.01267  Uiso   1.00
Ti7    Ti    0.09970   0.04150   0.05380   0.01267  Uiso   1.00
Ti8    Ti    0.40030   0.95850   0.55380   0.01267  Uiso   1.00
H1     H     0.23210   0.80160   0.49810   0.01267  Uiso   1.00
H2     H     0.12720   0.67620   0.50850   0.01267  Uiso   1.00
H3     H     0.24080   0.50570   0.39250   0.01267  Uiso   1.00
H4     H     0.39190   0.57650   0.34790   0.01267  Uiso   1.00
H5     H     0.49910   0.69730   0.34050   0.01267  Uiso   1.00
H6     H     0.51750   0.81930   0.37190   0.01267  Uiso   1.00
H7     H     0.69930   0.61000   0.80450   0.01267  Uiso   1.00
H8     H     0.68290   0.63570   0.68900   0.01267  Uiso   1.00
H9     H     0.57390   0.62040   0.57770   0.01267  Uiso   1.00
H10    H     0.42760   0.56560   0.51430   0.01267  Uiso   1.00
H11    H     0.30560   0.45830   0.68180   0.01267  Uiso   1.00
H12    H     0.40770   0.47790   0.79480   0.01267  Uiso   1.00
H13    H     0.26790   0.19840   0.99810   0.01267  Uiso   1.00
H14    H     0.37280   0.32380   0.00850   0.01267  Uiso   1.00
H15    H     0.25920   0.49430   0.89250   0.01267  Uiso   1.00
H16    H     0.10810   0.42350   0.84790   0.01267  Uiso   1.00
H17    H     0.00090   0.30270   0.84050   0.01267  Uiso   1.00
H18    H     0.98250   0.18070   0.87190   0.01267  Uiso   1.00
H19    H     0.80070   0.39000   0.30450   0.01267  Uiso   1.00
H20    H     0.81710   0.36430   0.18900   0.01267  Uiso   1.00
H21    H     0.92610   0.37960   0.07770   0.01267  Uiso   1.00
H22    H     0.07240   0.43440   0.01430   0.01267  Uiso   1.00
H23    H     0.19440   0.54170   0.18180   0.01267  Uiso   1.00
H24    H     0.09230   0.52210   0.29480   0.01267  Uiso   1.00
H25    H     0.76790   0.30160   0.00190   0.01267  Uiso   1.00
H26    H     0.87280   0.17620   0.99150   0.01267  Uiso   1.00
H27    H     0.75920   0.00570   0.10750   0.01267  Uiso   1.00
H28    H     0.60810   0.07650   0.15210   0.01267  Uiso   1.00
H29    H     0.50090   0.19730   0.15950   0.01267  Uiso   1.00
H30    H     0.48250   0.31930   0.12810   0.01267  Uiso   1.00
H31    H     0.30070   0.11000   0.69550   0.01267  Uiso   1.00
H32    H     0.31710   0.13570   0.81100   0.01267  Uiso   1.00
H33    H     0.42610   0.12040   0.92230   0.01267  Uiso   1.00
H34    H     0.57240   0.06560   0.98570   0.01267  Uiso   1.00
H35    H     0.69440   0.95830   0.81820   0.01267  Uiso   1.00
H36    H     0.59230   0.97790   0.70520   0.01267  Uiso   1.00
H37    H     0.73210   0.69840   0.50190   0.01267  Uiso   1.00
H38    H     0.62720   0.82380   0.49150   0.01267  Uiso   1.00
H39    H     0.74080   0.99430   0.60750   0.01267  Uiso   1.00
H40    H     0.89190   0.92350   0.65210   0.01267  Uiso   1.00
H41    H     0.99910   0.80270   0.65950   0.01267  Uiso   1.00
H42    H     0.01750   0.68070   0.62810   0.01267  Uiso   1.00
H43    H     0.19930   0.89000   0.19550   0.01267  Uiso   1.00
H44    H     0.18290   0.86430   0.31100   0.01267  Uiso   1.00
H45    H     0.07390   0.87960   0.42230   0.01267  Uiso   1.00
H46    H     0.92760   0.93440   0.48570   0.01267  Uiso   1.00
H47    H     0.80560   0.04170   0.31820   0.01267  Uiso   1.00
H48    H     0.90770   0.02210   0.20520   0.01267  Uiso   1.00
H49    H     0.76790   0.19840   0.50190   0.01267  Uiso   1.00
H50    H     0.87280   0.32380   0.49150   0.01267  Uiso   1.00
H51    H     0.75920   0.49430   0.60750   0.01267  Uiso   1.00
H52    H     0.60810   0.42350   0.65210   0.01267  Uiso   1.00
H53    H     0.50090   0.30270   0.65950   0.01267  Uiso   1.00
H54    H     0.48250   0.18070   0.62810   0.01267  Uiso   1.00
H55    H     0.30070   0.39000   0.19550   0.01267  Uiso   1.00
H56    H     0.31710   0.36430   0.31100   0.01267  Uiso   1.00
H57    H     0.42610   0.37960   0.42230   0.01267  Uiso   1.00
H58    H     0.57240   0.43440   0.48570   0.01267  Uiso   1.00
H59    H     0.69440   0.54170   0.31820   0.01267  Uiso   1.00
H60    H     0.59230   0.52210   0.20520   0.01267  Uiso   1.00
H61    H     0.73210   0.80160   0.00190   0.01267  Uiso   1.00
H62    H     0.62720   0.67620   0.99150   0.01267  Uiso   1.00
H63    H     0.74080   0.50570   0.10750   0.01267  Uiso   1.00
H64    H     0.89190   0.57650   0.15210   0.01267  Uiso   1.00
H65    H     0.99910   0.69730   0.15950   0.01267  Uiso   1.00
H66    H     0.01750   0.81930   0.12810   0.01267  Uiso   1.00
H67    H     0.19930   0.61000   0.69550   0.01267  Uiso   1.00
H68    H     0.18290   0.63570   0.81100   0.01267  Uiso   1.00
H69    H     0.07390   0.62040   0.92230   0.01267  Uiso   1.00
H70    H     0.92760   0.56560   0.98570   0.01267  Uiso   1.00
H71    H     0.80560   0.45830   0.81820   0.01267  Uiso   1.00
H72    H     0.90770   0.47790   0.70520   0.01267  Uiso   1.00
H73    H     0.23210   0.69840   0.99810   0.01267  Uiso   1.00
H74    H     0.12720   0.82380   0.00850   0.01267  Uiso   1.00
H75    H     0.24080   0.99430   0.89250   0.01267  Uiso   1.00
H76    H     0.39190   0.92350   0.84790   0.01267  Uiso   1.00
H77    H     0.49910   0.80270   0.84050   0.01267  Uiso   1.00
H78    H     0.51750   0.68070   0.87190   0.01267  Uiso   1.00
H79    H     0.69930   0.89000   0.30450   0.01267  Uiso   1.00
H80    H     0.68290   0.86430   0.18900   0.01267  Uiso   1.00
H81    H     0.57390   0.87960   0.07770   0.01267  Uiso   1.00
H82    H     0.42760   0.93440   0.01430   0.01267  Uiso   1.00
H83    H     0.30560   0.04170   0.18180   0.01267  Uiso   1.00
H84    H     0.40770   0.02210   0.29480   0.01267  Uiso   1.00
H85    H     0.26790   0.30160   0.49810   0.01267  Uiso   1.00
H86    H     0.37280   0.17620   0.50850   0.01267  Uiso   1.00
H87    H     0.25920   0.00570   0.39250   0.01267  Uiso   1.00
H88    H     0.10810   0.07650   0.34790   0.01267  Uiso   1.00
H89    H     0.00090   0.19730   0.34050   0.01267  Uiso   1.00
H90    H     0.98250   0.31930   0.37190   0.01267  Uiso   1.00
H91    H     0.80070   0.11000   0.80450   0.01267  Uiso   1.00
H92    H     0.81710   0.13570   0.68900   0.01267  Uiso   1.00
H93    H     0.92610   0.12040   0.57770   0.01267  Uiso   1.00
H94    H     0.07240   0.06560   0.51430   0.01267  Uiso   1.00
H95    H     0.19440   0.95830   0.68180   0.01267  Uiso   1.00
H96    H     0.09230   0.97790   0.79480   0.01267  Uiso   1.00
C1     C     0.37470   0.82150   0.43760   0.01267  Uiso   1.00
C2     C     0.28470   0.78010   0.46660   0.01267  Uiso   1.00
C3     C     0.27230   0.70390   0.44820   0.01267  Uiso   1.00
C4     C     0.17990   0.65730   0.47580   0.01267  Uiso   1.00
C5     C     0.16810   0.58520   0.45460   0.01267  Uiso   1.00
C6     C     0.24900   0.55500   0.40610   0.01267  Uiso   1.00
C7     C     0.33880   0.59740   0.37930   0.01267  Uiso   1.00
C8     C     0.35270   0.67360   0.39870   0.01267  Uiso   1.00
C9     C     0.44490   0.71770   0.37170   0.01267  Uiso   1.00
C10    C     0.45610   0.79030   0.39040   0.01267  Uiso   1.00
C11    C     0.55200   0.54120   0.81040   0.01267  Uiso   1.00
C12    C     0.63740   0.58900   0.77880   0.01267  Uiso   1.00
C13    C     0.62750   0.60400   0.70960   0.01267  Uiso   1.00
C14    C     0.53500   0.57230   0.66970   0.01267  Uiso   1.00
C15    C     0.52130   0.58730   0.59880   0.01267  Uiso   1.00
C16    C     0.43400   0.55490   0.56090   0.01267  Uiso   1.00
C17    C     0.35120   0.50430   0.59210   0.01267  Uiso   1.00
C18    C     0.36060   0.49030   0.66120   0.01267  Uiso   1.00
C19    C     0.45080   0.52310   0.70180   0.01267  Uiso   1.00
C20    C     0.46240   0.50930   0.77320   0.01267  Uiso   1.00
C21    C     0.12530   0.17850   0.93760   0.01267  Uiso   1.00
C22    C     0.21530   0.21990   0.96660   0.01267  Uiso   1.00
C23    C     0.22770   0.29610   0.94820   0.01267  Uiso   1.00
C24    C     0.32010   0.34270   0.97580   0.01267  Uiso   1.00
C25    C     0.33190   0.41480   0.95460   0.01267  Uiso   1.00
C26    C     0.25100   0.44500   0.90610   0.01267  Uiso   1.00
C27    C     0.16120   0.40260   0.87930   0.01267  Uiso   1.00
C28    C     0.14730   0.32640   0.89870   0.01267  Uiso   1.00
C29    C     0.05510   0.28230   0.87170   0.01267  Uiso   1.00
C30    C     0.04390   0.20970   0.89040   0.01267  Uiso   1.00
C31    C     0.94800   0.45880   0.31040   0.01267  Uiso   1.00
C32    C     0.86260   0.41100   0.27880   0.01267  Uiso   1.00
C33    C     0.87250   0.39600   0.20960   0.01267  Uiso   1.00
C34    C     0.96500   0.42770   0.16970   0.01267  Uiso   1.00
C35    C     0.97870   0.41270   0.09880   0.01267  Uiso   1.00
C36    C     0.06600   0.44510   0.06090   0.01267  Uiso   1.00
C37    C     0.14880   0.49570   0.09210   0.01267  Uiso   1.00
C38    C     0.13940   0.50970   0.16120   0.01267  Uiso   1.00
C39    C     0.04920   0.47690   0.20180   0.01267  Uiso   1.00
C40    C     0.03760   0.49070   0.27320   0.01267  Uiso   1.00
C41    C     0.62530   0.32150   0.06240   0.01267  Uiso   1.00
C42    C     0.71530   0.28010   0.03340   0.01267  Uiso   1.00
C43    C     0.72770   0.20390   0.05180   0.01267  Uiso   1.00
C44    C     0.82010   0.15730   0.02420   0.01267  Uiso   1.00
C45    C     0.83190   0.08520   0.04540   0.01267  Uiso   1.00
C46    C     0.75100   0.05500   0.09390   0.01267  Uiso   1.00
C47    C     0.66120   0.09740   0.12070   0.01267  Uiso   1.00
C48    C     0.64730   0.17360   0.10130   0.01267  Uiso   1.00
C49    C     0.55510   0.21770   0.12830   0.01267  Uiso   1.00
C50    C     0.54390   0.29030   0.10960   0.01267  Uiso   1.00
C51    C     0.44800   0.04120   0.68960   0.01267  Uiso   1.00
C52    C     0.36260   0.08900   0.72120   0.01267  Uiso   1.00
C53    C     0.37250   0.10400   0.79040   0.01267  Uiso   1.00
C54    C     0.46500   0.07230   0.83030   0.01267  Uiso   1.00
C55    C     0.47870   0.08730   0.90120   0.01267  Uiso   1.00
C56    C     0.56600   0.05490   0.93910   0.01267  Uiso   1.00
C57    C     0.64880   0.00430   0.90790   0.01267  Uiso   1.00
C58    C     0.63940   0.99030   0.83880   0.01267  Uiso   1.00
C59    C     0.54920   0.02310   0.79820   0.01267  Uiso   1.00
C60    C     0.53760   0.00930   0.72680   0.01267  Uiso   1.00
C61    C     0.87470   0.67850   0.56240   0.01267  Uiso   1.00
C62    C     0.78470   0.71990   0.53340   0.01267  Uiso   1.00
C63    C     0.77230   0.79610   0.55180   0.01267  Uiso   1.00
C64    C     0.67990   0.84270   0.52420   0.01267  Uiso   1.00
C65    C     0.66810   0.91480   0.54540   0.01267  Uiso   1.00
C66    C     0.74900   0.94500   0.59390   0.01267  Uiso   1.00
C67    C     0.83880   0.90260   0.62070   0.01267  Uiso   1.00
C68    C     0.85270   0.82640   0.60130   0.01267  Uiso   1.00
C69    C     0.94490   0.78230   0.62830   0.01267  Uiso   1.00
C70    C     0.95610   0.70970   0.60960   0.01267  Uiso   1.00
C71    C     0.05200   0.95880   0.18960   0.01267  Uiso   1.00
C72    C     0.13740   0.91100   0.22120   0.01267  Uiso   1.00
C73    C     0.12750   0.89600   0.29040   0.01267  Uiso   1.00
C74    C     0.03500   0.92770   0.33030   0.01267  Uiso   1.00
C75    C     0.02130   0.91270   0.40120   0.01267  Uiso   1.00
C76    C     0.93400   0.94510   0.43910   0.01267  Uiso   1.00
C77    C     0.85120   0.99570   0.40790   0.01267  Uiso   1.00
C78    C     0.86060   0.00970   0.33880   0.01267  Uiso   1.00
C79    C     0.95080   0.97690   0.29820   0.01267  Uiso   1.00
C80    C     0.96240   0.99070   0.22680   0.01267  Uiso   1.00
C81    C     0.62530   0.17850   0.56240   0.01267  Uiso   1.00
C82    C     0.71530   0.21990   0.53340   0.01267  Uiso   1.00
C83    C     0.72770   0.29610   0.55180   0.01267  Uiso   1.00
C84    C     0.82010   0.34270   0.52420   0.01267  Uiso   1.00
C85    C     0.83190   0.41480   0.54540   0.01267  Uiso   1.00
C86    C     0.75100   0.44500   0.59390   0.01267  Uiso   1.00
C87    C     0.66120   0.40260   0.62070   0.01267  Uiso   1.00
C88    C     0.64730   0.32640   0.60130   0.01267  Uiso   1.00
C89    C     0.55510   0.28230   0.62830   0.01267  Uiso   1.00
C90    C     0.54390   0.20970   0.60960   0.01267  Uiso   1.00
C91    C     0.44800   0.45880   0.18960   0.01267  Uiso   1.00
C92    C     0.36260   0.41100   0.22120   0.01267  Uiso   1.00
C93    C     0.37250   0.39600   0.29040   0.01267  Uiso   1.00
C94    C     0.46500   0.42770   0.33030   0.01267  Uiso   1.00
C95    C     0.47870   0.41270   0.40120   0.01267  Uiso   1.00
C96    C     0.56600   0.44510   0.43910   0.01267  Uiso   1.00
C97    C     0.64880   0.49570   0.40790   0.01267  Uiso   1.00
C98    C     0.63940   0.50970   0.33880   0.01267  Uiso   1.00
C99    C     0.54920   0.47690   0.29820   0.01267  Uiso   1.00
C100   C     0.53760   0.49070   0.22680   0.01267  Uiso   1.00
C101   C     0.87470   0.82150   0.06240   0.01267  Uiso   1.00
C102   C     0.78470   0.78010   0.03340   0.01267  Uiso   1.00
C103   C     0.77230   0.70390   0.05180   0.01267  Uiso   1.00
C104   C     0.67990   0.65730   0.02420   0.01267  Uiso   1.00
C105   C     0.66810   0.58520   0.04540   0.01267  Uiso   1.00
C106   C     0.74900   0.55500   0.09390   0.01267  Uiso   1.00
C107   C     0.83880   0.59740   0.12070   0.01267  Uiso   1.00
C108   C     0.85270   0.67360   0.10130   0.01267  Uiso   1.00
C109   C     0.94490   0.71770   0.12830   0.01267  Uiso   1.00
C110   C     0.95610   0.79030   0.10960   0.01267  Uiso   1.00
C111   C     0.05200   0.54120   0.68960   0.01267  Uiso   1.00
C112   C     0.13740   0.58900   0.72120   0.01267  Uiso   1.00
C113   C     0.12750   0.60400   0.79040   0.01267  Uiso   1.00
C114   C     0.03500   0.57230   0.83030   0.01267  Uiso   1.00
C115   C     0.02130   0.58730   0.90120   0.01267  Uiso   1.00
C116   C     0.93400   0.55490   0.93910   0.01267  Uiso   1.00
C117   C     0.85120   0.50430   0.90790   0.01267  Uiso   1.00
C118   C     0.86060   0.49030   0.83880   0.01267  Uiso   1.00
C119   C     0.95080   0.52310   0.79820   0.01267  Uiso   1.00
C120   C     0.96240   0.50930   0.72680   0.01267  Uiso   1.00
C121   C     0.37470   0.67850   0.93760   0.01267  Uiso   1.00
C122   C     0.28470   0.71990   0.96660   0.01267  Uiso   1.00
C123   C     0.27230   0.79610   0.94820   0.01267  Uiso   1.00
C124   C     0.17990   0.84270   0.97580   0.01267  Uiso   1.00
C125   C     0.16810   0.91480   0.95460   0.01267  Uiso   1.00
C126   C     0.24900   0.94500   0.90610   0.01267  Uiso   1.00
C127   C     0.33880   0.90260   0.87930   0.01267  Uiso   1.00
C128   C     0.35270   0.82640   0.89870   0.01267  Uiso   1.00
C129   C     0.44490   0.78230   0.87170   0.01267  Uiso   1.00
C130   C     0.45610   0.70970   0.89040   0.01267  Uiso   1.00
C131   C     0.55200   0.95880   0.31040   0.01267  Uiso   1.00
C132   C     0.63740   0.91100   0.27880   0.01267  Uiso   1.00
C133   C     0.62750   0.89600   0.20960   0.01267  Uiso   1.00
C134   C     0.53500   0.92770   0.16970   0.01267  Uiso   1.00
C135   C     0.52130   0.91270   0.09880   0.01267  Uiso   1.00
C136   C     0.43400   0.94510   0.06090   0.01267  Uiso   1.00
C137   C     0.35120   0.99570   0.09210   0.01267  Uiso   1.00
C138   C     0.36060   0.00970   0.16120   0.01267  Uiso   1.00
C139   C     0.45080   0.97690   0.20180   0.01267  Uiso   1.00
C140   C     0.46240   0.99070   0.27320   0.01267  Uiso   1.00
C141   C     0.12530   0.32150   0.43760   0.01267  Uiso   1.00
C142   C     0.21530   0.28010   0.46660   0.01267  Uiso   1.00
C143   C     0.22770   0.20390   0.44820   0.01267  Uiso   1.00
C144   C     0.32010   0.15730   0.47580   0.01267  Uiso   1.00
C145   C     0.33190   0.08520   0.45460   0.01267  Uiso   1.00
C146   C     0.25100   0.05500   0.40610   0.01267  Uiso   1.00
C147   C     0.16120   0.09740   0.37930   0.01267  Uiso   1.00
C148   C     0.14730   0.17360   0.39870   0.01267  Uiso   1.00
C149   C     0.05510   0.21770   0.37170   0.01267  Uiso   1.00
C150   C     0.04390   0.29030   0.39040   0.01267  Uiso   1.00
C151   C     0.94800   0.04120   0.81040   0.01267  Uiso   1.00
C152   C     0.86260   0.08900   0.77880   0.01267  Uiso   1.00
C153   C     0.87250   0.10400   0.70960   0.01267  Uiso   1.00
C154   C     0.96500   0.07230   0.66970   0.01267  Uiso   1.00
C155   C     0.97870   0.08730   0.59880   0.01267  Uiso   1.00
C156   C     0.06600   0.05490   0.56090   0.01267  Uiso   1.00
C157   C     0.14880   0.00430   0.59210   0.01267  Uiso   1.00
C158   C     0.13940   0.99030   0.66120   0.01267  Uiso   1.00
C159   C     0.04920   0.02310   0.70180   0.01267  Uiso   1.00
C160   C     0.03760   0.00930   0.77320   0.01267  Uiso   1.00
O1     O     0.38380   0.89630   0.45360   0.01267  Uiso   1.00
O2     O     0.07710   0.54130   0.48010   0.01267  Uiso   1.00
O3     O     0.56010   0.53160   0.88000   0.01267  Uiso   1.00
O4     O     0.26340   0.47270   0.55330   0.01267  Uiso   1.00
O5     O     0.11620   0.10370   0.95360   0.01267  Uiso   1.00
O6     O     0.42290   0.45870   0.98010   0.01267  Uiso   1.00
O7     O     0.93990   0.46840   0.38000   0.01267  Uiso   1.00
O8     O     0.23660   0.52730   0.05330   0.01267  Uiso   1.00
O9     O     0.61620   0.39630   0.04640   0.01267  Uiso   1.00
O10    O     0.92290   0.04130   0.01990   0.01267  Uiso   1.00
O11    O     0.43990   0.03160   0.62000   0.01267  Uiso   1.00
O12    O     0.73660   0.97270   0.94670   0.01267  Uiso   1.00
O13    O     0.88380   0.60370   0.54640   0.01267  Uiso   1.00
O14    O     0.57710   0.95870   0.51990   0.01267  Uiso   1.00
O15    O     0.06010   0.96840   0.12000   0.01267  Uiso   1.00
O16    O     0.76340   0.02730   0.44670   0.01267  Uiso   1.00
O17    O     0.61620   0.10370   0.54640   0.01267  Uiso   1.00
O18    O     0.92290   0.45870   0.51990   0.01267  Uiso   1.00
O19    O     0.43990   0.46840   0.12000   0.01267  Uiso   1.00
O20    O     0.73660   0.52730   0.44670   0.01267  Uiso   1.00
O21    O     0.88380   0.89630   0.04640   0.01267  Uiso   1.00
O22    O     0.57710   0.54130   0.01990   0.01267  Uiso   1.00
O23    O     0.06010   0.53160   0.62000   0.01267  Uiso   1.00
O24    O     0.76340   0.47270   0.94670   0.01267  Uiso   1.00
O25    O     0.38380   0.60370   0.95360   0.01267  Uiso   1.00
O26    O     0.07710   0.95870   0.98010   0.01267  Uiso   1.00
O27    O     0.56010   0.96840   0.38000   0.01267  Uiso   1.00
O28    O     0.26340   0.02730   0.05330   0.01267  Uiso   1.00
O29    O     0.11620   0.39630   0.45360   0.01267  Uiso   1.00
O30    O     0.42290   0.04130   0.48010   0.01267  Uiso   1.00
O31    O     0.93990   0.03160   0.88000   0.01267  Uiso   1.00
O32    O     0.23660   0.97270   0.55330   0.01267  Uiso   1.00
