data_MAPFIS_clean
_audit_creation_date              2014-07-02
_audit_creation_method            'Materials Studio'
_symmetry_space_group_name_H-M    'P1'
_symmetry_Int_Tables_number       1
_symmetry_cell_setting            triclinic
loop_
_symmetry_equiv_pos_as_xyz
  x,y,z
_cell_length_a                    10.7620
_cell_length_b                    16.1370
_cell_length_c                    20.3680
_cell_angle_alpha                 111.6500
_cell_angle_beta                  90.0000
_cell_angle_gamma                 90.0000
loop_
_atom_site_label
_atom_site_type_symbol
_atom_site_fract_x
_atom_site_fract_y
_atom_site_fract_z
_atom_site_U_iso_or_equiv
_atom_site_adp_type
_atom_site_occupancy
Ti1    Ti    0.35980   0.46180   0.78830   0.01267  Uiso   1.00
Ti2    Ti    0.57850   0.54040   0.71380   0.01267  Uiso   1.00
Ti3    Ti    0.85980   0.03820   0.71170   0.01267  Uiso   1.00
Ti4    Ti    0.07850   0.95960   0.78620   0.01267  Uiso   1.00
Ti5    Ti    0.64020   0.53820   0.21170   0.01267  Uiso   1.00
Ti6    Ti    0.42150   0.45960   0.28620   0.01267  Uiso   1.00
Ti7    Ti    0.14020   0.96180   0.28830   0.01267  Uiso   1.00
Ti8    Ti    0.92150   0.04040   0.21380   0.01267  Uiso   1.00
H1     H     0.58730   0.30730   0.63150   0.01267  Uiso   1.00
H2     H     0.71390   0.18380   0.61690   0.01267  Uiso   1.00
H3     H     0.27720   0.22420   0.67550   0.01267  Uiso   1.00
H4     H     0.65250   0.39880   0.83850   0.01267  Uiso   1.00
H5     H     0.16200   0.72830   0.68240   0.01267  Uiso   1.00
H6     H     0.29250   0.60750   0.66740   0.01267  Uiso   1.00
H7     H     0.35840   0.70400   0.87540   0.01267  Uiso   1.00
H8     H     0.22140   0.81930   0.89020   0.01267  Uiso   1.00
H9     H     0.07340   0.63630   0.80770   0.01267  Uiso   1.00
H10    H     0.87960   0.63710   0.75640   0.01267  Uiso   1.00
H11    H     0.87190   0.36970   0.68970   0.01267  Uiso   1.00
H12    H     0.06590   0.36820   0.73770   0.01267  Uiso   1.00
H13    H     0.44550   0.37290   0.90400   0.01267  Uiso   1.00
H14    H     0.49000   0.63870   0.99070   0.01267  Uiso   1.00
H15    H     0.31640   0.48170   0.55210   0.01267  Uiso   1.00
H16    H     0.68850   0.51140   0.56010   0.01267  Uiso   1.00
H17    H     0.08730   0.19270   0.86850   0.01267  Uiso   1.00
H18    H     0.21390   0.31620   0.88310   0.01267  Uiso   1.00
H19    H     0.77720   0.27580   0.82450   0.01267  Uiso   1.00
H20    H     0.15250   0.10120   0.66150   0.01267  Uiso   1.00
H21    H     0.66200   0.77170   0.81760   0.01267  Uiso   1.00
H22    H     0.79250   0.89250   0.83260   0.01267  Uiso   1.00
H23    H     0.85840   0.79600   0.62460   0.01267  Uiso   1.00
H24    H     0.72140   0.68070   0.60980   0.01267  Uiso   1.00
H25    H     0.57340   0.86370   0.69230   0.01267  Uiso   1.00
H26    H     0.37960   0.86290   0.74360   0.01267  Uiso   1.00
H27    H     0.37190   0.13030   0.81030   0.01267  Uiso   1.00
H28    H     0.56590   0.13180   0.76230   0.01267  Uiso   1.00
H29    H     0.94550   0.12710   0.59600   0.01267  Uiso   1.00
H30    H     0.99000   0.86130   0.50930   0.01267  Uiso   1.00
H31    H     0.81640   0.01830   0.94790   0.01267  Uiso   1.00
H32    H     0.18850   0.98860   0.93990   0.01267  Uiso   1.00
H33    H     0.41270   0.69270   0.36850   0.01267  Uiso   1.00
H34    H     0.28610   0.81620   0.38310   0.01267  Uiso   1.00
H35    H     0.72280   0.77580   0.32450   0.01267  Uiso   1.00
H36    H     0.34750   0.60120   0.16150   0.01267  Uiso   1.00
H37    H     0.83800   0.27170   0.31760   0.01267  Uiso   1.00
H38    H     0.70750   0.39250   0.33260   0.01267  Uiso   1.00
H39    H     0.64160   0.29600   0.12460   0.01267  Uiso   1.00
H40    H     0.77860   0.18070   0.10980   0.01267  Uiso   1.00
H41    H     0.92660   0.36370   0.19230   0.01267  Uiso   1.00
H42    H     0.12040   0.36290   0.24360   0.01267  Uiso   1.00
H43    H     0.12810   0.63030   0.31030   0.01267  Uiso   1.00
H44    H     0.93410   0.63180   0.26230   0.01267  Uiso   1.00
H45    H     0.55450   0.62710   0.09600   0.01267  Uiso   1.00
H46    H     0.51000   0.36130   0.00930   0.01267  Uiso   1.00
H47    H     0.68360   0.51830   0.44790   0.01267  Uiso   1.00
H48    H     0.31150   0.48860   0.43990   0.01267  Uiso   1.00
H49    H     0.91270   0.80730   0.13150   0.01267  Uiso   1.00
H50    H     0.78610   0.68380   0.11690   0.01267  Uiso   1.00
H51    H     0.22280   0.72420   0.17550   0.01267  Uiso   1.00
H52    H     0.84750   0.89880   0.33850   0.01267  Uiso   1.00
H53    H     0.33800   0.22830   0.18240   0.01267  Uiso   1.00
H54    H     0.20750   0.10750   0.16740   0.01267  Uiso   1.00
H55    H     0.14160   0.20400   0.37540   0.01267  Uiso   1.00
H56    H     0.27860   0.31930   0.39020   0.01267  Uiso   1.00
H57    H     0.42660   0.13630   0.30770   0.01267  Uiso   1.00
H58    H     0.62040   0.13710   0.25640   0.01267  Uiso   1.00
H59    H     0.62810   0.86970   0.18970   0.01267  Uiso   1.00
H60    H     0.43410   0.86820   0.23770   0.01267  Uiso   1.00
H61    H     0.05450   0.87290   0.40400   0.01267  Uiso   1.00
H62    H     0.01000   0.13870   0.49070   0.01267  Uiso   1.00
H63    H     0.18360   0.98170   0.05210   0.01267  Uiso   1.00
H64    H     0.81150   0.01140   0.06010   0.01267  Uiso   1.00
C1     C     0.60220   0.36260   0.73650   0.01267  Uiso   1.00
C2     C     0.62410   0.30080   0.67060   0.01267  Uiso   1.00
C3     C     0.70200   0.22720   0.66150   0.01267  Uiso   1.00
C4     C     0.26080   0.27990   0.78040   0.01267  Uiso   1.00
C5     C     0.24010   0.21800   0.71460   0.01267  Uiso   1.00
C6     C     0.66300   0.35500   0.79390   0.01267  Uiso   1.00
C7     C     0.17750   0.78490   0.78730   0.01267  Uiso   1.00
C8     C     0.19980   0.72250   0.72150   0.01267  Uiso   1.00
C9     C     0.27890   0.65010   0.71220   0.01267  Uiso   1.00
C10    C     0.33620   0.64280   0.77030   0.01267  Uiso   1.00
C11    C     0.31680   0.70750   0.83650   0.01267  Uiso   1.00
C12    C     0.23620   0.77730   0.84520   0.01267  Uiso   1.00
C13    C     0.08860   0.50390   0.77870   0.01267  Uiso   1.00
C14    C     0.03270   0.58270   0.78400   0.01267  Uiso   1.00
C15    C     0.91560   0.58380   0.75420   0.01267  Uiso   1.00
C16    C     0.85360   0.50150   0.72090   0.01267  Uiso   1.00
C17    C     0.91190   0.42350   0.71410   0.01267  Uiso   1.00
C18    C     0.02820   0.42200   0.74240   0.01267  Uiso   1.00
C19    C     0.45600   0.50890   0.93880   0.01267  Uiso   1.00
C20    C     0.46610   0.42370   0.94270   0.01267  Uiso   1.00
C21    C     0.49270   0.58320   0.99470   0.01267  Uiso   1.00
C22    C     0.50050   0.48670   0.56550   0.01267  Uiso   1.00
C23    C     0.39080   0.48700   0.53070   0.01267  Uiso   1.00
C24    C     0.61370   0.50500   0.53580   0.01267  Uiso   1.00
C25    C     0.10220   0.13740   0.76350   0.01267  Uiso   1.00
C26    C     0.12410   0.19920   0.82940   0.01267  Uiso   1.00
C27    C     0.20200   0.27280   0.83850   0.01267  Uiso   1.00
C28    C     0.76080   0.22010   0.71960   0.01267  Uiso   1.00
C29    C     0.74010   0.28200   0.78540   0.01267  Uiso   1.00
C30    C     0.16300   0.14500   0.70610   0.01267  Uiso   1.00
C31    C     0.67750   0.71510   0.71270   0.01267  Uiso   1.00
C32    C     0.69980   0.77750   0.77850   0.01267  Uiso   1.00
C33    C     0.77890   0.84990   0.78780   0.01267  Uiso   1.00
C34    C     0.83620   0.85720   0.72970   0.01267  Uiso   1.00
C35    C     0.81680   0.79250   0.66350   0.01267  Uiso   1.00
C36    C     0.73620   0.72270   0.65480   0.01267  Uiso   1.00
C37    C     0.58860   0.99610   0.72130   0.01267  Uiso   1.00
C38    C     0.53270   0.91730   0.71600   0.01267  Uiso   1.00
C39    C     0.41560   0.91620   0.74580   0.01267  Uiso   1.00
C40    C     0.35360   0.99850   0.77910   0.01267  Uiso   1.00
C41    C     0.41190   0.07650   0.78590   0.01267  Uiso   1.00
C42    C     0.52820   0.07800   0.75760   0.01267  Uiso   1.00
C43    C     0.95600   0.99110   0.56120   0.01267  Uiso   1.00
C44    C     0.96610   0.07630   0.55730   0.01267  Uiso   1.00
C45    C     0.99270   0.91680   0.50530   0.01267  Uiso   1.00
C46    C     0.00050   0.01330   0.93450   0.01267  Uiso   1.00
C47    C     0.89080   0.01300   0.96930   0.01267  Uiso   1.00
C48    C     0.11370   0.99500   0.96420   0.01267  Uiso   1.00
C49    C     0.39780   0.63740   0.26350   0.01267  Uiso   1.00
C50    C     0.37590   0.69920   0.32940   0.01267  Uiso   1.00
C51    C     0.29800   0.77280   0.33850   0.01267  Uiso   1.00
C52    C     0.73920   0.72010   0.21960   0.01267  Uiso   1.00
C53    C     0.75990   0.78200   0.28540   0.01267  Uiso   1.00
C54    C     0.33700   0.64500   0.20610   0.01267  Uiso   1.00
C55    C     0.82250   0.21510   0.21270   0.01267  Uiso   1.00
C56    C     0.80020   0.27750   0.27850   0.01267  Uiso   1.00
C57    C     0.72110   0.34990   0.28780   0.01267  Uiso   1.00
C58    C     0.66380   0.35720   0.22970   0.01267  Uiso   1.00
C59    C     0.68320   0.29250   0.16350   0.01267  Uiso   1.00
C60    C     0.76380   0.22270   0.15480   0.01267  Uiso   1.00
C61    C     0.91140   0.49610   0.22130   0.01267  Uiso   1.00
C62    C     0.96730   0.41730   0.21600   0.01267  Uiso   1.00
C63    C     0.08440   0.41620   0.24580   0.01267  Uiso   1.00
C64    C     0.14640   0.49850   0.27910   0.01267  Uiso   1.00
C65    C     0.08810   0.57650   0.28590   0.01267  Uiso   1.00
C66    C     0.97180   0.57800   0.25760   0.01267  Uiso   1.00
C67    C     0.54400   0.49110   0.06120   0.01267  Uiso   1.00
C68    C     0.53390   0.57630   0.05730   0.01267  Uiso   1.00
C69    C     0.50730   0.41680   0.00530   0.01267  Uiso   1.00
C70    C     0.49950   0.51330   0.43450   0.01267  Uiso   1.00
C71    C     0.60920   0.51300   0.46930   0.01267  Uiso   1.00
C72    C     0.38630   0.49500   0.46420   0.01267  Uiso   1.00
C73    C     0.89780   0.86260   0.23650   0.01267  Uiso   1.00
C74    C     0.87590   0.80080   0.17060   0.01267  Uiso   1.00
C75    C     0.79800   0.72720   0.16150   0.01267  Uiso   1.00
C76    C     0.23920   0.77990   0.28040   0.01267  Uiso   1.00
C77    C     0.25990   0.71800   0.21460   0.01267  Uiso   1.00
C78    C     0.83700   0.85500   0.29390   0.01267  Uiso   1.00
C79    C     0.32250   0.28490   0.28730   0.01267  Uiso   1.00
C80    C     0.30020   0.22250   0.22150   0.01267  Uiso   1.00
C81    C     0.22110   0.15010   0.21220   0.01267  Uiso   1.00
C82    C     0.16380   0.14280   0.27030   0.01267  Uiso   1.00
C83    C     0.18320   0.20750   0.33650   0.01267  Uiso   1.00
C84    C     0.26380   0.27730   0.34520   0.01267  Uiso   1.00
C85    C     0.41140   0.00390   0.27870   0.01267  Uiso   1.00
C86    C     0.46730   0.08270   0.28400   0.01267  Uiso   1.00
C87    C     0.58440   0.08380   0.25420   0.01267  Uiso   1.00
C88    C     0.64640   0.00150   0.22090   0.01267  Uiso   1.00
C89    C     0.58810   0.92350   0.21410   0.01267  Uiso   1.00
C90    C     0.47180   0.92200   0.24240   0.01267  Uiso   1.00
C91    C     0.04400   0.00890   0.43880   0.01267  Uiso   1.00
C92    C     0.03390   0.92370   0.44270   0.01267  Uiso   1.00
C93    C     0.00730   0.08320   0.49470   0.01267  Uiso   1.00
C94    C     0.99950   0.98670   0.06550   0.01267  Uiso   1.00
C95    C     0.10920   0.98700   0.03070   0.01267  Uiso   1.00
C96    C     0.88630   0.00500   0.03580   0.01267  Uiso   1.00
O1     O     0.20170   0.50620   0.81000   0.01267  Uiso   1.00
O2     O     0.53150   0.43690   0.74620   0.01267  Uiso   1.00
O3     O     0.41900   0.51720   0.87680   0.01267  Uiso   1.00
O4     O     0.41230   0.57020   0.76290   0.01267  Uiso   1.00
O5     O     0.33500   0.35240   0.78810   0.01267  Uiso   1.00
O6     O     0.09540   0.85330   0.79470   0.01267  Uiso   1.00
O7     O     0.73810   0.50290   0.69500   0.01267  Uiso   1.00
O8     O     0.50090   0.47900   0.62830   0.01267  Uiso   1.00
O9     O     0.70170   0.99380   0.69000   0.01267  Uiso   1.00
O10    O     0.03150   0.06310   0.75380   0.01267  Uiso   1.00
O11    O     0.91900   0.98280   0.62320   0.01267  Uiso   1.00
O12    O     0.91230   0.92980   0.73710   0.01267  Uiso   1.00
O13    O     0.83500   0.14760   0.71190   0.01267  Uiso   1.00
O14    O     0.59540   0.64670   0.70530   0.01267  Uiso   1.00
O15    O     0.23810   0.99710   0.80500   0.01267  Uiso   1.00
O16    O     0.00090   0.02100   0.87170   0.01267  Uiso   1.00
O17    O     0.79830   0.49380   0.19000   0.01267  Uiso   1.00
O18    O     0.46850   0.56310   0.25380   0.01267  Uiso   1.00
O19    O     0.58100   0.48280   0.12320   0.01267  Uiso   1.00
O20    O     0.58770   0.42980   0.23710   0.01267  Uiso   1.00
O21    O     0.66500   0.64760   0.21190   0.01267  Uiso   1.00
O22    O     0.90460   0.14670   0.20530   0.01267  Uiso   1.00
O23    O     0.26190   0.49710   0.30500   0.01267  Uiso   1.00
O24    O     0.49910   0.52100   0.37170   0.01267  Uiso   1.00
O25    O     0.29830   0.00620   0.31000   0.01267  Uiso   1.00
O26    O     0.96850   0.93690   0.24620   0.01267  Uiso   1.00
O27    O     0.08100   0.01720   0.37680   0.01267  Uiso   1.00
O28    O     0.08770   0.07020   0.26290   0.01267  Uiso   1.00
O29    O     0.16500   0.85240   0.28810   0.01267  Uiso   1.00
O30    O     0.40460   0.35330   0.29470   0.01267  Uiso   1.00
O31    O     0.76190   0.00290   0.19500   0.01267  Uiso   1.00
O32    O     0.99910   0.97900   0.12830   0.01267  Uiso   1.00
