data_image0
_cell_length_a       8.4515
_cell_length_b       12.3972
_cell_length_c       12.568
_cell_angle_alpha    110.453
_cell_angle_beta     102.132
_cell_angle_gamma    109.619

_symmetry_space_group_name_H-M    "P 1"
_symmetry_int_tables_number       1

loop_
  _symmetry_equiv_pos_as_xyz
  'x, y, z'

loop_
  _atom_site_label
  _atom_site_occupancy
  _atom_site_fract_x
  _atom_site_fract_y
  _atom_site_fract_z
  _atom_site_thermal_displace_type
  _atom_site_B_iso_or_equiv
  _atom_site_type_symbol
  Yb1      1.0000 0.70597  0.54147  0.40361  Biso   1.000  Yb
  O1       1.0000 0.86100  0.73390  0.39270  Biso   1.000  O
  O2       1.0000 0.02820  0.67170  0.49320  Biso   1.000  O
  C1       1.0000 0.01430  0.74890  0.45000  Biso   1.000  C
  C2       1.0000 0.18230  0.85290  0.46380  Biso   1.000  C
  C3       1.0000 0.16940  0.95210  0.43560  Biso   1.000  C
  H1       1.0000 0.05510  0.95110  0.40810  Biso   1.000  H
  C4       1.0000 0.32300  0.04920  0.44840  Biso   1.000  C
  H2       1.0000 0.31490  0.11670  0.43180  Biso   1.000  H
  C5       1.0000 0.49340  0.04940  0.48630  Biso   1.000  C
  C6       1.0000 0.65340  0.14660  0.49690  Biso   1.000  C
  H3       1.0000 0.64640  0.21220  0.47640  Biso   1.000  H
  O3       1.0000 0.55030  0.49150  0.20100  Biso   1.000  O
  O4       1.0000 0.44080  0.56660  0.33890  Biso   1.000  O
  C7       1.0000 0.43010  0.52130  0.22750  Biso   1.000  C
  C8       1.0000 0.27590  0.50350  0.12820  Biso   1.000  C
  C9       1.0000 0.26170  0.44490  0.00570  Biso   1.000  C
  H4       1.0000 0.34890  0.41670  0.98780  Biso   1.000  H
  C10      1.0000 0.12340  0.42830  0.91240  Biso   1.000  C
  H5       1.0000 0.11490  0.38860  0.83030  Biso   1.000  H
  C11      1.0000 0.99260  0.47050  0.93830  Biso   1.000  C
  C12      1.0000 0.84930  0.45450  0.84420  Biso   1.000  C
  H6       1.0000 0.83860  0.41480  0.76160  Biso   1.000  H
  O5       1.0000 0.71650  0.67300  0.57840  Biso   1.000  O
  O6       1.0000 0.51600  0.65850  0.66780  Biso   1.000  O
  C13      1.0000 0.67150  0.70860  0.66850  Biso   1.000  C
  C14      1.0000 0.81790  0.82100  0.78510  Biso   1.000  C
  C15      1.0000 0.99970  0.86580  0.79610  Biso   1.000  C
  H7       1.0000 0.03000  0.82830  0.72830  Biso   1.000  H
  C16      1.0000 0.13190  0.96220  0.90320  Biso   1.000  C
  H8       1.0000 0.25460  0.98920  0.91030  Biso   1.000  H
  C17      1.0000 0.09130  0.02350  0.00440  Biso   1.000  C
  C18      1.0000 0.22650  0.12700  0.11670  Biso   1.000  C
  H9       1.0000 0.34920  0.16080  0.12390  Biso   1.000  H
  Yb2      1.0000 0.29403  0.45853  0.59639  Biso   1.000  Yb
  O7       1.0000 0.13900  0.26610  0.60730  Biso   1.000  O
  O8       1.0000 0.97180  0.32830  0.50680  Biso   1.000  O
  C19      1.0000 0.98570  0.25110  0.55000  Biso   1.000  C
  C20      1.0000 0.81770  0.14710  0.53620  Biso   1.000  C
  C21      1.0000 0.83060  0.04790  0.56440  Biso   1.000  C
  H10      1.0000 0.94490  0.04890  0.59190  Biso   1.000  H
  C22      1.0000 0.67700  0.95080  0.55160  Biso   1.000  C
  H11      1.0000 0.68510  0.88330  0.56820  Biso   1.000  H
  C23      1.0000 0.50660  0.95060  0.51370  Biso   1.000  C
  C24      1.0000 0.34660  0.85340  0.50310  Biso   1.000  C
  H12      1.0000 0.35360  0.78780  0.52360  Biso   1.000  H
  O9       1.0000 0.44970  0.50850  0.79900  Biso   1.000  O
  O10      1.0000 0.55920  0.43340  0.66110  Biso   1.000  O
  C25      1.0000 0.56990  0.47870  0.77250  Biso   1.000  C
  C26      1.0000 0.72410  0.49650  0.87180  Biso   1.000  C
  C27      1.0000 0.73830  0.55510  0.99430  Biso   1.000  C
  H13      1.0000 0.65110  0.58330  0.01220  Biso   1.000  H
  C28      1.0000 0.87660  0.57170  0.08760  Biso   1.000  C
  H14      1.0000 0.88510  0.61140  0.16970  Biso   1.000  H
  C29      1.0000 0.00740  0.52950  0.06170  Biso   1.000  C
  C30      1.0000 0.15070  0.54550  0.15580  Biso   1.000  C
  H15      1.0000 0.16140  0.58520  0.23840  Biso   1.000  H
  O11      1.0000 0.28350  0.32700  0.42160  Biso   1.000  O
  O12      1.0000 0.48400  0.34150  0.33220  Biso   1.000  O
  C31      1.0000 0.32850  0.29140  0.33150  Biso   1.000  C
  C32      1.0000 0.18210  0.17900  0.21490  Biso   1.000  C
  C33      1.0000 0.00030  0.13420  0.20390  Biso   1.000  C
  H16      1.0000 0.97000  0.17170  0.27170  Biso   1.000  H
  C34      1.0000 0.86810  0.03780  0.09680  Biso   1.000  C
  H17      1.0000 0.74540  0.01080  0.08970  Biso   1.000  H
  C35      1.0000 0.90870  0.97650  0.99560  Biso   1.000  C
  C36      1.0000 0.77350  0.87300  0.88330  Biso   1.000  C
  H18      1.0000 0.65080  0.83920  0.87610  Biso   1.000  H
