data_image0
_cell_length_a       19.6675
_cell_length_b       11.9457
_cell_length_c       21.9773
_cell_angle_alpha    90
_cell_angle_beta     97.166
_cell_angle_gamma    90

_symmetry_space_group_name_H-M    "P 1"
_symmetry_int_tables_number       1

loop_
  _symmetry_equiv_pos_as_xyz
  'x, y, z'

loop_
  _atom_site_label
  _atom_site_occupancy
  _atom_site_fract_x
  _atom_site_fract_y
  _atom_site_fract_z
  _atom_site_thermal_displace_type
  _atom_site_B_iso_or_equiv
  _atom_site_type_symbol
  Eu1      1.0000 0.33155  0.32989  0.97432  Biso   1.000  Eu
  O1       1.0000 0.30013  0.15610  0.01561  Biso   1.000  O
  O2       1.0000 0.17794  0.13580  0.91845  Biso   1.000  O
  O3       1.0000 0.24169  0.00070  0.02346  Biso   1.000  O
  O4       1.0000 0.26671  0.23310  0.89176  Biso   1.000  O
  O5       1.0000 0.55136  0.72130  0.97731  Biso   1.000  O
  C1       1.0000 0.16430  0.17320  0.71110  Biso   1.000  C
  H1       1.0000 0.15140  0.22860  0.68080  Biso   1.000  H
  O6       1.0000 0.15150  0.92880  0.61433  Biso   1.000  O
  O7       1.0000 0.58393  0.78490  0.06972  Biso   1.000  O
  C2       1.0000 0.18830  0.81840  0.84550  Biso   1.000  C
  H2       1.0000 0.14910  0.80560  0.81650  Biso   1.000  H
  O8       1.0000 0.09562  0.09070  0.59829  Biso   1.000  O
  C3       1.0000 0.21840  0.16650  0.88140  Biso   1.000  C
  C4       1.0000 0.47610  0.84730  0.02100  Biso   1.000  C
  C5       1.0000 0.42010  0.82500  0.97700  Biso   1.000  C
  H3       1.0000 0.42230  0.76510  0.94890  Biso   1.000  H
  N1       1.0000 0.27680  0.94510  0.88923  Biso   1.000  N
  C6       1.0000 0.29980  0.86370  0.92840  Biso   1.000  C
  C7       1.0000 0.13440  0.02440  0.63080  Biso   1.000  C
  C8       1.0000 0.35910  0.98140  0.01390  Biso   1.000  C
  C9       1.0000 0.20350  0.12390  0.81630  Biso   1.000  C
  C10      1.0000 0.41630  0.00440  0.05700  Biso   1.000  C
  H4       1.0000 0.41580  0.06750  0.08330  Biso   1.000  H
  C11      1.0000 0.54030  0.77960  0.02270  Biso   1.000  C
  C12      1.0000 0.20110  0.01050  0.80120  Biso   1.000  C
  C13      1.0000 0.22250  0.92140  0.84740  Biso   1.000  C
  C14      1.0000 0.18010  0.97970  0.74020  Biso   1.000  C
  H5       1.0000 0.17940  0.90280  0.72910  Biso   1.000  H
  C15      1.0000 0.47360  0.93540  0.06160  Biso   1.000  C
  H6       1.0000 0.51110  0.94880  0.09240  Biso   1.000  H
  C16      1.0000 0.18720  0.20490  0.77070  Biso   1.000  C
  H7       1.0000 0.19200  0.28210  0.78070  Biso   1.000  H
  C17      1.0000 0.29670  0.04950  0.01700  Biso   1.000  C
  C18      1.0000 0.36050  0.89090  0.97420  Biso   1.000  C
  C19      1.0000 0.21280  0.73560  0.88650  Biso   1.000  C
  H8       1.0000 0.19070  0.66490  0.88620  Biso   1.000  H
  C20      1.0000 0.16020  0.06030  0.69550  Biso   1.000  C
  C21      1.0000 0.27000  0.75760  0.92810  Biso   1.000  C
  H9       1.0000 0.28880  0.70140  0.95590  Biso   1.000  H
  Eu2      1.0000 0.83155  0.82989  0.97432  Biso   1.000  Eu
  O9       1.0000 0.80013  0.65610  0.01561  Biso   1.000  O
  O10      1.0000 0.67794  0.63580  0.91845  Biso   1.000  O
  O11      1.0000 0.74169  0.50070  0.02346  Biso   1.000  O
  O12      1.0000 0.76671  0.73310  0.89176  Biso   1.000  O
  O13      1.0000 0.05136  0.22130  0.97731  Biso   1.000  O
  C22      1.0000 0.66430  0.67320  0.71110  Biso   1.000  C
  H10      1.0000 0.65140  0.72860  0.68080  Biso   1.000  H
  O14      1.0000 0.65150  0.42880  0.61433  Biso   1.000  O
  O15      1.0000 0.08393  0.28490  0.06972  Biso   1.000  O
  C23      1.0000 0.68830  0.31840  0.84550  Biso   1.000  C
  H11      1.0000 0.64910  0.30560  0.81650  Biso   1.000  H
  O16      1.0000 0.59562  0.59070  0.59829  Biso   1.000  O
  C24      1.0000 0.71840  0.66650  0.88140  Biso   1.000  C
  C25      1.0000 0.97610  0.34730  0.02100  Biso   1.000  C
  C26      1.0000 0.92010  0.32500  0.97700  Biso   1.000  C
  H12      1.0000 0.92230  0.26510  0.94890  Biso   1.000  H
  N2       1.0000 0.77680  0.44510  0.88923  Biso   1.000  N
  C27      1.0000 0.79980  0.36370  0.92840  Biso   1.000  C
  C28      1.0000 0.63440  0.52440  0.63080  Biso   1.000  C
  C29      1.0000 0.85910  0.48140  0.01390  Biso   1.000  C
  C30      1.0000 0.70350  0.62390  0.81630  Biso   1.000  C
  C31      1.0000 0.91630  0.50440  0.05700  Biso   1.000  C
  H13      1.0000 0.91580  0.56750  0.08330  Biso   1.000  H
  C32      1.0000 0.04030  0.27960  0.02270  Biso   1.000  C
  C33      1.0000 0.70110  0.51050  0.80120  Biso   1.000  C
  C34      1.0000 0.72250  0.42140  0.84740  Biso   1.000  C
  C35      1.0000 0.68010  0.47970  0.74020  Biso   1.000  C
  H14      1.0000 0.67940  0.40280  0.72910  Biso   1.000  H
  C36      1.0000 0.97360  0.43540  0.06160  Biso   1.000  C
  H15      1.0000 0.01110  0.44880  0.09240  Biso   1.000  H
  C37      1.0000 0.68720  0.70490  0.77070  Biso   1.000  C
  H16      1.0000 0.69200  0.78210  0.78070  Biso   1.000  H
  C38      1.0000 0.79670  0.54950  0.01700  Biso   1.000  C
  C39      1.0000 0.86050  0.39090  0.97420  Biso   1.000  C
  C40      1.0000 0.71280  0.23560  0.88650  Biso   1.000  C
  H17      1.0000 0.69070  0.16490  0.88620  Biso   1.000  H
  C41      1.0000 0.66020  0.56030  0.69550  Biso   1.000  C
  C42      1.0000 0.77000  0.25760  0.92810  Biso   1.000  C
  H18      1.0000 0.78880  0.20140  0.95590  Biso   1.000  H
  Eu3      1.0000 0.66845  0.32989  0.52568  Biso   1.000  Eu
  O17      1.0000 0.69987  0.15610  0.48439  Biso   1.000  O
  O18      1.0000 0.82206  0.13580  0.58155  Biso   1.000  O
  O19      1.0000 0.75831  0.00070  0.47654  Biso   1.000  O
  O20      1.0000 0.73329  0.23310  0.60824  Biso   1.000  O
  O21      1.0000 0.44864  0.72130  0.52269  Biso   1.000  O
  C43      1.0000 0.83570  0.17320  0.78890  Biso   1.000  C
  H19      1.0000 0.84860  0.22860  0.81920  Biso   1.000  H
  O22      1.0000 0.84850  0.92880  0.88567  Biso   1.000  O
  O23      1.0000 0.41607  0.78490  0.43028  Biso   1.000  O
  C44      1.0000 0.81170  0.81840  0.65450  Biso   1.000  C
  H20      1.0000 0.85090  0.80560  0.68350  Biso   1.000  H
  O24      1.0000 0.90438  0.09070  0.90171  Biso   1.000  O
  C45      1.0000 0.78160  0.16650  0.61860  Biso   1.000  C
  C46      1.0000 0.52390  0.84730  0.47900  Biso   1.000  C
  C47      1.0000 0.57990  0.82500  0.52300  Biso   1.000  C
  H21      1.0000 0.57770  0.76510  0.55110  Biso   1.000  H
  N3       1.0000 0.72320  0.94510  0.61077  Biso   1.000  N
  C48      1.0000 0.70020  0.86370  0.57160  Biso   1.000  C
  C49      1.0000 0.86560  0.02440  0.86920  Biso   1.000  C
  C50      1.0000 0.64090  0.98140  0.48610  Biso   1.000  C
  C51      1.0000 0.79650  0.12390  0.68370  Biso   1.000  C
  C52      1.0000 0.58370  0.00440  0.44300  Biso   1.000  C
  H22      1.0000 0.58420  0.06750  0.41670  Biso   1.000  H
  C53      1.0000 0.45970  0.77960  0.47730  Biso   1.000  C
  C54      1.0000 0.79890  0.01050  0.69880  Biso   1.000  C
  C55      1.0000 0.77750  0.92140  0.65260  Biso   1.000  C
  C56      1.0000 0.81990  0.97970  0.75980  Biso   1.000  C
  H23      1.0000 0.82060  0.90280  0.77090  Biso   1.000  H
  C57      1.0000 0.52640  0.93540  0.43840  Biso   1.000  C
  H24      1.0000 0.48890  0.94880  0.40760  Biso   1.000  H
  C58      1.0000 0.81280  0.20490  0.72930  Biso   1.000  C
  H25      1.0000 0.80800  0.28210  0.71930  Biso   1.000  H
  C59      1.0000 0.70330  0.04950  0.48300  Biso   1.000  C
  C60      1.0000 0.63950  0.89090  0.52580  Biso   1.000  C
  C61      1.0000 0.78720  0.73560  0.61350  Biso   1.000  C
  H26      1.0000 0.80930  0.66490  0.61380  Biso   1.000  H
  C62      1.0000 0.83980  0.06030  0.80450  Biso   1.000  C
  C63      1.0000 0.73000  0.75760  0.57190  Biso   1.000  C
  H27      1.0000 0.71120  0.70140  0.54410  Biso   1.000  H
  Eu4      1.0000 0.16845  0.82989  0.52568  Biso   1.000  Eu
  O25      1.0000 0.19987  0.65610  0.48439  Biso   1.000  O
  O26      1.0000 0.32206  0.63580  0.58155  Biso   1.000  O
  O27      1.0000 0.25831  0.50070  0.47654  Biso   1.000  O
  O28      1.0000 0.23329  0.73310  0.60824  Biso   1.000  O
  O29      1.0000 0.94864  0.22130  0.52269  Biso   1.000  O
  C64      1.0000 0.33570  0.67320  0.78890  Biso   1.000  C
  H28      1.0000 0.34860  0.72860  0.81920  Biso   1.000  H
  O30      1.0000 0.34850  0.42880  0.88567  Biso   1.000  O
  O31      1.0000 0.91607  0.28490  0.43028  Biso   1.000  O
  C65      1.0000 0.31170  0.31840  0.65450  Biso   1.000  C
  H29      1.0000 0.35090  0.30560  0.68350  Biso   1.000  H
  O32      1.0000 0.40438  0.59070  0.90171  Biso   1.000  O
  C66      1.0000 0.28160  0.66650  0.61860  Biso   1.000  C
  C67      1.0000 0.02390  0.34730  0.47900  Biso   1.000  C
  C68      1.0000 0.07990  0.32500  0.52300  Biso   1.000  C
  H30      1.0000 0.07770  0.26510  0.55110  Biso   1.000  H
  N4       1.0000 0.22320  0.44510  0.61077  Biso   1.000  N
  C69      1.0000 0.20020  0.36370  0.57160  Biso   1.000  C
  C70      1.0000 0.36560  0.52440  0.86920  Biso   1.000  C
  C71      1.0000 0.14090  0.48140  0.48610  Biso   1.000  C
  C72      1.0000 0.29650  0.62390  0.68370  Biso   1.000  C
  C73      1.0000 0.08370  0.50440  0.44300  Biso   1.000  C
  H31      1.0000 0.08420  0.56750  0.41670  Biso   1.000  H
  C74      1.0000 0.95970  0.27960  0.47730  Biso   1.000  C
  C75      1.0000 0.29890  0.51050  0.69880  Biso   1.000  C
  C76      1.0000 0.27750  0.42140  0.65260  Biso   1.000  C
  C77      1.0000 0.31990  0.47970  0.75980  Biso   1.000  C
  H32      1.0000 0.32060  0.40280  0.77090  Biso   1.000  H
  C78      1.0000 0.02640  0.43540  0.43840  Biso   1.000  C
  H33      1.0000 0.98890  0.44880  0.40760  Biso   1.000  H
  C79      1.0000 0.31280  0.70490  0.72930  Biso   1.000  C
  H34      1.0000 0.30800  0.78210  0.71930  Biso   1.000  H
  C80      1.0000 0.20330  0.54950  0.48300  Biso   1.000  C
  C81      1.0000 0.13950  0.39090  0.52580  Biso   1.000  C
  C82      1.0000 0.28720  0.23560  0.61350  Biso   1.000  C
  H35      1.0000 0.30930  0.16490  0.61380  Biso   1.000  H
  C83      1.0000 0.33980  0.56030  0.80450  Biso   1.000  C
  C84      1.0000 0.23000  0.25760  0.57190  Biso   1.000  C
  H36      1.0000 0.21120  0.20140  0.54410  Biso   1.000  H
  Eu5      1.0000 0.66845  0.67011  0.02568  Biso   1.000  Eu
  O33      1.0000 0.69987  0.84390  0.98439  Biso   1.000  O
  O34      1.0000 0.82206  0.86420  0.08155  Biso   1.000  O
  O35      1.0000 0.75831  0.99930  0.97654  Biso   1.000  O
  O36      1.0000 0.73329  0.76690  0.10824  Biso   1.000  O
  O37      1.0000 0.44864  0.27870  0.02269  Biso   1.000  O
  C85      1.0000 0.83570  0.82680  0.28890  Biso   1.000  C
  H37      1.0000 0.84860  0.77140  0.31920  Biso   1.000  H
  O38      1.0000 0.84850  0.07120  0.38567  Biso   1.000  O
  O39      1.0000 0.41607  0.21510  0.93028  Biso   1.000  O
  C86      1.0000 0.81170  0.18160  0.15450  Biso   1.000  C
  H38      1.0000 0.85090  0.19440  0.18350  Biso   1.000  H
  O40      1.0000 0.90438  0.90930  0.40171  Biso   1.000  O
  C87      1.0000 0.78160  0.83350  0.11860  Biso   1.000  C
  C88      1.0000 0.52390  0.15270  0.97900  Biso   1.000  C
  C89      1.0000 0.57990  0.17500  0.02300  Biso   1.000  C
  H39      1.0000 0.57770  0.23490  0.05110  Biso   1.000  H
  N5       1.0000 0.72320  0.05490  0.11077  Biso   1.000  N
  C90      1.0000 0.70020  0.13630  0.07160  Biso   1.000  C
  C91      1.0000 0.86560  0.97560  0.36920  Biso   1.000  C
  C92      1.0000 0.64090  0.01860  0.98610  Biso   1.000  C
  C93      1.0000 0.79650  0.87610  0.18370  Biso   1.000  C
  C94      1.0000 0.58370  0.99560  0.94300  Biso   1.000  C
  H40      1.0000 0.58420  0.93250  0.91670  Biso   1.000  H
  C95      1.0000 0.45970  0.22040  0.97730  Biso   1.000  C
  C96      1.0000 0.79890  0.98950  0.19880  Biso   1.000  C
  C97      1.0000 0.77750  0.07860  0.15260  Biso   1.000  C
  C98      1.0000 0.81990  0.02030  0.25980  Biso   1.000  C
  H41      1.0000 0.82060  0.09720  0.27090  Biso   1.000  H
  C99      1.0000 0.52640  0.06460  0.93840  Biso   1.000  C
  H42      1.0000 0.48890  0.05120  0.90760  Biso   1.000  H
  C100     1.0000 0.81280  0.79510  0.22930  Biso   1.000  C
  H43      1.0000 0.80800  0.71790  0.21930  Biso   1.000  H
  C101     1.0000 0.70330  0.95050  0.98300  Biso   1.000  C
  C102     1.0000 0.63950  0.10910  0.02580  Biso   1.000  C
  C103     1.0000 0.78720  0.26440  0.11350  Biso   1.000  C
  H44      1.0000 0.80930  0.33510  0.11380  Biso   1.000  H
  C104     1.0000 0.83980  0.93970  0.30450  Biso   1.000  C
  C105     1.0000 0.73000  0.24240  0.07190  Biso   1.000  C
  H45      1.0000 0.71120  0.29860  0.04410  Biso   1.000  H
  Eu6      1.0000 0.16845  0.17011  0.02568  Biso   1.000  Eu
  O41      1.0000 0.19987  0.34390  0.98439  Biso   1.000  O
  O42      1.0000 0.32206  0.36420  0.08155  Biso   1.000  O
  O43      1.0000 0.25831  0.49930  0.97654  Biso   1.000  O
  O44      1.0000 0.23329  0.26690  0.10824  Biso   1.000  O
  O45      1.0000 0.94864  0.77870  0.02269  Biso   1.000  O
  C106     1.0000 0.33570  0.32680  0.28890  Biso   1.000  C
  H46      1.0000 0.34860  0.27140  0.31920  Biso   1.000  H
  O46      1.0000 0.34850  0.57120  0.38567  Biso   1.000  O
  O47      1.0000 0.91607  0.71510  0.93028  Biso   1.000  O
  C107     1.0000 0.31170  0.68160  0.15450  Biso   1.000  C
  H47      1.0000 0.35090  0.69440  0.18350  Biso   1.000  H
  O48      1.0000 0.40438  0.40930  0.40171  Biso   1.000  O
  C108     1.0000 0.28160  0.33350  0.11860  Biso   1.000  C
  C109     1.0000 0.02390  0.65270  0.97900  Biso   1.000  C
  C110     1.0000 0.07990  0.67500  0.02300  Biso   1.000  C
  H48      1.0000 0.07770  0.73490  0.05110  Biso   1.000  H
  N6       1.0000 0.22320  0.55490  0.11077  Biso   1.000  N
  C111     1.0000 0.20020  0.63630  0.07160  Biso   1.000  C
  C112     1.0000 0.36560  0.47560  0.36920  Biso   1.000  C
  C113     1.0000 0.14090  0.51860  0.98610  Biso   1.000  C
  C114     1.0000 0.29650  0.37610  0.18370  Biso   1.000  C
  C115     1.0000 0.08370  0.49560  0.94300  Biso   1.000  C
  H49      1.0000 0.08420  0.43250  0.91670  Biso   1.000  H
  C116     1.0000 0.95970  0.72040  0.97730  Biso   1.000  C
  C117     1.0000 0.29890  0.48950  0.19880  Biso   1.000  C
  C118     1.0000 0.27750  0.57860  0.15260  Biso   1.000  C
  C119     1.0000 0.31990  0.52030  0.25980  Biso   1.000  C
  H50      1.0000 0.32060  0.59720  0.27090  Biso   1.000  H
  C120     1.0000 0.02640  0.56460  0.93840  Biso   1.000  C
  H51      1.0000 0.98890  0.55120  0.90760  Biso   1.000  H
  C121     1.0000 0.31280  0.29510  0.22930  Biso   1.000  C
  H52      1.0000 0.30800  0.21790  0.21930  Biso   1.000  H
  C122     1.0000 0.20330  0.45050  0.98300  Biso   1.000  C
  C123     1.0000 0.13950  0.60910  0.02580  Biso   1.000  C
  C124     1.0000 0.28720  0.76440  0.11350  Biso   1.000  C
  H53      1.0000 0.30930  0.83510  0.11380  Biso   1.000  H
  C125     1.0000 0.33980  0.43970  0.30450  Biso   1.000  C
  C126     1.0000 0.23000  0.74240  0.07190  Biso   1.000  C
  H54      1.0000 0.21120  0.79860  0.04410  Biso   1.000  H
  Eu7      1.0000 0.33155  0.67011  0.47432  Biso   1.000  Eu
  O49      1.0000 0.30013  0.84390  0.51561  Biso   1.000  O
  O50      1.0000 0.17794  0.86420  0.41845  Biso   1.000  O
  O51      1.0000 0.24169  0.99930  0.52346  Biso   1.000  O
  O52      1.0000 0.26671  0.76690  0.39176  Biso   1.000  O
  O53      1.0000 0.55136  0.27870  0.47731  Biso   1.000  O
  C127     1.0000 0.16430  0.82680  0.21110  Biso   1.000  C
  H55      1.0000 0.15140  0.77140  0.18080  Biso   1.000  H
  O54      1.0000 0.15150  0.07120  0.11433  Biso   1.000  O
  O55      1.0000 0.58393  0.21510  0.56972  Biso   1.000  O
  C128     1.0000 0.18830  0.18160  0.34550  Biso   1.000  C
  H56      1.0000 0.14910  0.19440  0.31650  Biso   1.000  H
  O56      1.0000 0.09562  0.90930  0.09829  Biso   1.000  O
  C129     1.0000 0.21840  0.83350  0.38140  Biso   1.000  C
  C130     1.0000 0.47610  0.15270  0.52100  Biso   1.000  C
  C131     1.0000 0.42010  0.17500  0.47700  Biso   1.000  C
  H57      1.0000 0.42230  0.23490  0.44890  Biso   1.000  H
  N7       1.0000 0.27680  0.05490  0.38923  Biso   1.000  N
  C132     1.0000 0.29980  0.13630  0.42840  Biso   1.000  C
  C133     1.0000 0.13440  0.97560  0.13080  Biso   1.000  C
  C134     1.0000 0.35910  0.01860  0.51390  Biso   1.000  C
  C135     1.0000 0.20350  0.87610  0.31630  Biso   1.000  C
  C136     1.0000 0.41630  0.99560  0.55700  Biso   1.000  C
  H58      1.0000 0.41580  0.93250  0.58330  Biso   1.000  H
  C137     1.0000 0.54030  0.22040  0.52270  Biso   1.000  C
  C138     1.0000 0.20110  0.98950  0.30120  Biso   1.000  C
  C139     1.0000 0.22250  0.07860  0.34740  Biso   1.000  C
  C140     1.0000 0.18010  0.02030  0.24020  Biso   1.000  C
  H59      1.0000 0.17940  0.09720  0.22910  Biso   1.000  H
  C141     1.0000 0.47360  0.06460  0.56160  Biso   1.000  C
  H60      1.0000 0.51110  0.05120  0.59240  Biso   1.000  H
  C142     1.0000 0.18720  0.79510  0.27070  Biso   1.000  C
  H61      1.0000 0.19200  0.71790  0.28070  Biso   1.000  H
  C143     1.0000 0.29670  0.95050  0.51700  Biso   1.000  C
  C144     1.0000 0.36050  0.10910  0.47420  Biso   1.000  C
  C145     1.0000 0.21280  0.26440  0.38650  Biso   1.000  C
  H62      1.0000 0.19070  0.33510  0.38620  Biso   1.000  H
  C146     1.0000 0.16020  0.93970  0.19550  Biso   1.000  C
  C147     1.0000 0.27000  0.24240  0.42810  Biso   1.000  C
  H63      1.0000 0.28880  0.29860  0.45590  Biso   1.000  H
  Eu8      1.0000 0.83155  0.17011  0.47432  Biso   1.000  Eu
  O57      1.0000 0.80013  0.34390  0.51561  Biso   1.000  O
  O58      1.0000 0.67794  0.36420  0.41845  Biso   1.000  O
  O59      1.0000 0.74169  0.49930  0.52346  Biso   1.000  O
  O60      1.0000 0.76671  0.26690  0.39176  Biso   1.000  O
  O61      1.0000 0.05136  0.77870  0.47731  Biso   1.000  O
  C148     1.0000 0.66430  0.32680  0.21110  Biso   1.000  C
  H64      1.0000 0.65140  0.27140  0.18080  Biso   1.000  H
  O62      1.0000 0.65150  0.57120  0.11433  Biso   1.000  O
  O63      1.0000 0.08393  0.71510  0.56972  Biso   1.000  O
  C149     1.0000 0.68830  0.68160  0.34550  Biso   1.000  C
  H65      1.0000 0.64910  0.69440  0.31650  Biso   1.000  H
  O64      1.0000 0.59562  0.40930  0.09829  Biso   1.000  O
  C150     1.0000 0.71840  0.33350  0.38140  Biso   1.000  C
  C151     1.0000 0.97610  0.65270  0.52100  Biso   1.000  C
  C152     1.0000 0.92010  0.67500  0.47700  Biso   1.000  C
  H66      1.0000 0.92230  0.73490  0.44890  Biso   1.000  H
  N8       1.0000 0.77680  0.55490  0.38923  Biso   1.000  N
  C153     1.0000 0.79980  0.63630  0.42840  Biso   1.000  C
  C154     1.0000 0.63440  0.47560  0.13080  Biso   1.000  C
  C155     1.0000 0.85910  0.51860  0.51390  Biso   1.000  C
  C156     1.0000 0.70350  0.37610  0.31630  Biso   1.000  C
  C157     1.0000 0.91630  0.49560  0.55700  Biso   1.000  C
  H67      1.0000 0.91580  0.43250  0.58330  Biso   1.000  H
  C158     1.0000 0.04030  0.72040  0.52270  Biso   1.000  C
  C159     1.0000 0.70110  0.48950  0.30120  Biso   1.000  C
  C160     1.0000 0.72250  0.57860  0.34740  Biso   1.000  C
  C161     1.0000 0.68010  0.52030  0.24020  Biso   1.000  C
  H68      1.0000 0.67940  0.59720  0.22910  Biso   1.000  H
  C162     1.0000 0.97360  0.56460  0.56160  Biso   1.000  C
  H69      1.0000 0.01110  0.55120  0.59240  Biso   1.000  H
  C163     1.0000 0.68720  0.29510  0.27070  Biso   1.000  C
  H70      1.0000 0.69200  0.21790  0.28070  Biso   1.000  H
  C164     1.0000 0.79670  0.45050  0.51700  Biso   1.000  C
  C165     1.0000 0.86050  0.60910  0.47420  Biso   1.000  C
  C166     1.0000 0.71280  0.76440  0.38650  Biso   1.000  C
  H71      1.0000 0.69070  0.83510  0.38620  Biso   1.000  H
  C167     1.0000 0.66020  0.43970  0.19550  Biso   1.000  C
  C168     1.0000 0.77000  0.74240  0.42810  Biso   1.000  C
  H72      1.0000 0.78880  0.79860  0.45590  Biso   1.000  H
