data_image0
_cell_length_a       15.3035
_cell_length_b       39.6946
_cell_length_c       21.5934
_cell_angle_alpha    90
_cell_angle_beta     107.402
_cell_angle_gamma    90

_symmetry_space_group_name_H-M    "P 1"
_symmetry_int_tables_number       1

loop_
  _symmetry_equiv_pos_as_xyz
  'x, y, z'

loop_
  _atom_site_label
  _atom_site_occupancy
  _atom_site_fract_x
  _atom_site_fract_y
  _atom_site_fract_z
  _atom_site_thermal_displace_type
  _atom_site_B_iso_or_equiv
  _atom_site_type_symbol
  Cu1      1.0000 0.29913  0.23648  0.20285  Biso   1.000  Cu
  Cu2      1.0000 0.19147  0.28339  0.13371  Biso   1.000  Cu
  Cu3      1.0000 0.51863  0.99217  0.94591  Biso   1.000  Cu
  O1       1.0000 0.13726  0.28602  0.20530  Biso   1.000  O
  O2       1.0000 0.29022  0.31408  0.17927  Biso   1.000  O
  O3       1.0000 0.19826  0.20632  0.16305  Biso   1.000  O
  O4       1.0000 0.60094  0.03083  0.96592  Biso   1.000  O
  O5       1.0000 0.75696  0.22653  0.57063  Biso   1.000  O
  O6       1.0000 0.84422  0.26793  0.62768  Biso   1.000  O
  O7       1.0000 0.23476  0.24849  0.26648  Biso   1.000  O
  O8       1.0000 0.38522  0.27312  0.23310  Biso   1.000  O
  O9       1.0000 0.10655  0.24585  0.10113  Biso   1.000  O
  C1       1.0000 0.61353  0.04743  0.01735  Biso   1.000  C
  C2       1.0000 0.16528  0.26723  0.25428  Biso   1.000  C
  C3       1.0000 0.36592  0.30346  0.21697  Biso   1.000  C
  C4       1.0000 0.81733  0.24922  0.57918  Biso   1.000  C
  C5       1.0000 0.03415  0.28635  0.29232  Biso   1.000  C
  H1       1.0000 0.01680  0.30120  0.25750  Biso   1.000  H
  C6       1.0000 0.00783  0.26164  0.38708  Biso   1.000  C
  C7       1.0000 0.95931  0.20139  0.07185  Biso   1.000  C
  H2       1.0000 0.94790  0.22380  0.05960  Biso   1.000  H
  C8       1.0000 0.95494  0.25952  0.43461  Biso   1.000  C
  C9       1.0000 0.82917  0.11970  0.05936  Biso   1.000  C
  C10      1.0000 0.08472  0.24103  0.39514  Biso   1.000  C
  C11      1.0000 0.74265  0.07585  0.99130  Biso   1.000  C
  H3       1.0000 0.73190  0.06210  0.95490  Biso   1.000  H
  C12      1.0000 0.77230  0.11708  0.09951  Biso   1.000  C
  C13      1.0000 0.98390  0.28417  0.33521  Biso   1.000  C
  C14      1.0000 0.90584  0.14471  0.07491  Biso   1.000  C
  C15      1.0000 0.88880  0.17853  0.05817  Biso   1.000  C
  C16      1.0000 0.81330  0.09895  0.00517  Biso   1.000  C
  C17      1.0000 0.11153  0.26605  0.30132  Biso   1.000  C
  C18      1.0000 0.12264  0.21628  0.12320  Biso   1.000  C
  C19      1.0000 0.70234  0.09364  0.08617  Biso   1.000  C
  H4       1.0000 0.66550  0.09160  0.11330  Biso   1.000  H
  C20      1.0000 0.13718  0.24386  0.35296  Biso   1.000  C
  H5       1.0000 0.18960  0.23080  0.35940  Biso   1.000  H
  C21      1.0000 0.04782  0.19086  0.10401  Biso   1.000  C
  C22      1.0000 0.98294  0.27847  0.49186  Biso   1.000  C
  C23      1.0000 0.52617  0.31801  0.27725  Biso   1.000  C
  H6       1.0000 0.53900  0.29510  0.28070  Biso   1.000  H
  C24      1.0000 0.68765  0.07322  0.03205  Biso   1.000  C
  C25      1.0000 0.59460  0.34140  0.30519  Biso   1.000  C
  C26      1.0000 0.43952  0.32918  0.24452  Biso   1.000  C
  C27      1.0000 0.41900  0.36287  0.23950  Biso   1.000  C
  H7       1.0000 0.35990  0.36990  0.21760  Biso   1.000  H
  C28      1.0000 0.57560  0.37559  0.29963  Biso   1.000  C
  C29      1.0000 0.64803  0.40037  0.33198  Biso   1.000  C
  C30      1.0000 0.06608  0.15736  0.12121  Biso   1.000  C
  H8       1.0000 0.12560  0.15050  0.14270  Biso   1.000  H
  C31      1.0000 0.88070  0.23766  0.42452  Biso   1.000  C
  C32      1.0000 0.99565  0.13417  0.10637  Biso   1.000  C
  C33      1.0000 0.48570  0.38629  0.26670  Biso   1.000  C
  O10      1.0000 0.91722  0.47778  0.40224  Biso   1.000  O
  O11      1.0000 0.88378  0.46589  0.49406  Biso   1.000  O
  O12      1.0000 0.56970  0.04407  0.05823  Biso   1.000  O
  O13      1.0000 0.79931  0.18578  0.02663  Biso   1.000  O
  O14      1.0000 0.68187  0.33354  0.33942  Biso   1.000  O
  O15      1.0000 0.87015  0.10417  0.96796  Biso   1.000  O
  O16      1.0000 0.79269  0.13840  0.15105  Biso   1.000  O
  O17      1.0000 0.10323  0.21978  0.44739  Biso   1.000  O
  O18      1.0000 0.90791  0.30325  0.33177  Biso   1.000  O
  O19      1.0000 0.00570  0.10090  0.12074  Biso   1.000  O
  C34      1.0000 0.83461  0.23473  0.47079  Biso   1.000  C
  H9       1.0000 0.78480  0.22030  0.46370  Biso   1.000  H
  C35      1.0000 0.93653  0.27570  0.53873  Biso   1.000  C
  H10      1.0000 0.95440  0.28850  0.57650  Biso   1.000  H
  C36      1.0000 0.72704  0.43283  0.42671  Biso   1.000  C
  H11      1.0000 0.73160  0.44030  0.46840  Biso   1.000  H
  O20      1.0000 0.47338  0.42041  0.26558  Biso   1.000  O
  O21      1.0000 0.05613  0.29881  0.49807  Biso   1.000  O
  O22      1.0000 0.58937  0.40074  0.41966  Biso   1.000  O
  O23      1.0000 0.85875  0.21994  0.36759  Biso   1.000  O
  C37      1.0000 0.79118  0.44254  0.39684  Biso   1.000  C
  C38      1.0000 0.86312  0.25337  0.52732  Biso   1.000  C
  C39      1.0000 0.78341  0.43256  0.33375  Biso   1.000  C
  H12      1.0000 0.82510  0.44010  0.31310  Biso   1.000  H
  C40      1.0000 0.87059  0.46392  0.43340  Biso   1.000  C
  C41      1.0000 0.65564  0.41181  0.39380  Biso   1.000  C
  C42      1.0000 0.71224  0.41117  0.30202  Biso   1.000  C
  C43      1.0000 0.77900  0.21996  0.00766  Biso   1.000  C
  H13      1.0000 0.71470  0.22220  0.98590  Biso   1.000  H
  H14      1.0000 0.81300  0.22660  0.97880  Biso   1.000  H
  H15      1.0000 0.79570  0.23410  0.04540  Biso   1.000  H
  C44      1.0000 0.09140  0.31685  0.55708  Biso   1.000  C
  H16      1.0000 0.14270  0.33020  0.55500  Biso   1.000  H
  H17      1.0000 0.11060  0.30120  0.59250  Biso   1.000  H
  H18      1.0000 0.04460  0.33130  0.56360  Biso   1.000  H
  C45      1.0000 0.88020  0.32638  0.28050  Biso   1.000  C
  H19      1.0000 0.82670  0.33820  0.28320  Biso   1.000  H
  H20      1.0000 0.86620  0.31460  0.23990  Biso   1.000  H
  H21      1.0000 0.92860  0.34220  0.28330  Biso   1.000  H
  C46      1.0000 0.17920  0.19744  0.45649  Biso   1.000  C
  H22      1.0000 0.18530  0.18390  0.49430  Biso   1.000  H
  H23      1.0000 0.23420  0.21030  0.46210  Biso   1.000  H
  H24      1.0000 0.16930  0.18320  0.41920  Biso   1.000  H
  C47      1.0000 0.85580  0.08384  0.91097  Biso   1.000  C
  H25      1.0000 0.89980  0.08980  0.88910  Biso   1.000  H
  H26      1.0000 0.79510  0.08750  0.88250  Biso   1.000  H
  H27      1.0000 0.86310  0.06050  0.92310  Biso   1.000  H
  C48      1.0000 0.73730  0.13581  0.19390  Biso   1.000  C
  H28      1.0000 0.75780  0.15190  0.22840  Biso   1.000  H
  H29      1.0000 0.74240  0.11350  0.21180  Biso   1.000  H
  H30      1.0000 0.67450  0.14030  0.17020  Biso   1.000  H
  C49      1.0000 0.09510  0.08969  0.15660  Biso   1.000  C
  H31      1.0000 0.09390  0.06590  0.16380  Biso   1.000  H
  H32      1.0000 0.11440  0.10120  0.19760  Biso   1.000  H
  H33      1.0000 0.13720  0.09450  0.13250  Biso   1.000  H
  O24      1.0000 0.70143  0.39844  0.24151  Biso   1.000  O
  C50      1.0000 0.59490  0.41122  0.48370  Biso   1.000  C
  H34      1.0000 0.54480  0.40170  0.49600  Biso   1.000  H
  H35      1.0000 0.59180  0.43540  0.48510  Biso   1.000  H
  H36      1.0000 0.65170  0.40370  0.51320  Biso   1.000  H
  C51      1.0000 0.70320  0.29849  0.35160  Biso   1.000  C
  H37      1.0000 0.76650  0.29610  0.37610  Biso   1.000  H
  H38      1.0000 0.69170  0.28680  0.31110  Biso   1.000  H
  H39      1.0000 0.66560  0.28920  0.37580  Biso   1.000  H
  C52      1.0000 0.76810  0.40706  0.21000  Biso   1.000  C
  H40      1.0000 0.75240  0.39660  0.16810  Biso   1.000  H
  H41      1.0000 0.82720  0.39930  0.23570  Biso   1.000  H
  H42      1.0000 0.76940  0.43110  0.20510  Biso   1.000  H
  C53      1.0000 0.38210  0.43290  0.23450  Biso   1.000  C
  H43      1.0000 0.38210  0.45710  0.23680  Biso   1.000  H
  H44      1.0000 0.34080  0.42400  0.25620  Biso   1.000  H
  H45      1.0000 0.36270  0.42600  0.18990  Biso   1.000  H
  C54      1.0000 0.78300  0.19828  0.35500  Biso   1.000  C
  H46      1.0000 0.77460  0.18720  0.31410  Biso   1.000  H
  H47      1.0000 0.72910  0.21110  0.35350  Biso   1.000  H
  H48      1.0000 0.79330  0.18170  0.38880  Biso   1.000  H
  Cu4      1.0000 0.20087  0.73648  0.29715  Biso   1.000  Cu
  Cu5      1.0000 0.30853  0.78339  0.36629  Biso   1.000  Cu
  Cu6      1.0000 0.98137  0.49217  0.55409  Biso   1.000  Cu
  O25      1.0000 0.36274  0.78602  0.29470  Biso   1.000  O
  O26      1.0000 0.20978  0.81408  0.32073  Biso   1.000  O
  O27      1.0000 0.30174  0.70632  0.33695  Biso   1.000  O
  O28      1.0000 0.89906  0.53083  0.53408  Biso   1.000  O
  O29      1.0000 0.74304  0.72653  0.92937  Biso   1.000  O
  O30      1.0000 0.65578  0.76793  0.87232  Biso   1.000  O
  O31      1.0000 0.26524  0.74849  0.23352  Biso   1.000  O
  O32      1.0000 0.11478  0.77312  0.26690  Biso   1.000  O
  O33      1.0000 0.39345  0.74585  0.39887  Biso   1.000  O
  C55      1.0000 0.88647  0.54743  0.48265  Biso   1.000  C
  C56      1.0000 0.33472  0.76723  0.24572  Biso   1.000  C
  C57      1.0000 0.13408  0.80346  0.28303  Biso   1.000  C
  C58      1.0000 0.68267  0.74922  0.92082  Biso   1.000  C
  C59      1.0000 0.46585  0.78635  0.20768  Biso   1.000  C
  H49      1.0000 0.48320  0.80120  0.24250  Biso   1.000  H
  C60      1.0000 0.49217  0.76164  0.11292  Biso   1.000  C
  C61      1.0000 0.54069  0.70139  0.42815  Biso   1.000  C
  H50      1.0000 0.55210  0.72380  0.44040  Biso   1.000  H
  C62      1.0000 0.54506  0.75952  0.06539  Biso   1.000  C
  C63      1.0000 0.67083  0.61970  0.44064  Biso   1.000  C
  C64      1.0000 0.41528  0.74103  0.10486  Biso   1.000  C
  C65      1.0000 0.75735  0.57585  0.50870  Biso   1.000  C
  H51      1.0000 0.76810  0.56210  0.54510  Biso   1.000  H
  C66      1.0000 0.72770  0.61708  0.40049  Biso   1.000  C
  C67      1.0000 0.51610  0.78417  0.16479  Biso   1.000  C
  C68      1.0000 0.59416  0.64471  0.42509  Biso   1.000  C
  C69      1.0000 0.61120  0.67853  0.44183  Biso   1.000  C
  C70      1.0000 0.68670  0.59895  0.49483  Biso   1.000  C
  C71      1.0000 0.38847  0.76605  0.19868  Biso   1.000  C
  C72      1.0000 0.37736  0.71628  0.37680  Biso   1.000  C
  C73      1.0000 0.79766  0.59364  0.41383  Biso   1.000  C
  H52      1.0000 0.83450  0.59160  0.38670  Biso   1.000  H
  C74      1.0000 0.36282  0.74386  0.14704  Biso   1.000  C
  H53      1.0000 0.31040  0.73080  0.14060  Biso   1.000  H
  C75      1.0000 0.45218  0.69086  0.39599  Biso   1.000  C
  C76      1.0000 0.51706  0.77847  0.00814  Biso   1.000  C
  C77      1.0000 0.97383  0.81801  0.22275  Biso   1.000  C
  H54      1.0000 0.96100  0.79510  0.21930  Biso   1.000  H
  C78      1.0000 0.81235  0.57322  0.46795  Biso   1.000  C
  C79      1.0000 0.90540  0.84140  0.19481  Biso   1.000  C
  C80      1.0000 0.06048  0.82918  0.25548  Biso   1.000  C
  C81      1.0000 0.08100  0.86287  0.26050  Biso   1.000  C
  H55      1.0000 0.14010  0.86990  0.28240  Biso   1.000  H
  C82      1.0000 0.92440  0.87559  0.20037  Biso   1.000  C
  C83      1.0000 0.85197  0.90037  0.16802  Biso   1.000  C
  C84      1.0000 0.43392  0.65736  0.37879  Biso   1.000  C
  H56      1.0000 0.37440  0.65050  0.35730  Biso   1.000  H
  C85      1.0000 0.61930  0.73766  0.07548  Biso   1.000  C
  C86      1.0000 0.50435  0.63417  0.39363  Biso   1.000  C
  C87      1.0000 0.01430  0.88629  0.23330  Biso   1.000  C
  O34      1.0000 0.58278  0.97778  0.09776  Biso   1.000  O
  O35      1.0000 0.61622  0.96589  0.00594  Biso   1.000  O
  O36      1.0000 0.93030  0.54407  0.44177  Biso   1.000  O
  O37      1.0000 0.70069  0.68578  0.47337  Biso   1.000  O
  O38      1.0000 0.81813  0.83354  0.16058  Biso   1.000  O
  O39      1.0000 0.62985  0.60417  0.53204  Biso   1.000  O
  O40      1.0000 0.70731  0.63840  0.34895  Biso   1.000  O
  O41      1.0000 0.39677  0.71978  0.05261  Biso   1.000  O
  O42      1.0000 0.59209  0.80325  0.16823  Biso   1.000  O
  O43      1.0000 0.49430  0.60090  0.37926  Biso   1.000  O
  C88      1.0000 0.66539  0.73473  0.02921  Biso   1.000  C
  H57      1.0000 0.71520  0.72030  0.03630  Biso   1.000  H
  C89      1.0000 0.56347  0.77570  0.96127  Biso   1.000  C
  H58      1.0000 0.54560  0.78850  0.92350  Biso   1.000  H
  C90      1.0000 0.77296  0.93283  0.07329  Biso   1.000  C
  H59      1.0000 0.76840  0.94030  0.03160  Biso   1.000  H
  O44      1.0000 0.02662  0.92041  0.23442  Biso   1.000  O
  O45      1.0000 0.44387  0.79881  0.00193  Biso   1.000  O
  O46      1.0000 0.91063  0.90074  0.08034  Biso   1.000  O
  O47      1.0000 0.64125  0.71994  0.13241  Biso   1.000  O
  C91      1.0000 0.70882  0.94254  0.10316  Biso   1.000  C
  C92      1.0000 0.63688  0.75337  0.97268  Biso   1.000  C
  C93      1.0000 0.71659  0.93256  0.16625  Biso   1.000  C
  H60      1.0000 0.67490  0.94010  0.18690  Biso   1.000  H
  C94      1.0000 0.62941  0.96392  0.06660  Biso   1.000  C
  C95      1.0000 0.84436  0.91181  0.10620  Biso   1.000  C
  C96      1.0000 0.78776  0.91117  0.19798  Biso   1.000  C
  C97      1.0000 0.72100  0.71996  0.49234  Biso   1.000  C
  H61      1.0000 0.78530  0.72220  0.51410  Biso   1.000  H
  H62      1.0000 0.68700  0.72660  0.52120  Biso   1.000  H
  H63      1.0000 0.70430  0.73410  0.45460  Biso   1.000  H
  C98      1.0000 0.40860  0.81685  0.94292  Biso   1.000  C
  H64      1.0000 0.35730  0.83020  0.94500  Biso   1.000  H
  H65      1.0000 0.38940  0.80120  0.90750  Biso   1.000  H
  H66      1.0000 0.45540  0.83130  0.93640  Biso   1.000  H
  C99      1.0000 0.61980  0.82638  0.21950  Biso   1.000  C
  H67      1.0000 0.67330  0.83820  0.21680  Biso   1.000  H
  H68      1.0000 0.63380  0.81460  0.26010  Biso   1.000  H
  H69      1.0000 0.57140  0.84220  0.21670  Biso   1.000  H
  C100     1.0000 0.32080  0.69744  0.04351  Biso   1.000  C
  H70      1.0000 0.31470  0.68390  0.00570  Biso   1.000  H
  H71      1.0000 0.26580  0.71030  0.03790  Biso   1.000  H
  H72      1.0000 0.33070  0.68320  0.08080  Biso   1.000  H
  C101     1.0000 0.64420  0.58384  0.58903  Biso   1.000  C
  H73      1.0000 0.60020  0.58980  0.61090  Biso   1.000  H
  H74      1.0000 0.70490  0.58750  0.61750  Biso   1.000  H
  H75      1.0000 0.63690  0.56050  0.57690  Biso   1.000  H
  C102     1.0000 0.76270  0.63581  0.30610  Biso   1.000  C
  H76      1.0000 0.74220  0.65190  0.27160  Biso   1.000  H
  H77      1.0000 0.75760  0.61350  0.28820  Biso   1.000  H
  H78      1.0000 0.82550  0.64030  0.32980  Biso   1.000  H
  C103     1.0000 0.40490  0.58969  0.34340  Biso   1.000  C
  H79      1.0000 0.40610  0.56590  0.33620  Biso   1.000  H
  H80      1.0000 0.38560  0.60120  0.30240  Biso   1.000  H
  H81      1.0000 0.36280  0.59450  0.36750  Biso   1.000  H
  O48      1.0000 0.79857  0.89844  0.25849  Biso   1.000  O
  C104     1.0000 0.90510  0.91122  0.01630  Biso   1.000  C
  H82      1.0000 0.95520  0.90170  0.00400  Biso   1.000  H
  H83      1.0000 0.90820  0.93540  0.01490  Biso   1.000  H
  H84      1.0000 0.84830  0.90370  0.98680  Biso   1.000  H
  C105     1.0000 0.79680  0.79849  0.14840  Biso   1.000  C
  H85      1.0000 0.73350  0.79610  0.12390  Biso   1.000  H
  H86      1.0000 0.80830  0.78680  0.18890  Biso   1.000  H
  H87      1.0000 0.83440  0.78920  0.12420  Biso   1.000  H
  C106     1.0000 0.73190  0.90706  0.29000  Biso   1.000  C
  H88      1.0000 0.74760  0.89660  0.33190  Biso   1.000  H
  H89      1.0000 0.67280  0.89930  0.26430  Biso   1.000  H
  H90      1.0000 0.73060  0.93110  0.29490  Biso   1.000  H
  C107     1.0000 0.11790  0.93290  0.26550  Biso   1.000  C
  H91      1.0000 0.11790  0.95710  0.26320  Biso   1.000  H
  H92      1.0000 0.15920  0.92400  0.24380  Biso   1.000  H
  H93      1.0000 0.13730  0.92600  0.31010  Biso   1.000  H
  C108     1.0000 0.71700  0.69828  0.14500  Biso   1.000  C
  H94      1.0000 0.72540  0.68720  0.18590  Biso   1.000  H
  H95      1.0000 0.77090  0.71110  0.14650  Biso   1.000  H
  H96      1.0000 0.70670  0.68170  0.11120  Biso   1.000  H
  Cu7      1.0000 0.70087  0.76352  0.79715  Biso   1.000  Cu
  Cu8      1.0000 0.80853  0.71661  0.86629  Biso   1.000  Cu
  Cu9      1.0000 0.48137  0.00783  0.05409  Biso   1.000  Cu
  O49      1.0000 0.86274  0.71398  0.79470  Biso   1.000  O
  O50      1.0000 0.70978  0.68592  0.82073  Biso   1.000  O
  O51      1.0000 0.80174  0.79368  0.83695  Biso   1.000  O
  O52      1.0000 0.39906  0.96917  0.03408  Biso   1.000  O
  O53      1.0000 0.24304  0.77347  0.42937  Biso   1.000  O
  O54      1.0000 0.15578  0.73207  0.37232  Biso   1.000  O
  O55      1.0000 0.76524  0.75151  0.73352  Biso   1.000  O
  O56      1.0000 0.61478  0.72688  0.76690  Biso   1.000  O
  O57      1.0000 0.89345  0.75415  0.89887  Biso   1.000  O
  C109     1.0000 0.38647  0.95257  0.98265  Biso   1.000  C
  C110     1.0000 0.83472  0.73277  0.74572  Biso   1.000  C
  C111     1.0000 0.63408  0.69654  0.78303  Biso   1.000  C
  C112     1.0000 0.18267  0.75078  0.42082  Biso   1.000  C
  C113     1.0000 0.96585  0.71365  0.70768  Biso   1.000  C
  H97      1.0000 0.98320  0.69880  0.74250  Biso   1.000  H
  C114     1.0000 0.99217  0.73836  0.61292  Biso   1.000  C
  C115     1.0000 0.04069  0.79861  0.92815  Biso   1.000  C
  H98      1.0000 0.05210  0.77620  0.94040  Biso   1.000  H
  C116     1.0000 0.04506  0.74048  0.56539  Biso   1.000  C
  C117     1.0000 0.17083  0.88030  0.94064  Biso   1.000  C
  C118     1.0000 0.91528  0.75897  0.60486  Biso   1.000  C
  C119     1.0000 0.25735  0.92415  0.00870  Biso   1.000  C
  H99      1.0000 0.26810  0.93790  0.04510  Biso   1.000  H
  C120     1.0000 0.22770  0.88292  0.90049  Biso   1.000  C
  C121     1.0000 0.01610  0.71583  0.66479  Biso   1.000  C
  C122     1.0000 0.09416  0.85529  0.92509  Biso   1.000  C
  C123     1.0000 0.11120  0.82147  0.94183  Biso   1.000  C
  C124     1.0000 0.18670  0.90105  0.99483  Biso   1.000  C
  C125     1.0000 0.88847  0.73395  0.69868  Biso   1.000  C
  C126     1.0000 0.87736  0.78372  0.87680  Biso   1.000  C
  C127     1.0000 0.29766  0.90636  0.91383  Biso   1.000  C
  H100     1.0000 0.33450  0.90840  0.88670  Biso   1.000  H
  C128     1.0000 0.86282  0.75614  0.64704  Biso   1.000  C
  H101     1.0000 0.81040  0.76920  0.64060  Biso   1.000  H
  C129     1.0000 0.95218  0.80914  0.89599  Biso   1.000  C
  C130     1.0000 0.01706  0.72153  0.50814  Biso   1.000  C
  C131     1.0000 0.47383  0.68199  0.72275  Biso   1.000  C
  H102     1.0000 0.46100  0.70490  0.71930  Biso   1.000  H
  C132     1.0000 0.31235  0.92678  0.96795  Biso   1.000  C
  C133     1.0000 0.40540  0.65860  0.69481  Biso   1.000  C
  C134     1.0000 0.56048  0.67082  0.75548  Biso   1.000  C
  C135     1.0000 0.58100  0.63713  0.76050  Biso   1.000  C
  H103     1.0000 0.64010  0.63010  0.78240  Biso   1.000  H
  C136     1.0000 0.42440  0.62441  0.70037  Biso   1.000  C
  C137     1.0000 0.35197  0.59963  0.66802  Biso   1.000  C
  C138     1.0000 0.93392  0.84264  0.87879  Biso   1.000  C
  H104     1.0000 0.87440  0.84950  0.85730  Biso   1.000  H
  C139     1.0000 0.11930  0.76234  0.57548  Biso   1.000  C
  C140     1.0000 0.00435  0.86583  0.89363  Biso   1.000  C
  C141     1.0000 0.51430  0.61371  0.73330  Biso   1.000  C
  O58      1.0000 0.08278  0.52222  0.59776  Biso   1.000  O
  O59      1.0000 0.11622  0.53411  0.50594  Biso   1.000  O
  O60      1.0000 0.43030  0.95593  0.94177  Biso   1.000  O
  O61      1.0000 0.20069  0.81422  0.97337  Biso   1.000  O
  O62      1.0000 0.31813  0.66646  0.66058  Biso   1.000  O
  O63      1.0000 0.12985  0.89583  0.03204  Biso   1.000  O
  O64      1.0000 0.20731  0.86160  0.84895  Biso   1.000  O
  O65      1.0000 0.89677  0.78022  0.55261  Biso   1.000  O
  O66      1.0000 0.09209  0.69675  0.66823  Biso   1.000  O
  O67      1.0000 0.99430  0.89910  0.87926  Biso   1.000  O
  C142     1.0000 0.16539  0.76527  0.52921  Biso   1.000  C
  H105     1.0000 0.21520  0.77970  0.53630  Biso   1.000  H
  C143     1.0000 0.06347  0.72430  0.46127  Biso   1.000  C
  H106     1.0000 0.04560  0.71150  0.42350  Biso   1.000  H
  C144     1.0000 0.27296  0.56717  0.57329  Biso   1.000  C
  H107     1.0000 0.26840  0.55970  0.53160  Biso   1.000  H
  O68      1.0000 0.52662  0.57959  0.73442  Biso   1.000  O
  O69      1.0000 0.94387  0.70119  0.50193  Biso   1.000  O
  O70      1.0000 0.41063  0.59926  0.58034  Biso   1.000  O
  O71      1.0000 0.14125  0.78006  0.63241  Biso   1.000  O
  C145     1.0000 0.20882  0.55746  0.60316  Biso   1.000  C
  C146     1.0000 0.13688  0.74663  0.47268  Biso   1.000  C
  C147     1.0000 0.21659  0.56744  0.66625  Biso   1.000  C
  H108     1.0000 0.17490  0.55990  0.68690  Biso   1.000  H
  C148     1.0000 0.12941  0.53608  0.56660  Biso   1.000  C
  C149     1.0000 0.34436  0.58819  0.60620  Biso   1.000  C
  C150     1.0000 0.28776  0.58883  0.69798  Biso   1.000  C
  C151     1.0000 0.22100  0.78004  0.99234  Biso   1.000  C
  H109     1.0000 0.28530  0.77780  0.01410  Biso   1.000  H
  H110     1.0000 0.18700  0.77340  0.02120  Biso   1.000  H
  H111     1.0000 0.20430  0.76590  0.95460  Biso   1.000  H
  C152     1.0000 0.90860  0.68315  0.44292  Biso   1.000  C
  H112     1.0000 0.85730  0.66980  0.44500  Biso   1.000  H
  H113     1.0000 0.88940  0.69880  0.40750  Biso   1.000  H
  H114     1.0000 0.95540  0.66870  0.43640  Biso   1.000  H
  C153     1.0000 0.11980  0.67362  0.71950  Biso   1.000  C
  H115     1.0000 0.17330  0.66180  0.71680  Biso   1.000  H
  H116     1.0000 0.13380  0.68540  0.76010  Biso   1.000  H
  H117     1.0000 0.07140  0.65780  0.71670  Biso   1.000  H
  C154     1.0000 0.82080  0.80256  0.54351  Biso   1.000  C
  H118     1.0000 0.81470  0.81610  0.50570  Biso   1.000  H
  H119     1.0000 0.76580  0.78970  0.53790  Biso   1.000  H
  H120     1.0000 0.83070  0.81680  0.58080  Biso   1.000  H
  C155     1.0000 0.14420  0.91616  0.08903  Biso   1.000  C
  H121     1.0000 0.10020  0.91020  0.11090  Biso   1.000  H
  H122     1.0000 0.20490  0.91250  0.11750  Biso   1.000  H
  H123     1.0000 0.13690  0.93950  0.07690  Biso   1.000  H
  C156     1.0000 0.26270  0.86419  0.80610  Biso   1.000  C
  H124     1.0000 0.24220  0.84810  0.77160  Biso   1.000  H
  H125     1.0000 0.25760  0.88650  0.78820  Biso   1.000  H
  H126     1.0000 0.32550  0.85970  0.82980  Biso   1.000  H
  C157     1.0000 0.90490  0.91031  0.84340  Biso   1.000  C
  H127     1.0000 0.90610  0.93410  0.83620  Biso   1.000  H
  H128     1.0000 0.88560  0.89880  0.80240  Biso   1.000  H
  H129     1.0000 0.86280  0.90550  0.86750  Biso   1.000  H
  O72      1.0000 0.29857  0.60156  0.75849  Biso   1.000  O
  C158     1.0000 0.40510  0.58878  0.51630  Biso   1.000  C
  H130     1.0000 0.45520  0.59830  0.50400  Biso   1.000  H
  H131     1.0000 0.40820  0.56460  0.51490  Biso   1.000  H
  H132     1.0000 0.34830  0.59630  0.48680  Biso   1.000  H
  C159     1.0000 0.29680  0.70151  0.64840  Biso   1.000  C
  H133     1.0000 0.23350  0.70390  0.62390  Biso   1.000  H
  H134     1.0000 0.30830  0.71320  0.68890  Biso   1.000  H
  H135     1.0000 0.33440  0.71080  0.62420  Biso   1.000  H
  C160     1.0000 0.23190  0.59294  0.79000  Biso   1.000  C
  H136     1.0000 0.24760  0.60340  0.83190  Biso   1.000  H
  H137     1.0000 0.17280  0.60070  0.76430  Biso   1.000  H
  H138     1.0000 0.23060  0.56890  0.79490  Biso   1.000  H
  C161     1.0000 0.61790  0.56710  0.76550  Biso   1.000  C
  H139     1.0000 0.61790  0.54290  0.76320  Biso   1.000  H
  H140     1.0000 0.65920  0.57600  0.74380  Biso   1.000  H
  H141     1.0000 0.63730  0.57400  0.81010  Biso   1.000  H
  C162     1.0000 0.21700  0.80172  0.64500  Biso   1.000  C
  H142     1.0000 0.22540  0.81280  0.68590  Biso   1.000  H
  H143     1.0000 0.27090  0.78890  0.64650  Biso   1.000  H
  H144     1.0000 0.20670  0.81830  0.61120  Biso   1.000  H
  Cu10     1.0000 0.79913  0.26352  0.70285  Biso   1.000  Cu
  Cu11     1.0000 0.69147  0.21661  0.63371  Biso   1.000  Cu
  Cu12     1.0000 0.01863  0.50783  0.44591  Biso   1.000  Cu
  O73      1.0000 0.63726  0.21398  0.70530  Biso   1.000  O
  O74      1.0000 0.79022  0.18592  0.67927  Biso   1.000  O
  O75      1.0000 0.69826  0.29368  0.66305  Biso   1.000  O
  O76      1.0000 0.10094  0.46917  0.46592  Biso   1.000  O
  O77      1.0000 0.25696  0.27347  0.07063  Biso   1.000  O
  O78      1.0000 0.34422  0.23207  0.12768  Biso   1.000  O
  O79      1.0000 0.73476  0.25151  0.76648  Biso   1.000  O
  O80      1.0000 0.88522  0.22688  0.73310  Biso   1.000  O
  O81      1.0000 0.60655  0.25415  0.60113  Biso   1.000  O
  C163     1.0000 0.11353  0.45257  0.51735  Biso   1.000  C
  C164     1.0000 0.66528  0.23277  0.75428  Biso   1.000  C
  C165     1.0000 0.86592  0.19654  0.71697  Biso   1.000  C
  C166     1.0000 0.31733  0.25078  0.07918  Biso   1.000  C
  C167     1.0000 0.53415  0.21365  0.79232  Biso   1.000  C
  H145     1.0000 0.51680  0.19880  0.75750  Biso   1.000  H
  C168     1.0000 0.50783  0.23836  0.88708  Biso   1.000  C
  C169     1.0000 0.45931  0.29861  0.57185  Biso   1.000  C
  H146     1.0000 0.44790  0.27620  0.55960  Biso   1.000  H
  C170     1.0000 0.45494  0.24048  0.93461  Biso   1.000  C
  C171     1.0000 0.32917  0.38030  0.55936  Biso   1.000  C
  C172     1.0000 0.58472  0.25897  0.89514  Biso   1.000  C
  C173     1.0000 0.24265  0.42415  0.49130  Biso   1.000  C
  H147     1.0000 0.23190  0.43790  0.45490  Biso   1.000  H
  C174     1.0000 0.27230  0.38292  0.59951  Biso   1.000  C
  C175     1.0000 0.48390  0.21583  0.83521  Biso   1.000  C
  C176     1.0000 0.40584  0.35529  0.57491  Biso   1.000  C
  C177     1.0000 0.38880  0.32147  0.55817  Biso   1.000  C
  C178     1.0000 0.31330  0.40105  0.50517  Biso   1.000  C
  C179     1.0000 0.61153  0.23395  0.80132  Biso   1.000  C
  C180     1.0000 0.62264  0.28372  0.62320  Biso   1.000  C
  C181     1.0000 0.20234  0.40636  0.58617  Biso   1.000  C
  H148     1.0000 0.16550  0.40840  0.61330  Biso   1.000  H
  C182     1.0000 0.63718  0.25614  0.85296  Biso   1.000  C
  H149     1.0000 0.68960  0.26920  0.85940  Biso   1.000  H
  C183     1.0000 0.54782  0.30914  0.60401  Biso   1.000  C
  C184     1.0000 0.48294  0.22153  0.99186  Biso   1.000  C
  C185     1.0000 0.02617  0.18199  0.77725  Biso   1.000  C
  H150     1.0000 0.03900  0.20490  0.78070  Biso   1.000  H
  C186     1.0000 0.18765  0.42678  0.53205  Biso   1.000  C
  C187     1.0000 0.09460  0.15860  0.80519  Biso   1.000  C
  C188     1.0000 0.93952  0.17082  0.74452  Biso   1.000  C
  C189     1.0000 0.91900  0.13713  0.73950  Biso   1.000  C
  H151     1.0000 0.85990  0.13010  0.71760  Biso   1.000  H
  C190     1.0000 0.07560  0.12441  0.79963  Biso   1.000  C
  C191     1.0000 0.14803  0.09963  0.83198  Biso   1.000  C
  C192     1.0000 0.56608  0.34264  0.62121  Biso   1.000  C
  H152     1.0000 0.62560  0.34950  0.64270  Biso   1.000  H
  C193     1.0000 0.38070  0.26234  0.92452  Biso   1.000  C
  C194     1.0000 0.49565  0.36583  0.60637  Biso   1.000  C
  C195     1.0000 0.98570  0.11371  0.76670  Biso   1.000  C
  O82      1.0000 0.41722  0.02222  0.90224  Biso   1.000  O
  O83      1.0000 0.38378  0.03411  0.99406  Biso   1.000  O
  O84      1.0000 0.06970  0.45593  0.55823  Biso   1.000  O
  O85      1.0000 0.29931  0.31422  0.52663  Biso   1.000  O
  O86      1.0000 0.18187  0.16646  0.83942  Biso   1.000  O
  O87      1.0000 0.37015  0.39583  0.46796  Biso   1.000  O
  O88      1.0000 0.29269  0.36160  0.65105  Biso   1.000  O
  O89      1.0000 0.60323  0.28022  0.94739  Biso   1.000  O
  O90      1.0000 0.40791  0.19675  0.83177  Biso   1.000  O
  O91      1.0000 0.50570  0.39910  0.62074  Biso   1.000  O
  C196     1.0000 0.33461  0.26527  0.97079  Biso   1.000  C
  H153     1.0000 0.28480  0.27970  0.96370  Biso   1.000  H
  C197     1.0000 0.43653  0.22430  0.03873  Biso   1.000  C
  H154     1.0000 0.45440  0.21150  0.07650  Biso   1.000  H
  C198     1.0000 0.22704  0.06717  0.92671  Biso   1.000  C
  H155     1.0000 0.23160  0.05970  0.96840  Biso   1.000  H
  O92      1.0000 0.97338  0.07959  0.76558  Biso   1.000  O
  O93      1.0000 0.55613  0.20119  0.99807  Biso   1.000  O
  O94      1.0000 0.08937  0.09926  0.91966  Biso   1.000  O
  O95      1.0000 0.35875  0.28006  0.86759  Biso   1.000  O
  C199     1.0000 0.29118  0.05746  0.89684  Biso   1.000  C
  C200     1.0000 0.36312  0.24663  0.02732  Biso   1.000  C
  C201     1.0000 0.28341  0.06744  0.83375  Biso   1.000  C
  H156     1.0000 0.32510  0.05990  0.81310  Biso   1.000  H
  C202     1.0000 0.37059  0.03608  0.93340  Biso   1.000  C
  C203     1.0000 0.15564  0.08819  0.89380  Biso   1.000  C
  C204     1.0000 0.21224  0.08883  0.80202  Biso   1.000  C
  C205     1.0000 0.27900  0.28004  0.50766  Biso   1.000  C
  H157     1.0000 0.21470  0.27780  0.48590  Biso   1.000  H
  H158     1.0000 0.31300  0.27340  0.47880  Biso   1.000  H
  H159     1.0000 0.29570  0.26590  0.54540  Biso   1.000  H
  C206     1.0000 0.59140  0.18315  0.05708  Biso   1.000  C
  H160     1.0000 0.64270  0.16980  0.05500  Biso   1.000  H
  H161     1.0000 0.61060  0.19880  0.09250  Biso   1.000  H
  H162     1.0000 0.54460  0.16870  0.06360  Biso   1.000  H
  C207     1.0000 0.38020  0.17362  0.78050  Biso   1.000  C
  H163     1.0000 0.32670  0.16180  0.78320  Biso   1.000  H
  H164     1.0000 0.36620  0.18540  0.73990  Biso   1.000  H
  H165     1.0000 0.42860  0.15780  0.78330  Biso   1.000  H
  C208     1.0000 0.67920  0.30256  0.95649  Biso   1.000  C
  H166     1.0000 0.68530  0.31610  0.99430  Biso   1.000  H
  H167     1.0000 0.73420  0.28970  0.96210  Biso   1.000  H
  H168     1.0000 0.66930  0.31680  0.91920  Biso   1.000  H
  C209     1.0000 0.35580  0.41616  0.41097  Biso   1.000  C
  H169     1.0000 0.39980  0.41020  0.38910  Biso   1.000  H
  H170     1.0000 0.29510  0.41250  0.38250  Biso   1.000  H
  H171     1.0000 0.36310  0.43950  0.42310  Biso   1.000  H
  C210     1.0000 0.23730  0.36419  0.69390  Biso   1.000  C
  H172     1.0000 0.25780  0.34810  0.72840  Biso   1.000  H
  H173     1.0000 0.24240  0.38650  0.71180  Biso   1.000  H
  H174     1.0000 0.17450  0.35970  0.67020  Biso   1.000  H
  C211     1.0000 0.59510  0.41031  0.65660  Biso   1.000  C
  H175     1.0000 0.59390  0.43410  0.66380  Biso   1.000  H
  H176     1.0000 0.61440  0.39880  0.69760  Biso   1.000  H
  H177     1.0000 0.63720  0.40550  0.63250  Biso   1.000  H
  O96      1.0000 0.20143  0.10156  0.74151  Biso   1.000  O
  C212     1.0000 0.09490  0.08878  0.98370  Biso   1.000  C
  H178     1.0000 0.04480  0.09830  0.99600  Biso   1.000  H
  H179     1.0000 0.09180  0.06460  0.98510  Biso   1.000  H
  H180     1.0000 0.15170  0.09630  0.01320  Biso   1.000  H
  C213     1.0000 0.20320  0.20151  0.85160  Biso   1.000  C
  H181     1.0000 0.26650  0.20390  0.87610  Biso   1.000  H
  H182     1.0000 0.19170  0.21320  0.81110  Biso   1.000  H
  H183     1.0000 0.16560  0.21080  0.87580  Biso   1.000  H
  C214     1.0000 0.26810  0.09294  0.71000  Biso   1.000  C
  H184     1.0000 0.25240  0.10340  0.66810  Biso   1.000  H
  H185     1.0000 0.32720  0.10070  0.73570  Biso   1.000  H
  H186     1.0000 0.26940  0.06890  0.70510  Biso   1.000  H
  C215     1.0000 0.88210  0.06710  0.73450  Biso   1.000  C
  H187     1.0000 0.88210  0.04290  0.73680  Biso   1.000  H
  H188     1.0000 0.84080  0.07600  0.75620  Biso   1.000  H
  H189     1.0000 0.86270  0.07400  0.68990  Biso   1.000  H
  C216     1.0000 0.28300  0.30172  0.85500  Biso   1.000  C
  H190     1.0000 0.27460  0.31280  0.81410  Biso   1.000  H
  H191     1.0000 0.22910  0.28890  0.85350  Biso   1.000  H
  H192     1.0000 0.29330  0.31830  0.88880  Biso   1.000  H
