data_image0
_cell_length_a       14.761
_cell_length_b       14.761
_cell_length_c       10.879
_cell_angle_alpha    90
_cell_angle_beta     90
_cell_angle_gamma    90

_symmetry_space_group_name_H-M    "P 1"
_symmetry_int_tables_number       1

loop_
  _symmetry_equiv_pos_as_xyz
  'x, y, z'

loop_
  _atom_site_label
  _atom_site_occupancy
  _atom_site_fract_x
  _atom_site_fract_y
  _atom_site_fract_z
  _atom_site_thermal_displace_type
  _atom_site_B_iso_or_equiv
  _atom_site_type_symbol
  O1       1.0000 0.73448  0.65408  0.15842  Biso   1.000  O
  O2       1.0000 0.86232  0.67533  0.05239  Biso   1.000  O
  N1       1.0000 0.59723  0.79226  0.16591  Biso   1.000  N
  C1       1.0000 0.77784  0.66569  0.06075  Biso   1.000  C
  H1       1.0000 0.64700  0.81020  0.15900  Biso   1.000  H
  H2       1.0000 0.57370  0.79990  0.23900  Biso   1.000  H
  O3       1.0000 0.23448  0.15408  0.65842  Biso   1.000  O
  O4       1.0000 0.36232  0.17533  0.55239  Biso   1.000  O
  N2       1.0000 0.09723  0.29226  0.66591  Biso   1.000  N
  C2       1.0000 0.27784  0.16569  0.56075  Biso   1.000  C
  H3       1.0000 0.14700  0.31020  0.65900  Biso   1.000  H
  H4       1.0000 0.07370  0.29990  0.73900  Biso   1.000  H
  O5       1.0000 0.76552  0.34592  0.65842  Biso   1.000  O
  O6       1.0000 0.63768  0.32467  0.55239  Biso   1.000  O
  N3       1.0000 0.90277  0.20774  0.66591  Biso   1.000  N
  C3       1.0000 0.72216  0.33431  0.56075  Biso   1.000  C
  H5       1.0000 0.85300  0.18980  0.65900  Biso   1.000  H
  H6       1.0000 0.92630  0.20010  0.73900  Biso   1.000  H
  O7       1.0000 0.26552  0.84592  0.15842  Biso   1.000  O
  O8       1.0000 0.13768  0.82467  0.05239  Biso   1.000  O
  N4       1.0000 0.40277  0.70774  0.16591  Biso   1.000  N
  C4       1.0000 0.22216  0.83431  0.06075  Biso   1.000  C
  H7       1.0000 0.35300  0.68980  0.15900  Biso   1.000  H
  H8       1.0000 0.42630  0.70010  0.23900  Biso   1.000  H
  O9       1.0000 0.59592  0.48448  0.40842  Biso   1.000  O
  O10      1.0000 0.57467  0.61232  0.30239  Biso   1.000  O
  N5       1.0000 0.45774  0.34723  0.41591  Biso   1.000  N
  C5       1.0000 0.58431  0.52784  0.31075  Biso   1.000  C
  H9       1.0000 0.43980  0.39700  0.40900  Biso   1.000  H
  H10      1.0000 0.45010  0.32370  0.48900  Biso   1.000  H
  O11      1.0000 0.09592  0.98448  0.90842  Biso   1.000  O
  O12      1.0000 0.07467  0.11232  0.80239  Biso   1.000  O
  N6       1.0000 0.95774  0.84723  0.91591  Biso   1.000  N
  C6       1.0000 0.08431  0.02784  0.81075  Biso   1.000  C
  H11      1.0000 0.93980  0.89700  0.90900  Biso   1.000  H
  H12      1.0000 0.95010  0.82370  0.98900  Biso   1.000  H
  O13      1.0000 0.90408  0.51552  0.90842  Biso   1.000  O
  O14      1.0000 0.92533  0.38768  0.80239  Biso   1.000  O
  N7       1.0000 0.04226  0.65277  0.91591  Biso   1.000  N
  C7       1.0000 0.91569  0.47216  0.81075  Biso   1.000  C
  H13      1.0000 0.06020  0.60300  0.90900  Biso   1.000  H
  H14      1.0000 0.04990  0.67630  0.98900  Biso   1.000  H
  O15      1.0000 0.40408  0.01552  0.40842  Biso   1.000  O
  O16      1.0000 0.42533  0.88768  0.30239  Biso   1.000  O
  N8       1.0000 0.54226  0.15277  0.41591  Biso   1.000  N
  C8       1.0000 0.41569  0.97216  0.31075  Biso   1.000  C
  H15      1.0000 0.56020  0.10300  0.40900  Biso   1.000  H
  H16      1.0000 0.54990  0.17630  0.48900  Biso   1.000  H
  O17      1.0000 0.76552  0.65408  0.84158  Biso   1.000  O
  O18      1.0000 0.63768  0.67533  0.94761  Biso   1.000  O
  N9       1.0000 0.90277  0.79226  0.83409  Biso   1.000  N
  C9       1.0000 0.72216  0.66569  0.93925  Biso   1.000  C
  H17      1.0000 0.85300  0.81020  0.84100  Biso   1.000  H
  H18      1.0000 0.92630  0.79990  0.76100  Biso   1.000  H
  O19      1.0000 0.26552  0.15408  0.34158  Biso   1.000  O
  O20      1.0000 0.13768  0.17533  0.44761  Biso   1.000  O
  N10      1.0000 0.40277  0.29226  0.33409  Biso   1.000  N
  C10      1.0000 0.22216  0.16569  0.43925  Biso   1.000  C
  H19      1.0000 0.35300  0.31020  0.34100  Biso   1.000  H
  H20      1.0000 0.42630  0.29990  0.26100  Biso   1.000  H
  O21      1.0000 0.73448  0.34592  0.34158  Biso   1.000  O
  O22      1.0000 0.86232  0.32467  0.44761  Biso   1.000  O
  N11      1.0000 0.59723  0.20774  0.33409  Biso   1.000  N
  C11      1.0000 0.77784  0.33431  0.43925  Biso   1.000  C
  H21      1.0000 0.64700  0.18980  0.34100  Biso   1.000  H
  H22      1.0000 0.57370  0.20010  0.26100  Biso   1.000  H
  O23      1.0000 0.23448  0.84592  0.84158  Biso   1.000  O
  O24      1.0000 0.36232  0.82467  0.94761  Biso   1.000  O
  N12      1.0000 0.09723  0.70774  0.83409  Biso   1.000  N
  C12      1.0000 0.27784  0.83431  0.93925  Biso   1.000  C
  H23      1.0000 0.14700  0.68980  0.84100  Biso   1.000  H
  H24      1.0000 0.07370  0.70010  0.76100  Biso   1.000  H
  O25      1.0000 0.90408  0.48448  0.59158  Biso   1.000  O
  O26      1.0000 0.92533  0.61232  0.69761  Biso   1.000  O
  N13      1.0000 0.04226  0.34723  0.58409  Biso   1.000  N
  C13      1.0000 0.91569  0.52784  0.68925  Biso   1.000  C
  H25      1.0000 0.06020  0.39700  0.59100  Biso   1.000  H
  H26      1.0000 0.04990  0.32370  0.51100  Biso   1.000  H
  O27      1.0000 0.40408  0.98448  0.09158  Biso   1.000  O
  O28      1.0000 0.42533  0.11232  0.19761  Biso   1.000  O
  N14      1.0000 0.54226  0.84723  0.08409  Biso   1.000  N
  C14      1.0000 0.41569  0.02784  0.18925  Biso   1.000  C
  H27      1.0000 0.56020  0.89700  0.09100  Biso   1.000  H
  H28      1.0000 0.54990  0.82370  0.01100  Biso   1.000  H
  O29      1.0000 0.59592  0.51552  0.09158  Biso   1.000  O
  O30      1.0000 0.57467  0.38768  0.19761  Biso   1.000  O
  N15      1.0000 0.45774  0.65277  0.08409  Biso   1.000  N
  C15      1.0000 0.58431  0.47216  0.18925  Biso   1.000  C
  H29      1.0000 0.43980  0.60300  0.09100  Biso   1.000  H
  H30      1.0000 0.45010  0.67630  0.01100  Biso   1.000  H
  O31      1.0000 0.09592  0.01552  0.59158  Biso   1.000  O
  O32      1.0000 0.07467  0.88768  0.69761  Biso   1.000  O
  N16      1.0000 0.95774  0.15277  0.58409  Biso   1.000  N
  C16      1.0000 0.08431  0.97216  0.68925  Biso   1.000  C
  H31      1.0000 0.93980  0.10300  0.59100  Biso   1.000  H
  H32      1.0000 0.95010  0.17630  0.51100  Biso   1.000  H
  Ni1      1.0000 0.59501  0.65499  0.12500  Biso   1.000  Ni
  Ni2      1.0000 0.09501  0.15499  0.62500  Biso   1.000  Ni
  Ni3      1.0000 0.90499  0.34501  0.62500  Biso   1.000  Ni
  Ni4      1.0000 0.40499  0.84501  0.12500  Biso   1.000  Ni
  Ni5      1.0000 0.59501  0.34501  0.37500  Biso   1.000  Ni
  Ni6      1.0000 0.09501  0.84501  0.87500  Biso   1.000  Ni
  Ni7      1.0000 0.90499  0.65499  0.87500  Biso   1.000  Ni
  Ni8      1.0000 0.40499  0.15499  0.37500  Biso   1.000  Ni
  O33      1.0000 0.26552  0.34592  0.84158  Biso   1.000  O
  O34      1.0000 0.13768  0.32467  0.94761  Biso   1.000  O
  N17      1.0000 0.40277  0.20774  0.83409  Biso   1.000  N
  C17      1.0000 0.22216  0.33431  0.93925  Biso   1.000  C
  H33      1.0000 0.35300  0.18980  0.84100  Biso   1.000  H
  H34      1.0000 0.42630  0.20010  0.76100  Biso   1.000  H
  O35      1.0000 0.76552  0.84592  0.34158  Biso   1.000  O
  O36      1.0000 0.63768  0.82467  0.44761  Biso   1.000  O
  N18      1.0000 0.90277  0.70774  0.33409  Biso   1.000  N
  C18      1.0000 0.72216  0.83431  0.43925  Biso   1.000  C
  H35      1.0000 0.85300  0.68980  0.34100  Biso   1.000  H
  H36      1.0000 0.92630  0.70010  0.26100  Biso   1.000  H
  O37      1.0000 0.23448  0.65408  0.34158  Biso   1.000  O
  O38      1.0000 0.36232  0.67533  0.44761  Biso   1.000  O
  N19      1.0000 0.09723  0.79226  0.33409  Biso   1.000  N
  C19      1.0000 0.27784  0.66569  0.43925  Biso   1.000  C
  H37      1.0000 0.14700  0.81020  0.34100  Biso   1.000  H
  H38      1.0000 0.07370  0.79990  0.26100  Biso   1.000  H
  O39      1.0000 0.73448  0.15408  0.84158  Biso   1.000  O
  O40      1.0000 0.86232  0.17533  0.94761  Biso   1.000  O
  N20      1.0000 0.59723  0.29226  0.83409  Biso   1.000  N
  C20      1.0000 0.77784  0.16569  0.93925  Biso   1.000  C
  H39      1.0000 0.64700  0.31020  0.84100  Biso   1.000  H
  H40      1.0000 0.57370  0.29990  0.76100  Biso   1.000  H
  O41      1.0000 0.40408  0.51552  0.59158  Biso   1.000  O
  O42      1.0000 0.42533  0.38768  0.69761  Biso   1.000  O
  N21      1.0000 0.54226  0.65277  0.58409  Biso   1.000  N
  C21      1.0000 0.41569  0.47216  0.68925  Biso   1.000  C
  H41      1.0000 0.56020  0.60300  0.59100  Biso   1.000  H
  H42      1.0000 0.54990  0.67630  0.51100  Biso   1.000  H
  O43      1.0000 0.90408  0.01552  0.09158  Biso   1.000  O
  O44      1.0000 0.92533  0.88768  0.19761  Biso   1.000  O
  N22      1.0000 0.04226  0.15277  0.08409  Biso   1.000  N
  C22      1.0000 0.91569  0.97216  0.18925  Biso   1.000  C
  H43      1.0000 0.06020  0.10300  0.09100  Biso   1.000  H
  H44      1.0000 0.04990  0.17630  0.01100  Biso   1.000  H
  O45      1.0000 0.09592  0.48448  0.09158  Biso   1.000  O
  O46      1.0000 0.07467  0.61232  0.19761  Biso   1.000  O
  N23      1.0000 0.95774  0.34723  0.08409  Biso   1.000  N
  C23      1.0000 0.08431  0.52784  0.18925  Biso   1.000  C
  H45      1.0000 0.93980  0.39700  0.09100  Biso   1.000  H
  H46      1.0000 0.95010  0.32370  0.01100  Biso   1.000  H
  O47      1.0000 0.59592  0.98448  0.59158  Biso   1.000  O
  O48      1.0000 0.57467  0.11232  0.69761  Biso   1.000  O
  N24      1.0000 0.45774  0.84723  0.58409  Biso   1.000  N
  C24      1.0000 0.58431  0.02784  0.68925  Biso   1.000  C
  H47      1.0000 0.43980  0.89700  0.59100  Biso   1.000  H
  H48      1.0000 0.45010  0.82370  0.51100  Biso   1.000  H
  O49      1.0000 0.23448  0.34592  0.15842  Biso   1.000  O
  O50      1.0000 0.36232  0.32467  0.05239  Biso   1.000  O
  N25      1.0000 0.09723  0.20774  0.16591  Biso   1.000  N
  C25      1.0000 0.27784  0.33431  0.06075  Biso   1.000  C
  H49      1.0000 0.14700  0.18980  0.15900  Biso   1.000  H
  H50      1.0000 0.07370  0.20010  0.23900  Biso   1.000  H
  O51      1.0000 0.73448  0.84592  0.65842  Biso   1.000  O
  O52      1.0000 0.86232  0.82467  0.55239  Biso   1.000  O
  N26      1.0000 0.59723  0.70774  0.66591  Biso   1.000  N
  C26      1.0000 0.77784  0.83431  0.56075  Biso   1.000  C
  H51      1.0000 0.64700  0.68980  0.65900  Biso   1.000  H
  H52      1.0000 0.57370  0.70010  0.73900  Biso   1.000  H
  O53      1.0000 0.26552  0.65408  0.65842  Biso   1.000  O
  O54      1.0000 0.13768  0.67533  0.55239  Biso   1.000  O
  N27      1.0000 0.40277  0.79226  0.66591  Biso   1.000  N
  C27      1.0000 0.22216  0.66569  0.56075  Biso   1.000  C
  H53      1.0000 0.35300  0.81020  0.65900  Biso   1.000  H
  H54      1.0000 0.42630  0.79990  0.73900  Biso   1.000  H
  O55      1.0000 0.76552  0.15408  0.15842  Biso   1.000  O
  O56      1.0000 0.63768  0.17533  0.05239  Biso   1.000  O
  N28      1.0000 0.90277  0.29226  0.16591  Biso   1.000  N
  C28      1.0000 0.72216  0.16569  0.06075  Biso   1.000  C
  H55      1.0000 0.85300  0.31020  0.15900  Biso   1.000  H
  H56      1.0000 0.92630  0.29990  0.23900  Biso   1.000  H
  O57      1.0000 0.09592  0.51552  0.40842  Biso   1.000  O
  O58      1.0000 0.07467  0.38768  0.30239  Biso   1.000  O
  N29      1.0000 0.95774  0.65277  0.41591  Biso   1.000  N
  C29      1.0000 0.08431  0.47216  0.31075  Biso   1.000  C
  H57      1.0000 0.93980  0.60300  0.40900  Biso   1.000  H
  H58      1.0000 0.95010  0.67630  0.48900  Biso   1.000  H
  O59      1.0000 0.59592  0.01552  0.90842  Biso   1.000  O
  O60      1.0000 0.57467  0.88768  0.80239  Biso   1.000  O
  N30      1.0000 0.45774  0.15277  0.91591  Biso   1.000  N
  C30      1.0000 0.58431  0.97216  0.81075  Biso   1.000  C
  H59      1.0000 0.43980  0.10300  0.90900  Biso   1.000  H
  H60      1.0000 0.45010  0.17630  0.98900  Biso   1.000  H
  O61      1.0000 0.40408  0.48448  0.90842  Biso   1.000  O
  O62      1.0000 0.42533  0.61232  0.80239  Biso   1.000  O
  N31      1.0000 0.54226  0.34723  0.91591  Biso   1.000  N
  C31      1.0000 0.41569  0.52784  0.81075  Biso   1.000  C
  H61      1.0000 0.56020  0.39700  0.90900  Biso   1.000  H
  H62      1.0000 0.54990  0.32370  0.98900  Biso   1.000  H
  O63      1.0000 0.90408  0.98448  0.40842  Biso   1.000  O
  O64      1.0000 0.92533  0.11232  0.30239  Biso   1.000  O
  N32      1.0000 0.04226  0.84723  0.41591  Biso   1.000  N
  C32      1.0000 0.91569  0.02784  0.31075  Biso   1.000  C
  H63      1.0000 0.06020  0.89700  0.40900  Biso   1.000  H
  H64      1.0000 0.04990  0.82370  0.48900  Biso   1.000  H
  Ni9      1.0000 0.40499  0.34501  0.87500  Biso   1.000  Ni
  Ni10     1.0000 0.90499  0.84501  0.37500  Biso   1.000  Ni
  Ni11     1.0000 0.09501  0.65499  0.37500  Biso   1.000  Ni
  Ni12     1.0000 0.59501  0.15499  0.87500  Biso   1.000  Ni
  Ni13     1.0000 0.40499  0.65499  0.62500  Biso   1.000  Ni
  Ni14     1.0000 0.90499  0.15499  0.12500  Biso   1.000  Ni
  Ni15     1.0000 0.09501  0.34501  0.12500  Biso   1.000  Ni
  Ni16     1.0000 0.59501  0.84501  0.62500  Biso   1.000  Ni
