data_MAQZOV_clean
_audit_creation_date              2014-07-02
_audit_creation_method            'Materials Studio'
_symmetry_space_group_name_H-M    'P1'
_symmetry_Int_Tables_number       1
_symmetry_cell_setting            triclinic
loop_
_symmetry_equiv_pos_as_xyz
  x,y,z
_cell_length_a                    9.0862
_cell_length_b                    10.7299
_cell_length_c                    19.5496
_cell_angle_alpha                 89.4520
_cell_angle_beta                  87.3370
_cell_angle_gamma                 80.3470
loop_
_atom_site_label
_atom_site_type_symbol
_atom_site_fract_x
_atom_site_fract_y
_atom_site_fract_z
_atom_site_U_iso_or_equiv
_atom_site_adp_type
_atom_site_occupancy
Co1    Co    0.82793   0.74841   0.77844   0.01267  Uiso   1.00
Co2    Co    0.15303   0.76516   0.72303   0.01267  Uiso   1.00
Co3    Co    0.93453   0.75918   0.58940   0.01267  Uiso   1.00
Co4    Co    0.05762   0.74403   0.91108   0.01267  Uiso   1.00
Co5    Co    0.17207   0.25159   0.22156   0.01267  Uiso   1.00
Co6    Co    0.84697   0.23484   0.27697   0.01267  Uiso   1.00
Co7    Co    0.06547   0.24082   0.41060   0.01267  Uiso   1.00
Co8    Co    0.94238   0.25597   0.08892   0.01267  Uiso   1.00
Co9    Co    0.00000   0.50000   0.50000   0.01267  Uiso   1.00
Co10   Co    0.00000   0.00000   0.00000   0.01267  Uiso   1.00
Co11   Co    0.00000   0.50000   0.00000   0.01267  Uiso   1.00
Co12   Co    0.00000   0.00000   0.50000   0.01267  Uiso   1.00
H1     H     0.92200   0.88300   0.69000   0.01267  Uiso   1.00
H2     H     0.06300   0.63000   0.80700   0.01267  Uiso   1.00
H3     H     0.88640   0.26220   0.82950   0.01267  Uiso   1.00
H4     H     0.00290   0.13940   0.84880   0.01267  Uiso   1.00
H5     H     0.46450   0.84420   0.54770   0.01267  Uiso   1.00
H6     H     0.36700   0.98210   0.54330   0.01267  Uiso   1.00
H7     H     0.64430   0.50350   0.96020   0.01267  Uiso   1.00
H8     H     0.53280   0.63390   0.95150   0.01267  Uiso   1.00
H9     H     0.45190   0.83540   0.43610   0.01267  Uiso   1.00
H10    H     0.28250   0.81500   0.44930   0.01267  Uiso   1.00
H11    H     0.63190   0.92820   0.96800   0.01267  Uiso   1.00
H12    H     0.49870   0.86680   0.00310   0.01267  Uiso   1.00
H13    H     0.69820   0.69310   0.04830   0.01267  Uiso   1.00
H14    H     0.53800   0.65310   0.06220   0.01267  Uiso   1.00
H15    H     0.50080   0.63360   0.49880   0.01267  Uiso   1.00
H16    H     0.36780   0.57040   0.53280   0.01267  Uiso   1.00
H17    H     0.50090   0.88400   0.87660   0.01267  Uiso   1.00
H18    H     0.44510   0.03260   0.88740   0.01267  Uiso   1.00
H19    H     0.70500   0.15100   0.84240   0.01267  Uiso   1.00
H20    H     0.73590   0.13760   0.92240   0.01267  Uiso   1.00
H21    H     0.55470   0.46080   0.61160   0.01267  Uiso   1.00
H22    H     0.50100   0.60900   0.62480   0.01267  Uiso   1.00
H23    H     0.27370   0.37220   0.57940   0.01267  Uiso   1.00
H24    H     0.30240   0.35710   0.65970   0.01267  Uiso   1.00
H25    H     0.99880   0.36010   0.64960   0.01267  Uiso   1.00
H26    H     0.11610   0.23930   0.67140   0.01267  Uiso   1.00
H27    H     0.07800   0.11700   0.31000   0.01267  Uiso   1.00
H28    H     0.93700   0.37000   0.19300   0.01267  Uiso   1.00
H29    H     0.11360   0.73780   0.17050   0.01267  Uiso   1.00
H30    H     0.99710   0.86060   0.15120   0.01267  Uiso   1.00
H31    H     0.53550   0.15580   0.45230   0.01267  Uiso   1.00
H32    H     0.63300   0.01790   0.45670   0.01267  Uiso   1.00
H33    H     0.35570   0.49650   0.03980   0.01267  Uiso   1.00
H34    H     0.46720   0.36610   0.04850   0.01267  Uiso   1.00
H35    H     0.54810   0.16460   0.56390   0.01267  Uiso   1.00
H36    H     0.71750   0.18500   0.55070   0.01267  Uiso   1.00
H37    H     0.36810   0.07180   0.03200   0.01267  Uiso   1.00
H38    H     0.50130   0.13320   0.99690   0.01267  Uiso   1.00
H39    H     0.30180   0.30690   0.95170   0.01267  Uiso   1.00
H40    H     0.46200   0.34690   0.93780   0.01267  Uiso   1.00
H41    H     0.49920   0.36640   0.50120   0.01267  Uiso   1.00
H42    H     0.63220   0.42960   0.46720   0.01267  Uiso   1.00
H43    H     0.49910   0.11600   0.12340   0.01267  Uiso   1.00
H44    H     0.55490   0.96740   0.11260   0.01267  Uiso   1.00
H45    H     0.29500   0.84900   0.15760   0.01267  Uiso   1.00
H46    H     0.26410   0.86240   0.07760   0.01267  Uiso   1.00
H47    H     0.44530   0.53920   0.38840   0.01267  Uiso   1.00
H48    H     0.49900   0.39100   0.37520   0.01267  Uiso   1.00
H49    H     0.72630   0.62780   0.42060   0.01267  Uiso   1.00
H50    H     0.69760   0.64290   0.34030   0.01267  Uiso   1.00
H51    H     0.00120   0.63990   0.35040   0.01267  Uiso   1.00
H52    H     0.88390   0.76070   0.32860   0.01267  Uiso   1.00
C1     C     0.91200   0.19740   0.86535   0.01267  Uiso   1.00
C2     C     0.71080   0.51250   0.08589   0.01267  Uiso   1.00
C3     C     0.94590   0.26150   0.92957   0.01267  Uiso   1.00
C4     C     0.71500   0.56800   0.58131   0.01267  Uiso   1.00
C5     C     0.36670   0.89140   0.53446   0.01267  Uiso   1.00
C6     C     0.30000   0.99680   0.42020   0.01267  Uiso   1.00
C7     C     0.06830   0.23800   0.56934   0.01267  Uiso   1.00
C8     C     0.63310   0.59610   0.96648   0.01267  Uiso   1.00
C9     C     0.83560   0.98230   0.86662   0.01267  Uiso   1.00
C10    C     0.16030   0.52260   0.63676   0.01267  Uiso   1.00
C11    C     0.28650   0.92530   0.91906   0.01267  Uiso   1.00
C12    C     0.35320   0.87400   0.45649   0.01267  Uiso   1.00
C13    C     0.52240   0.94140   0.97736   0.01267  Uiso   1.00
C14    C     0.64070   0.62330   0.04337   0.01267  Uiso   1.00
C15    C     0.47720   0.55780   0.52333   0.01267  Uiso   1.00
C16    C     0.74990   0.64550   0.92016   0.01267  Uiso   1.00
C17    C     0.44500   0.94830   0.90834   0.01267  Uiso   1.00
C18    C     0.78220   0.12170   0.87578   0.01267  Uiso   1.00
C19    C     0.24570   0.84910   0.58036   0.01267  Uiso   1.00
C20    C     0.55560   0.54610   0.59201   0.01267  Uiso   1.00
C21    C     0.22570   0.38480   0.62590   0.01267  Uiso   1.00
C22    C     0.09200   0.30340   0.63500   0.01267  Uiso   1.00
C23    C     0.08800   0.80260   0.13465   0.01267  Uiso   1.00
C24    C     0.28920   0.48750   0.91411   0.01267  Uiso   1.00
C25    C     0.05410   0.73850   0.07043   0.01267  Uiso   1.00
C26    C     0.28500   0.43200   0.41869   0.01267  Uiso   1.00
C27    C     0.63330   0.10860   0.46554   0.01267  Uiso   1.00
C28    C     0.70000   0.00320   0.57980   0.01267  Uiso   1.00
C29    C     0.93170   0.76200   0.43066   0.01267  Uiso   1.00
C30    C     0.36690   0.40390   0.03352   0.01267  Uiso   1.00
C31    C     0.16440   0.01770   0.13338   0.01267  Uiso   1.00
C32    C     0.83970   0.47740   0.36324   0.01267  Uiso   1.00
C33    C     0.71350   0.07470   0.08094   0.01267  Uiso   1.00
C34    C     0.64680   0.12600   0.54351   0.01267  Uiso   1.00
C35    C     0.47760   0.05860   0.02264   0.01267  Uiso   1.00
C36    C     0.35930   0.37670   0.95663   0.01267  Uiso   1.00
C37    C     0.52280   0.44220   0.47667   0.01267  Uiso   1.00
C38    C     0.25010   0.35450   0.07984   0.01267  Uiso   1.00
C39    C     0.55500   0.05170   0.09166   0.01267  Uiso   1.00
C40    C     0.21780   0.87830   0.12422   0.01267  Uiso   1.00
C41    C     0.75430   0.15090   0.41964   0.01267  Uiso   1.00
C42    C     0.44440   0.45390   0.40799   0.01267  Uiso   1.00
C43    C     0.77430   0.61520   0.37410   0.01267  Uiso   1.00
C44    C     0.90800   0.69660   0.36500   0.01267  Uiso   1.00
O1     O     0.93760   0.80800   0.68925   0.01267  Uiso   1.00
O2     O     0.65950   0.50060   0.14559   0.01267  Uiso   1.00
O3     O     0.04350   0.70270   0.81188   0.01267  Uiso   1.00
O4     O     0.37750   0.03550   0.37358   0.01267  Uiso   1.00
O5     O     0.79120   0.92930   0.81674   0.01267  Uiso   1.00
O6     O     0.03600   0.12870   0.57412   0.01267  Uiso   1.00
O7     O     0.74910   0.66810   0.60539   0.01267  Uiso   1.00
O8     O     0.19500   0.57770   0.68809   0.01267  Uiso   1.00
O9     O     0.25520   0.82070   0.89941   0.01267  Uiso   1.00
O10    O     0.87990   0.64440   0.94314   0.01267  Uiso   1.00
O11    O     0.27890   0.81550   0.63984   0.01267  Uiso   1.00
O12    O     0.97850   0.37170   0.92442   0.01267  Uiso   1.00
O13    O     0.19630   0.01060   0.95067   0.01267  Uiso   1.00
O14    O     0.71210   0.68390   0.86206   0.01267  Uiso   1.00
O15    O     0.92690   0.92630   0.90986   0.01267  Uiso   1.00
O16    O     0.07040   0.30040   0.51403   0.01267  Uiso   1.00
O17    O     0.06830   0.57500   0.59292   0.01267  Uiso   1.00
O18    O     0.17250   0.05950   0.44203   0.01267  Uiso   1.00
O19    O     0.82530   0.43930   0.05966   0.01267  Uiso   1.00
O20    O     0.11560   0.85220   0.55689   0.01267  Uiso   1.00
O21    O     0.80440   0.48420   0.54796   0.01267  Uiso   1.00
O22    O     0.94060   0.20180   0.98590   0.01267  Uiso   1.00
O23    O     0.06240   0.19200   0.31075   0.01267  Uiso   1.00
O24    O     0.34050   0.49940   0.85441   0.01267  Uiso   1.00
O25    O     0.95650   0.29730   0.18812   0.01267  Uiso   1.00
O26    O     0.62250   0.96450   0.62642   0.01267  Uiso   1.00
O27    O     0.20880   0.07070   0.18326   0.01267  Uiso   1.00
O28    O     0.96400   0.87130   0.42588   0.01267  Uiso   1.00
O29    O     0.25090   0.33190   0.39461   0.01267  Uiso   1.00
O30    O     0.80500   0.42230   0.31191   0.01267  Uiso   1.00
O31    O     0.74480   0.17930   0.10059   0.01267  Uiso   1.00
O32    O     0.12010   0.35560   0.05686   0.01267  Uiso   1.00
O33    O     0.72110   0.18450   0.36016   0.01267  Uiso   1.00
O34    O     0.02150   0.62830   0.07558   0.01267  Uiso   1.00
O35    O     0.80370   0.98940   0.04933   0.01267  Uiso   1.00
O36    O     0.28790   0.31610   0.13794   0.01267  Uiso   1.00
O37    O     0.07310   0.07370   0.09014   0.01267  Uiso   1.00
O38    O     0.92960   0.69960   0.48597   0.01267  Uiso   1.00
O39    O     0.93170   0.42500   0.40708   0.01267  Uiso   1.00
O40    O     0.82750   0.94050   0.55797   0.01267  Uiso   1.00
O41    O     0.17470   0.56070   0.94034   0.01267  Uiso   1.00
O42    O     0.88440   0.14780   0.44311   0.01267  Uiso   1.00
O43    O     0.19560   0.51580   0.45204   0.01267  Uiso   1.00
O44    O     0.05940   0.79820   0.01410   0.01267  Uiso   1.00
