data_image0
_cell_length_a       17.4941
_cell_length_b       32.393
_cell_length_c       10.0749
_cell_angle_alpha    90
_cell_angle_beta     90
_cell_angle_gamma    90

_symmetry_space_group_name_H-M    "P 1"
_symmetry_int_tables_number       1

loop_
  _symmetry_equiv_pos_as_xyz
  'x, y, z'

loop_
  _atom_site_label
  _atom_site_occupancy
  _atom_site_fract_x
  _atom_site_fract_y
  _atom_site_fract_z
  _atom_site_thermal_displace_type
  _atom_site_B_iso_or_equiv
  _atom_site_type_symbol
  Ga1      1.0000 0.42596  0.92055  0.06059  Biso   1.000  Ga
  Ga2      1.0000 0.48608  0.02560  0.03538  Biso   1.000  Ga
  Ga3      1.0000 0.15986  0.99250  0.87555  Biso   1.000  Ga
  Ga4      1.0000 0.34307  0.50610  0.59414  Biso   1.000  Ga
  Ga5      1.0000 0.08020  0.58125  0.41799  Biso   1.000  Ga
  Ga6      1.0000 0.01609  0.47561  0.44141  Biso   1.000  Ga
  Ga7      1.0000 0.34114  0.66766  0.59885  Biso   1.000  Ga
  Ga8      1.0000 0.15626  0.82191  0.87423  Biso   1.000  Ga
  Ga9      1.0000 0.30031  0.75887  0.92093  Biso   1.000  Ga
  P1       1.0000 0.31310  0.99637  0.06050  Biso   1.000  P
  P2       1.0000 0.52140  0.95334  0.83440  Biso   1.000  P
  P3       1.0000 0.06790  0.90707  0.85440  Biso   1.000  P
  P4       1.0000 0.98140  0.54812  0.64130  Biso   1.000  P
  P5       1.0000 0.18860  0.50369  0.40890  Biso   1.000  P
  P6       1.0000 0.43700  0.59057  0.62580  Biso   1.000  P
  P7       1.0000 0.35025  0.75867  0.61460  Biso   1.000  P
  P8       1.0000 0.31850  0.84055  0.04730  Biso   1.000  P
  P9       1.0000 0.30980  0.66274  0.91150  Biso   1.000  P
  O1       1.0000 0.36710  0.56140  0.63820  Biso   1.000  O
  O2       1.0000 0.13430  0.93770  0.83430  Biso   1.000  O
  O3       1.0000 0.12770  0.47240  0.44060  Biso   1.000  O
  O4       1.0000 0.36020  0.77120  0.75980  Biso   1.000  O
  O5       1.0000 0.02300  0.50820  0.60250  Biso   1.000  O
  O6       1.0000 0.20860  0.77020  0.82650  Biso   1.000  O
  O7       1.0000 0.37570  0.02950  0.03720  Biso   1.000  O
  O8       1.0000 0.48050  0.99300  0.87530  Biso   1.000  O
  O9       1.0000 0.26480  0.75110  0.58500  Biso   1.000  O
  O10      1.0000 0.24410  0.84350  0.96890  Biso   1.000  O
  O11      1.0000 0.25870  0.49240  0.49530  Biso   1.000  O
  O12      1.0000 0.34160  0.70560  0.94110  Biso   1.000  O
  O13      1.0000 0.24670  0.00700  0.97060  Biso   1.000  O
  O14      1.0000 0.00070  0.92540  0.92910  Biso   1.000  O
  O15      1.0000 0.35480  0.79720  0.02620  Biso   1.000  O
  O16      1.0000 0.50670  0.57270  0.55620  Biso   1.000  O
  O17      1.0000 0.49560  0.91690  0.92270  Biso   1.000  O
  O18      1.0000 0.01200  0.58570  0.55950  Biso   1.000  O
  O19      1.0000 0.60820  0.95820  0.84800  Biso   1.000  O
  O20      1.0000 0.33930  0.95200  0.02490  Biso   1.000  O
  O21      1.0000 0.16630  0.54880  0.44880  Biso   1.000  O
  O22      1.0000 0.89500  0.54390  0.61620  Biso   1.000  O
  O23      1.0000 0.29780  0.65540  0.75890  Biso   1.000  O
  O24      1.0000 0.50010  0.94140  0.69240  Biso   1.000  O
  O25      1.0000 0.28390  0.99710  0.20560  Biso   1.000  O
  O26      1.0000 0.21230  0.50240  0.26170  Biso   1.000  O
  O27      1.0000 0.30530  0.84680  0.19610  Biso   1.000  O
  O28      1.0000 0.45760  0.60580  0.76630  Biso   1.000  O
  O29      1.0000 0.99620  0.55860  0.78850  Biso   1.000  O
  O30      1.0000 0.41180  0.62930  0.54290  Biso   1.000  O
  O31      1.0000 0.04110  0.89290  0.71210  Biso   1.000  O
  O32      1.0000 0.09620  0.86820  0.92550  Biso   1.000  O
  O33      1.0000 0.37520  0.87220  0.99210  Biso   1.000  O
  O34      1.0000 0.36360  0.63090  0.97290  Biso   1.000  O
  O35      1.0000 0.38720  0.79190  0.52630  Biso   1.000  O
  O36      1.0000 0.22840  0.65840  0.96760  Biso   1.000  O
  O37      1.0000 0.39230  0.71660  0.59100  Biso   1.000  O
  F1       1.0000 0.60030  0.01590  0.04160  Biso   1.000  F
  F2       1.0000 0.02580  0.52950  0.34940  Biso   1.000  F
  F3       1.0000 0.47760  0.97170  0.13130  Biso   1.000  F
  F4       1.0000 0.40400  0.51520  0.42900  Biso   1.000  F
  Ga10     1.0000 0.57404  0.07945  0.56059  Biso   1.000  Ga
  Ga11     1.0000 0.51392  0.97440  0.53538  Biso   1.000  Ga
  Ga12     1.0000 0.84014  0.00750  0.37555  Biso   1.000  Ga
  Ga13     1.0000 0.65693  0.49390  0.09414  Biso   1.000  Ga
  Ga14     1.0000 0.91980  0.41875  0.91799  Biso   1.000  Ga
  Ga15     1.0000 0.98391  0.52439  0.94141  Biso   1.000  Ga
  Ga16     1.0000 0.65886  0.33234  0.09885  Biso   1.000  Ga
  Ga17     1.0000 0.84374  0.17809  0.37423  Biso   1.000  Ga
  Ga18     1.0000 0.69969  0.24113  0.42093  Biso   1.000  Ga
  P10      1.0000 0.68690  0.00363  0.56050  Biso   1.000  P
  P11      1.0000 0.47860  0.04666  0.33440  Biso   1.000  P
  P12      1.0000 0.93210  0.09293  0.35440  Biso   1.000  P
  P13      1.0000 0.01860  0.45188  0.14130  Biso   1.000  P
  P14      1.0000 0.81140  0.49631  0.90890  Biso   1.000  P
  P15      1.0000 0.56300  0.40943  0.12580  Biso   1.000  P
  P16      1.0000 0.64975  0.24133  0.11460  Biso   1.000  P
  P17      1.0000 0.68150  0.15945  0.54730  Biso   1.000  P
  P18      1.0000 0.69020  0.33726  0.41150  Biso   1.000  P
  O38      1.0000 0.63290  0.43860  0.13820  Biso   1.000  O
  O39      1.0000 0.86570  0.06230  0.33430  Biso   1.000  O
  O40      1.0000 0.87230  0.52760  0.94060  Biso   1.000  O
  O41      1.0000 0.63980  0.22880  0.25980  Biso   1.000  O
  O42      1.0000 0.97700  0.49180  0.10250  Biso   1.000  O
  O43      1.0000 0.79140  0.22980  0.32650  Biso   1.000  O
  O44      1.0000 0.62430  0.97050  0.53720  Biso   1.000  O
  O45      1.0000 0.51950  0.00700  0.37530  Biso   1.000  O
  O46      1.0000 0.73520  0.24890  0.08500  Biso   1.000  O
  O47      1.0000 0.75590  0.15650  0.46890  Biso   1.000  O
  O48      1.0000 0.74130  0.50760  0.99530  Biso   1.000  O
  O49      1.0000 0.65840  0.29440  0.44110  Biso   1.000  O
  O50      1.0000 0.75330  0.99300  0.47060  Biso   1.000  O
  O51      1.0000 0.99930  0.07460  0.42910  Biso   1.000  O
  O52      1.0000 0.64520  0.20280  0.52620  Biso   1.000  O
  O53      1.0000 0.49330  0.42730  0.05620  Biso   1.000  O
  O54      1.0000 0.50440  0.08310  0.42270  Biso   1.000  O
  O55      1.0000 0.98800  0.41430  0.05950  Biso   1.000  O
  O56      1.0000 0.39180  0.04180  0.34800  Biso   1.000  O
  O57      1.0000 0.66070  0.04800  0.52490  Biso   1.000  O
  O58      1.0000 0.83370  0.45120  0.94880  Biso   1.000  O
  O59      1.0000 0.10500  0.45610  0.11620  Biso   1.000  O
  O60      1.0000 0.70220  0.34460  0.25890  Biso   1.000  O
  O61      1.0000 0.49990  0.05860  0.19240  Biso   1.000  O
  O62      1.0000 0.71610  0.00290  0.70560  Biso   1.000  O
  O63      1.0000 0.78770  0.49760  0.76170  Biso   1.000  O
  O64      1.0000 0.69470  0.15320  0.69610  Biso   1.000  O
  O65      1.0000 0.54240  0.39420  0.26630  Biso   1.000  O
  O66      1.0000 0.00380  0.44140  0.28850  Biso   1.000  O
  O67      1.0000 0.58820  0.37070  0.04290  Biso   1.000  O
  O68      1.0000 0.95890  0.10710  0.21210  Biso   1.000  O
  O69      1.0000 0.90380  0.13180  0.42550  Biso   1.000  O
  O70      1.0000 0.62480  0.12780  0.49210  Biso   1.000  O
  O71      1.0000 0.63640  0.36910  0.47290  Biso   1.000  O
  O72      1.0000 0.61280  0.20810  0.02630  Biso   1.000  O
  O73      1.0000 0.77160  0.34160  0.46760  Biso   1.000  O
  O74      1.0000 0.60770  0.28340  0.09100  Biso   1.000  O
  F5       1.0000 0.39970  0.98410  0.54160  Biso   1.000  F
  F6       1.0000 0.97420  0.47050  0.84940  Biso   1.000  F
  F7       1.0000 0.52240  0.02830  0.63130  Biso   1.000  F
  F8       1.0000 0.59600  0.48480  0.92900  Biso   1.000  F
  Ga19     1.0000 0.92596  0.07945  0.06059  Biso   1.000  Ga
  Ga20     1.0000 0.98608  0.97440  0.03538  Biso   1.000  Ga
  Ga21     1.0000 0.65986  0.00750  0.87555  Biso   1.000  Ga
  Ga22     1.0000 0.84307  0.49390  0.59414  Biso   1.000  Ga
  Ga23     1.0000 0.58020  0.41875  0.41799  Biso   1.000  Ga
  Ga24     1.0000 0.51609  0.52439  0.44141  Biso   1.000  Ga
  Ga25     1.0000 0.84114  0.33234  0.59885  Biso   1.000  Ga
  Ga26     1.0000 0.65626  0.17809  0.87423  Biso   1.000  Ga
  Ga27     1.0000 0.80031  0.24113  0.92093  Biso   1.000  Ga
  P19      1.0000 0.81310  0.00363  0.06050  Biso   1.000  P
  P20      1.0000 0.02140  0.04666  0.83440  Biso   1.000  P
  P21      1.0000 0.56790  0.09293  0.85440  Biso   1.000  P
  P22      1.0000 0.48140  0.45188  0.64130  Biso   1.000  P
  P23      1.0000 0.68860  0.49631  0.40890  Biso   1.000  P
  P24      1.0000 0.93700  0.40943  0.62580  Biso   1.000  P
  P25      1.0000 0.85025  0.24133  0.61460  Biso   1.000  P
  P26      1.0000 0.81850  0.15945  0.04730  Biso   1.000  P
  P27      1.0000 0.80980  0.33726  0.91150  Biso   1.000  P
  O75      1.0000 0.86710  0.43860  0.63820  Biso   1.000  O
  O76      1.0000 0.63430  0.06230  0.83430  Biso   1.000  O
  O77      1.0000 0.62770  0.52760  0.44060  Biso   1.000  O
  O78      1.0000 0.86020  0.22880  0.75980  Biso   1.000  O
  O79      1.0000 0.52300  0.49180  0.60250  Biso   1.000  O
  O80      1.0000 0.70860  0.22980  0.82650  Biso   1.000  O
  O81      1.0000 0.87570  0.97050  0.03720  Biso   1.000  O
  O82      1.0000 0.98050  0.00700  0.87530  Biso   1.000  O
  O83      1.0000 0.76480  0.24890  0.58500  Biso   1.000  O
  O84      1.0000 0.74410  0.15650  0.96890  Biso   1.000  O
  O85      1.0000 0.75870  0.50760  0.49530  Biso   1.000  O
  O86      1.0000 0.84160  0.29440  0.94110  Biso   1.000  O
  O87      1.0000 0.74670  0.99300  0.97060  Biso   1.000  O
  O88      1.0000 0.50070  0.07460  0.92910  Biso   1.000  O
  O89      1.0000 0.85480  0.20280  0.02620  Biso   1.000  O
  O90      1.0000 0.00670  0.42730  0.55620  Biso   1.000  O
  O91      1.0000 0.99560  0.08310  0.92270  Biso   1.000  O
  O92      1.0000 0.51200  0.41430  0.55950  Biso   1.000  O
  O93      1.0000 0.10820  0.04180  0.84800  Biso   1.000  O
  O94      1.0000 0.83930  0.04800  0.02490  Biso   1.000  O
  O95      1.0000 0.66630  0.45120  0.44880  Biso   1.000  O
  O96      1.0000 0.39500  0.45610  0.61620  Biso   1.000  O
  O97      1.0000 0.79780  0.34460  0.75890  Biso   1.000  O
  O98      1.0000 0.00010  0.05860  0.69240  Biso   1.000  O
  O99      1.0000 0.78390  0.00290  0.20560  Biso   1.000  O
  O100     1.0000 0.71230  0.49760  0.26170  Biso   1.000  O
  O101     1.0000 0.80530  0.15320  0.19610  Biso   1.000  O
  O102     1.0000 0.95760  0.39420  0.76630  Biso   1.000  O
  O103     1.0000 0.49620  0.44140  0.78850  Biso   1.000  O
  O104     1.0000 0.91180  0.37070  0.54290  Biso   1.000  O
  O105     1.0000 0.54110  0.10710  0.71210  Biso   1.000  O
  O106     1.0000 0.59620  0.13180  0.92550  Biso   1.000  O
  O107     1.0000 0.87520  0.12780  0.99210  Biso   1.000  O
  O108     1.0000 0.86360  0.36910  0.97290  Biso   1.000  O
  O109     1.0000 0.88720  0.20810  0.52630  Biso   1.000  O
  O110     1.0000 0.72840  0.34160  0.96760  Biso   1.000  O
  O111     1.0000 0.89230  0.28340  0.59100  Biso   1.000  O
  F9       1.0000 0.10030  0.98410  0.04160  Biso   1.000  F
  F10      1.0000 0.52580  0.47050  0.34940  Biso   1.000  F
  F11      1.0000 0.97760  0.02830  0.13130  Biso   1.000  F
  F12      1.0000 0.90400  0.48480  0.42900  Biso   1.000  F
  Ga28     1.0000 0.07404  0.92055  0.56059  Biso   1.000  Ga
  Ga29     1.0000 0.01392  0.02560  0.53538  Biso   1.000  Ga
  Ga30     1.0000 0.34014  0.99250  0.37555  Biso   1.000  Ga
  Ga31     1.0000 0.15693  0.50610  0.09414  Biso   1.000  Ga
  Ga32     1.0000 0.41980  0.58125  0.91799  Biso   1.000  Ga
  Ga33     1.0000 0.48391  0.47561  0.94141  Biso   1.000  Ga
  Ga34     1.0000 0.15886  0.66766  0.09885  Biso   1.000  Ga
  Ga35     1.0000 0.34374  0.82191  0.37423  Biso   1.000  Ga
  Ga36     1.0000 0.19969  0.75887  0.42093  Biso   1.000  Ga
  P28      1.0000 0.18690  0.99637  0.56050  Biso   1.000  P
  P29      1.0000 0.97860  0.95334  0.33440  Biso   1.000  P
  P30      1.0000 0.43210  0.90707  0.35440  Biso   1.000  P
  P31      1.0000 0.51860  0.54812  0.14130  Biso   1.000  P
  P32      1.0000 0.31140  0.50369  0.90890  Biso   1.000  P
  P33      1.0000 0.06300  0.59057  0.12580  Biso   1.000  P
  P34      1.0000 0.14975  0.75867  0.11460  Biso   1.000  P
  P35      1.0000 0.18150  0.84055  0.54730  Biso   1.000  P
  P36      1.0000 0.19020  0.66274  0.41150  Biso   1.000  P
  O112     1.0000 0.13290  0.56140  0.13820  Biso   1.000  O
  O113     1.0000 0.36570  0.93770  0.33430  Biso   1.000  O
  O114     1.0000 0.37230  0.47240  0.94060  Biso   1.000  O
  O115     1.0000 0.13980  0.77120  0.25980  Biso   1.000  O
  O116     1.0000 0.47700  0.50820  0.10250  Biso   1.000  O
  O117     1.0000 0.29140  0.77020  0.32650  Biso   1.000  O
  O118     1.0000 0.12430  0.02950  0.53720  Biso   1.000  O
  O119     1.0000 0.01950  0.99300  0.37530  Biso   1.000  O
  O120     1.0000 0.23520  0.75110  0.08500  Biso   1.000  O
  O121     1.0000 0.25590  0.84350  0.46890  Biso   1.000  O
  O122     1.0000 0.24130  0.49240  0.99530  Biso   1.000  O
  O123     1.0000 0.15840  0.70560  0.44110  Biso   1.000  O
  O124     1.0000 0.25330  0.00700  0.47060  Biso   1.000  O
  O125     1.0000 0.49930  0.92540  0.42910  Biso   1.000  O
  O126     1.0000 0.14520  0.79720  0.52620  Biso   1.000  O
  O127     1.0000 0.99330  0.57270  0.05620  Biso   1.000  O
  O128     1.0000 0.00440  0.91690  0.42270  Biso   1.000  O
  O129     1.0000 0.48800  0.58570  0.05950  Biso   1.000  O
  O130     1.0000 0.89180  0.95820  0.34800  Biso   1.000  O
  O131     1.0000 0.16070  0.95200  0.52490  Biso   1.000  O
  O132     1.0000 0.33370  0.54880  0.94880  Biso   1.000  O
  O133     1.0000 0.60500  0.54390  0.11620  Biso   1.000  O
  O134     1.0000 0.20220  0.65540  0.25890  Biso   1.000  O
  O135     1.0000 0.99990  0.94140  0.19240  Biso   1.000  O
  O136     1.0000 0.21610  0.99710  0.70560  Biso   1.000  O
  O137     1.0000 0.28770  0.50240  0.76170  Biso   1.000  O
  O138     1.0000 0.19470  0.84680  0.69610  Biso   1.000  O
  O139     1.0000 0.04240  0.60580  0.26630  Biso   1.000  O
  O140     1.0000 0.50380  0.55860  0.28850  Biso   1.000  O
  O141     1.0000 0.08820  0.62930  0.04290  Biso   1.000  O
  O142     1.0000 0.45890  0.89290  0.21210  Biso   1.000  O
  O143     1.0000 0.40380  0.86820  0.42550  Biso   1.000  O
  O144     1.0000 0.12480  0.87220  0.49210  Biso   1.000  O
  O145     1.0000 0.13640  0.63090  0.47290  Biso   1.000  O
  O146     1.0000 0.11280  0.79190  0.02630  Biso   1.000  O
  O147     1.0000 0.27160  0.65840  0.46760  Biso   1.000  O
  O148     1.0000 0.10770  0.71660  0.09100  Biso   1.000  O
  F13      1.0000 0.89970  0.01590  0.54160  Biso   1.000  F
  F14      1.0000 0.47420  0.52950  0.84940  Biso   1.000  F
  F15      1.0000 0.02240  0.97170  0.63130  Biso   1.000  F
  F16      1.0000 0.09600  0.51520  0.92900  Biso   1.000  F
