data_image0
_cell_length_a       9.749
_cell_length_b       10.658
_cell_length_c       16.414
_cell_angle_alpha    74.83
_cell_angle_beta     82.72
_cell_angle_gamma    63.98

_symmetry_space_group_name_H-M    "P 1"
_symmetry_int_tables_number       1

loop_
  _symmetry_equiv_pos_as_xyz
  'x, y, z'

loop_
  _atom_site_label
  _atom_site_occupancy
  _atom_site_fract_x
  _atom_site_fract_y
  _atom_site_fract_z
  _atom_site_thermal_displace_type
  _atom_site_B_iso_or_equiv
  _atom_site_type_symbol
  La1      1.0000 0.87616  0.03108  0.12561  Biso   1.000  La
  La2      1.0000 0.62951  0.98236  0.37590  Biso   1.000  La
  O1       1.0000 0.41480  0.10690  0.26550  Biso   1.000  O
  O2       1.0000 0.62730  0.10110  0.20280  Biso   1.000  O
  O3       1.0000 0.09410  0.87160  0.04680  Biso   1.000  O
  O4       1.0000 0.27290  0.72710  0.97690  Biso   1.000  O
  O5       1.0000 0.71140  0.80000  0.29180  Biso   1.000  O
  O6       1.0000 0.86440  0.79240  0.17910  Biso   1.000  O
  O7       1.0000 0.70800  0.12640  0.46070  Biso   1.000  O
  O8       1.0000 0.62260  0.23710  0.33280  Biso   1.000  O
  O9       1.0000 0.88540  0.95140  0.31410  Biso   1.000  O
  O10      1.0000 0.09010  0.89010  0.23450  Biso   1.000  O
  O11      1.0000 0.20120  0.25410  0.52450  Biso   1.000  O
  O12      1.0000 0.39290  0.12520  0.45380  Biso   1.000  O
  O13      1.0000 0.08170  0.13240  0.09220  Biso   1.000  O
  C1       1.0000 0.48530  0.14270  0.20110  Biso   1.000  C
  C2       1.0000 0.39800  0.24070  0.12220  Biso   1.000  C
  H1       1.0000 0.46860  0.24390  0.07530  Biso   1.000  H
  H2       1.0000 0.33050  0.20450  0.10820  Biso   1.000  H
  C3       1.0000 0.30720  0.38730  0.13720  Biso   1.000  C
  H3       1.0000 0.21390  0.40530  0.16530  Biso   1.000  H
  C4       1.0000 0.34850  0.49150  0.11400  Biso   1.000  C
  H4       1.0000 0.44310  0.47270  0.08730  Biso   1.000  H
  C5       1.0000 0.25570  0.64030  0.12700  Biso   1.000  C
  H5       1.0000 0.16640  0.64240  0.16120  Biso   1.000  H
  H6       1.0000 0.31590  0.66450  0.15780  Biso   1.000  H
  C6       1.0000 0.20540  0.75110  0.04570  Biso   1.000  C
  C7       1.0000 0.80380  0.73610  0.24230  Biso   1.000  C
  C8       1.0000 0.84300  0.58020  0.25160  Biso   1.000  C
  H7       1.0000 0.80360  0.57070  0.20320  Biso   1.000  H
  H8       1.0000 0.95320  0.52820  0.25000  Biso   1.000  H
  C9       1.0000 0.78390  0.51040  0.32970  Biso   1.000  C
  H9       1.0000 0.82950  0.49960  0.37900  Biso   1.000  H
  C10      1.0000 0.68770  0.46540  0.34040  Biso   1.000  C
  H10      1.0000 0.63290  0.48740  0.29220  Biso   1.000  H
  C11      1.0000 0.64010  0.38080  0.41680  Biso   1.000  C
  H11      1.0000 0.53400  0.43600  0.43030  Biso   1.000  H
  H12      1.0000 0.70120  0.36290  0.46430  Biso   1.000  H
  C12      1.0000 0.65910  0.23990  0.40270  Biso   1.000  C
  C13      1.0000 0.02420  0.87620  0.30580  Biso   1.000  C
  C14      1.0000 0.11610  0.76590  0.37910  Biso   1.000  C
  H13      1.0000 0.04930  0.76370  0.42800  Biso   1.000  H
  H14      1.0000 0.19190  0.79330  0.39220  Biso   1.000  H
  C15      1.0000 0.19540  0.61790  0.36190  Biso   1.000  C
  H15      1.0000 0.27550  0.60080  0.32280  Biso   1.000  H
  C16      1.0000 0.15860  0.51230  0.39860  Biso   1.000  C
  H16      1.0000 0.07940  0.52940  0.43820  Biso   1.000  H
  C17      1.0000 0.23540  0.36460  0.38110  Biso   1.000  C
  H17      1.0000 0.16820  0.35490  0.34680  Biso   1.000  H
  H18      1.0000 0.32770  0.35620  0.34820  Biso   1.000  H
  C18      1.0000 0.27650  0.24300  0.45800  Biso   1.000  C
  H19      1.0000 0.03700  0.20700  0.05700  Biso   1.000  H
  H20      1.0000 0.13300  0.06800  0.06700  Biso   1.000  H
  La3      1.0000 0.12384  0.96892  0.87439  Biso   1.000  La
  La4      1.0000 0.37049  0.01764  0.62410  Biso   1.000  La
  O14      1.0000 0.58520  0.89310  0.73450  Biso   1.000  O
  O15      1.0000 0.37270  0.89890  0.79720  Biso   1.000  O
  O16      1.0000 0.90590  0.12840  0.95320  Biso   1.000  O
  O17      1.0000 0.72710  0.27290  0.02310  Biso   1.000  O
  O18      1.0000 0.28860  0.20000  0.70820  Biso   1.000  O
  O19      1.0000 0.13560  0.20760  0.82090  Biso   1.000  O
  O20      1.0000 0.29200  0.87360  0.53930  Biso   1.000  O
  O21      1.0000 0.37740  0.76290  0.66720  Biso   1.000  O
  O22      1.0000 0.11460  0.04860  0.68590  Biso   1.000  O
  O23      1.0000 0.90990  0.10990  0.76550  Biso   1.000  O
  O24      1.0000 0.79880  0.74590  0.47550  Biso   1.000  O
  O25      1.0000 0.60710  0.87480  0.54620  Biso   1.000  O
  O26      1.0000 0.91830  0.86760  0.90780  Biso   1.000  O
  C19      1.0000 0.51470  0.85730  0.79890  Biso   1.000  C
  C20      1.0000 0.60200  0.75930  0.87780  Biso   1.000  C
  H21      1.0000 0.53140  0.75610  0.92470  Biso   1.000  H
  H22      1.0000 0.66950  0.79550  0.89180  Biso   1.000  H
  C21      1.0000 0.69280  0.61270  0.86280  Biso   1.000  C
  H23      1.0000 0.78610  0.59470  0.83470  Biso   1.000  H
  C22      1.0000 0.65150  0.50850  0.88600  Biso   1.000  C
  H24      1.0000 0.55690  0.52730  0.91270  Biso   1.000  H
  C23      1.0000 0.74430  0.35970  0.87300  Biso   1.000  C
  H25      1.0000 0.83360  0.35760  0.83880  Biso   1.000  H
  H26      1.0000 0.68410  0.33550  0.84220  Biso   1.000  H
  C24      1.0000 0.79460  0.24890  0.95430  Biso   1.000  C
  C25      1.0000 0.19620  0.26390  0.75770  Biso   1.000  C
  C26      1.0000 0.15700  0.41980  0.74840  Biso   1.000  C
  H27      1.0000 0.19640  0.42930  0.79680  Biso   1.000  H
  H28      1.0000 0.04680  0.47180  0.75000  Biso   1.000  H
  C27      1.0000 0.21610  0.48960  0.67030  Biso   1.000  C
  H29      1.0000 0.17050  0.50040  0.62100  Biso   1.000  H
  C28      1.0000 0.31230  0.53460  0.65960  Biso   1.000  C
  H30      1.0000 0.36710  0.51260  0.70780  Biso   1.000  H
  C29      1.0000 0.35990  0.61920  0.58320  Biso   1.000  C
  H31      1.0000 0.46600  0.56400  0.56970  Biso   1.000  H
  H32      1.0000 0.29880  0.63710  0.53570  Biso   1.000  H
  C30      1.0000 0.34090  0.76010  0.59730  Biso   1.000  C
  C31      1.0000 0.97580  0.12380  0.69420  Biso   1.000  C
  C32      1.0000 0.88390  0.23410  0.62090  Biso   1.000  C
  H33      1.0000 0.95070  0.23630  0.57200  Biso   1.000  H
  H34      1.0000 0.80810  0.20670  0.60780  Biso   1.000  H
  C33      1.0000 0.80460  0.38210  0.63810  Biso   1.000  C
  H35      1.0000 0.72450  0.39920  0.67720  Biso   1.000  H
  C34      1.0000 0.84140  0.48770  0.60140  Biso   1.000  C
  H36      1.0000 0.92060  0.47060  0.56180  Biso   1.000  H
  C35      1.0000 0.76460  0.63540  0.61890  Biso   1.000  C
  H37      1.0000 0.83180  0.64510  0.65320  Biso   1.000  H
  H38      1.0000 0.67230  0.64380  0.65180  Biso   1.000  H
  C36      1.0000 0.72350  0.75700  0.54200  Biso   1.000  C
  H39      1.0000 0.96300  0.79300  0.94300  Biso   1.000  H
  H40      1.0000 0.86700  0.93200  0.93300  Biso   1.000  H
