data_image0
_cell_length_a       14.932
_cell_length_b       17.072
_cell_length_c       21.282
_cell_angle_alpha    90
_cell_angle_beta     90
_cell_angle_gamma    90

_symmetry_space_group_name_H-M    "P 1"
_symmetry_int_tables_number       1

loop_
  _symmetry_equiv_pos_as_xyz
  'x, y, z'

loop_
  _atom_site_label
  _atom_site_occupancy
  _atom_site_fract_x
  _atom_site_fract_y
  _atom_site_fract_z
  _atom_site_thermal_displace_type
  _atom_site_B_iso_or_equiv
  _atom_site_type_symbol
  Co1      1.0000 0.59889  0.46863  0.48766  Biso   1.000  Co
  Co2      1.0000 0.44266  0.38951  0.39150  Biso   1.000  Co
  O1       1.0000 0.88202  0.57294  0.08150  Biso   1.000  O
  O2       1.0000 0.83671  0.46204  0.12860  Biso   1.000  O
  O3       1.0000 0.59924  0.81688  0.18809  Biso   1.000  O
  O4       1.0000 0.64868  0.79047  0.09308  Biso   1.000  O
  O5       1.0000 0.85256  0.86044  0.45922  Biso   1.000  O
  O6       1.0000 0.95936  0.80540  0.39986  Biso   1.000  O
  O7       1.0000 0.46295  0.43070  0.48043  Biso   1.000  O
  H1       1.0000 0.44910  0.39090  0.50660  Biso   1.000  H
  N1       1.0000 0.61822  0.54729  0.29534  Biso   1.000  N
  N2       1.0000 0.59280  0.51029  0.39169  Biso   1.000  N
  N3       1.0000 0.53525  0.46972  0.35228  Biso   1.000  N
  C1       1.0000 0.64127  0.55732  0.35688  Biso   1.000  C
  C2       1.0000 0.55091  0.49285  0.29472  Biso   1.000  C
  C3       1.0000 0.65857  0.58450  0.24141  Biso   1.000  C
  C4       1.0000 0.72297  0.54362  0.20780  Biso   1.000  C
  H2       1.0000 0.73970  0.49340  0.22000  Biso   1.000  H
  C5       1.0000 0.76236  0.57862  0.15545  Biso   1.000  C
  C6       1.0000 0.73464  0.65279  0.13685  Biso   1.000  C
  H3       1.0000 0.75930  0.67560  0.10110  Biso   1.000  H
  C7       1.0000 0.67023  0.69324  0.17133  Biso   1.000  C
  C8       1.0000 0.63230  0.65949  0.22481  Biso   1.000  C
  H4       1.0000 0.59040  0.68670  0.24870  Biso   1.000  H
  C9       1.0000 0.83306  0.53498  0.11889  Biso   1.000  C
  C10      1.0000 0.63829  0.77207  0.14980  Biso   1.000  C
  C11      1.0000 0.70660  0.61747  0.37795  Biso   1.000  C
  C12      1.0000 0.67526  0.67988  0.41309  Biso   1.000  C
  H5       1.0000 0.61540  0.68190  0.42510  Biso   1.000  H
  C13      1.0000 0.73348  0.73949  0.43043  Biso   1.000  C
  H6       1.0000 0.71270  0.78070  0.45500  Biso   1.000  H
  C14      1.0000 0.82260  0.73825  0.41149  Biso   1.000  C
  C15      1.0000 0.85423  0.67463  0.37693  Biso   1.000  C
  H7       1.0000 0.91410  0.67260  0.36490  Biso   1.000  H
  C16      1.0000 0.79658  0.61434  0.36045  Biso   1.000  C
  H8       1.0000 0.81790  0.57180  0.33770  Biso   1.000  H
  C17      1.0000 0.88338  0.80698  0.42529  Biso   1.000  C
  C18      1.0000 0.50215  0.46782  0.23707  Biso   1.000  C
  H9       1.0000 0.52610  0.49490  0.20130  Biso   1.000  H
  H10      1.0000 0.43970  0.48010  0.24140  Biso   1.000  H
  H11      1.0000 0.50920  0.41240  0.23140  Biso   1.000  H
  Co3      1.0000 0.90111  0.53137  0.98766  Biso   1.000  Co
  Co4      1.0000 0.05734  0.61049  0.89150  Biso   1.000  Co
  O8       1.0000 0.61798  0.42706  0.58150  Biso   1.000  O
  O9       1.0000 0.66329  0.53796  0.62860  Biso   1.000  O
  O10      1.0000 0.90076  0.18312  0.68809  Biso   1.000  O
  O11      1.0000 0.85132  0.20953  0.59308  Biso   1.000  O
  O12      1.0000 0.64744  0.13956  0.95922  Biso   1.000  O
  O13      1.0000 0.54064  0.19460  0.89986  Biso   1.000  O
  O14      1.0000 0.03705  0.56930  0.98043  Biso   1.000  O
  H12      1.0000 0.05090  0.60910  0.00660  Biso   1.000  H
  N4       1.0000 0.88178  0.45271  0.79534  Biso   1.000  N
  N5       1.0000 0.90720  0.48971  0.89169  Biso   1.000  N
  N6       1.0000 0.96475  0.53028  0.85228  Biso   1.000  N
  C19      1.0000 0.85873  0.44268  0.85688  Biso   1.000  C
  C20      1.0000 0.94909  0.50715  0.79472  Biso   1.000  C
  C21      1.0000 0.84143  0.41550  0.74141  Biso   1.000  C
  C22      1.0000 0.77703  0.45638  0.70780  Biso   1.000  C
  H13      1.0000 0.76030  0.50660  0.72000  Biso   1.000  H
  C23      1.0000 0.73764  0.42138  0.65545  Biso   1.000  C
  C24      1.0000 0.76536  0.34721  0.63685  Biso   1.000  C
  H14      1.0000 0.74070  0.32440  0.60110  Biso   1.000  H
  C25      1.0000 0.82977  0.30676  0.67133  Biso   1.000  C
  C26      1.0000 0.86770  0.34051  0.72481  Biso   1.000  C
  H15      1.0000 0.90960  0.31330  0.74870  Biso   1.000  H
  C27      1.0000 0.66694  0.46502  0.61889  Biso   1.000  C
  C28      1.0000 0.86171  0.22793  0.64980  Biso   1.000  C
  C29      1.0000 0.79340  0.38253  0.87795  Biso   1.000  C
  C30      1.0000 0.82474  0.32012  0.91309  Biso   1.000  C
  H16      1.0000 0.88460  0.31810  0.92510  Biso   1.000  H
  C31      1.0000 0.76652  0.26051  0.93043  Biso   1.000  C
  H17      1.0000 0.78730  0.21930  0.95500  Biso   1.000  H
  C32      1.0000 0.67740  0.26175  0.91149  Biso   1.000  C
  C33      1.0000 0.64577  0.32537  0.87693  Biso   1.000  C
  H18      1.0000 0.58590  0.32740  0.86490  Biso   1.000  H
  C34      1.0000 0.70342  0.38566  0.86045  Biso   1.000  C
  H19      1.0000 0.68210  0.42820  0.83770  Biso   1.000  H
  C35      1.0000 0.61662  0.19302  0.92529  Biso   1.000  C
  C36      1.0000 0.99785  0.53218  0.73707  Biso   1.000  C
  H20      1.0000 0.97390  0.50510  0.70130  Biso   1.000  H
  H21      1.0000 0.06030  0.51990  0.74140  Biso   1.000  H
  H22      1.0000 0.99080  0.58760  0.73140  Biso   1.000  H
  Co5      1.0000 0.40111  0.96863  0.01234  Biso   1.000  Co
  Co6      1.0000 0.55734  0.88951  0.10850  Biso   1.000  Co
  O15      1.0000 0.11798  0.07294  0.41850  Biso   1.000  O
  O16      1.0000 0.16329  0.96204  0.37140  Biso   1.000  O
  O17      1.0000 0.40076  0.31688  0.31191  Biso   1.000  O
  O18      1.0000 0.35132  0.29047  0.40692  Biso   1.000  O
  O19      1.0000 0.14744  0.36044  0.04078  Biso   1.000  O
  O20      1.0000 0.04064  0.30540  0.10014  Biso   1.000  O
  O21      1.0000 0.53705  0.93070  0.01957  Biso   1.000  O
  H23      1.0000 0.55090  0.89090  0.99340  Biso   1.000  H
  N7       1.0000 0.38178  0.04729  0.20466  Biso   1.000  N
  N8       1.0000 0.40720  0.01029  0.10831  Biso   1.000  N
  N9       1.0000 0.46475  0.96972  0.14772  Biso   1.000  N
  C37      1.0000 0.35873  0.05732  0.14312  Biso   1.000  C
  C38      1.0000 0.44909  0.99285  0.20528  Biso   1.000  C
  C39      1.0000 0.34143  0.08450  0.25859  Biso   1.000  C
  C40      1.0000 0.27703  0.04362  0.29220  Biso   1.000  C
  H24      1.0000 0.26030  0.99340  0.28000  Biso   1.000  H
  C41      1.0000 0.23764  0.07862  0.34455  Biso   1.000  C
  C42      1.0000 0.26536  0.15279  0.36315  Biso   1.000  C
  H25      1.0000 0.24070  0.17560  0.39890  Biso   1.000  H
  C43      1.0000 0.32977  0.19324  0.32867  Biso   1.000  C
  C44      1.0000 0.36770  0.15949  0.27519  Biso   1.000  C
  H26      1.0000 0.40960  0.18670  0.25130  Biso   1.000  H
  C45      1.0000 0.16694  0.03498  0.38111  Biso   1.000  C
  C46      1.0000 0.36171  0.27207  0.35020  Biso   1.000  C
  C47      1.0000 0.29340  0.11747  0.12205  Biso   1.000  C
  C48      1.0000 0.32474  0.17988  0.08691  Biso   1.000  C
  H27      1.0000 0.38460  0.18190  0.07490  Biso   1.000  H
  C49      1.0000 0.26652  0.23949  0.06957  Biso   1.000  C
  H28      1.0000 0.28730  0.28070  0.04500  Biso   1.000  H
  C50      1.0000 0.17740  0.23825  0.08851  Biso   1.000  C
  C51      1.0000 0.14577  0.17463  0.12307  Biso   1.000  C
  H29      1.0000 0.08590  0.17260  0.13510  Biso   1.000  H
  C52      1.0000 0.20342  0.11434  0.13955  Biso   1.000  C
  H30      1.0000 0.18210  0.07180  0.16230  Biso   1.000  H
  C53      1.0000 0.11662  0.30698  0.07471  Biso   1.000  C
  C54      1.0000 0.49785  0.96782  0.26293  Biso   1.000  C
  H31      1.0000 0.47390  0.99490  0.29870  Biso   1.000  H
  H32      1.0000 0.56030  0.98010  0.25860  Biso   1.000  H
  H33      1.0000 0.49080  0.91240  0.26860  Biso   1.000  H
  Co7      1.0000 0.09889  0.03137  0.51234  Biso   1.000  Co
  Co8      1.0000 0.94266  0.11049  0.60850  Biso   1.000  Co
  O22      1.0000 0.38202  0.92706  0.91850  Biso   1.000  O
  O23      1.0000 0.33671  0.03796  0.87140  Biso   1.000  O
  O24      1.0000 0.09924  0.68312  0.81191  Biso   1.000  O
  O25      1.0000 0.14868  0.70953  0.90692  Biso   1.000  O
  O26      1.0000 0.35256  0.63956  0.54078  Biso   1.000  O
  O27      1.0000 0.45936  0.69460  0.60014  Biso   1.000  O
  O28      1.0000 0.96295  0.06930  0.51957  Biso   1.000  O
  H34      1.0000 0.94910  0.10910  0.49340  Biso   1.000  H
  N10      1.0000 0.11822  0.95271  0.70466  Biso   1.000  N
  N11      1.0000 0.09280  0.98971  0.60831  Biso   1.000  N
  N12      1.0000 0.03525  0.03028  0.64772  Biso   1.000  N
  C55      1.0000 0.14127  0.94268  0.64312  Biso   1.000  C
  C56      1.0000 0.05091  0.00715  0.70528  Biso   1.000  C
  C57      1.0000 0.15857  0.91550  0.75859  Biso   1.000  C
  C58      1.0000 0.22297  0.95638  0.79220  Biso   1.000  C
  H35      1.0000 0.23970  0.00660  0.78000  Biso   1.000  H
  C59      1.0000 0.26236  0.92138  0.84455  Biso   1.000  C
  C60      1.0000 0.23464  0.84721  0.86315  Biso   1.000  C
  H36      1.0000 0.25930  0.82440  0.89890  Biso   1.000  H
  C61      1.0000 0.17023  0.80676  0.82867  Biso   1.000  C
  C62      1.0000 0.13230  0.84051  0.77519  Biso   1.000  C
  H37      1.0000 0.09040  0.81330  0.75130  Biso   1.000  H
  C63      1.0000 0.33306  0.96502  0.88111  Biso   1.000  C
  C64      1.0000 0.13829  0.72793  0.85020  Biso   1.000  C
  C65      1.0000 0.20660  0.88253  0.62205  Biso   1.000  C
  C66      1.0000 0.17526  0.82012  0.58691  Biso   1.000  C
  H38      1.0000 0.11540  0.81810  0.57490  Biso   1.000  H
  C67      1.0000 0.23348  0.76051  0.56957  Biso   1.000  C
  H39      1.0000 0.21270  0.71930  0.54500  Biso   1.000  H
  C68      1.0000 0.32260  0.76175  0.58851  Biso   1.000  C
  C69      1.0000 0.35423  0.82537  0.62307  Biso   1.000  C
  H40      1.0000 0.41410  0.82740  0.63510  Biso   1.000  H
  C70      1.0000 0.29658  0.88566  0.63955  Biso   1.000  C
  H41      1.0000 0.31790  0.92820  0.66230  Biso   1.000  H
  C71      1.0000 0.38338  0.69302  0.57471  Biso   1.000  C
  C72      1.0000 0.00215  0.03218  0.76293  Biso   1.000  C
  H42      1.0000 0.02610  0.00510  0.79870  Biso   1.000  H
  H43      1.0000 0.93970  0.01990  0.75860  Biso   1.000  H
  H44      1.0000 0.00920  0.08760  0.76860  Biso   1.000  H
  Co9      1.0000 0.40111  0.53137  0.51234  Biso   1.000  Co
  Co10     1.0000 0.55734  0.61049  0.60850  Biso   1.000  Co
  O29      1.0000 0.11798  0.42706  0.91850  Biso   1.000  O
  O30      1.0000 0.16329  0.53796  0.87140  Biso   1.000  O
  O31      1.0000 0.40076  0.18312  0.81191  Biso   1.000  O
  O32      1.0000 0.35132  0.20953  0.90692  Biso   1.000  O
  O33      1.0000 0.14744  0.13956  0.54078  Biso   1.000  O
  O34      1.0000 0.04064  0.19460  0.60014  Biso   1.000  O
  O35      1.0000 0.53705  0.56930  0.51957  Biso   1.000  O
  H45      1.0000 0.55090  0.60910  0.49340  Biso   1.000  H
  N13      1.0000 0.38178  0.45271  0.70466  Biso   1.000  N
  N14      1.0000 0.40720  0.48971  0.60831  Biso   1.000  N
  N15      1.0000 0.46475  0.53028  0.64772  Biso   1.000  N
  C73      1.0000 0.35873  0.44268  0.64312  Biso   1.000  C
  C74      1.0000 0.44909  0.50715  0.70528  Biso   1.000  C
  C75      1.0000 0.34143  0.41550  0.75859  Biso   1.000  C
  C76      1.0000 0.27703  0.45638  0.79220  Biso   1.000  C
  H46      1.0000 0.26030  0.50660  0.78000  Biso   1.000  H
  C77      1.0000 0.23764  0.42138  0.84455  Biso   1.000  C
  C78      1.0000 0.26536  0.34721  0.86315  Biso   1.000  C
  H47      1.0000 0.24070  0.32440  0.89890  Biso   1.000  H
  C79      1.0000 0.32977  0.30676  0.82867  Biso   1.000  C
  C80      1.0000 0.36770  0.34051  0.77519  Biso   1.000  C
  H48      1.0000 0.40960  0.31330  0.75130  Biso   1.000  H
  C81      1.0000 0.16694  0.46502  0.88111  Biso   1.000  C
  C82      1.0000 0.36171  0.22793  0.85020  Biso   1.000  C
  C83      1.0000 0.29340  0.38253  0.62205  Biso   1.000  C
  C84      1.0000 0.32474  0.32012  0.58691  Biso   1.000  C
  H49      1.0000 0.38460  0.31810  0.57490  Biso   1.000  H
  C85      1.0000 0.26652  0.26051  0.56957  Biso   1.000  C
  H50      1.0000 0.28730  0.21930  0.54500  Biso   1.000  H
  C86      1.0000 0.17740  0.26175  0.58851  Biso   1.000  C
  C87      1.0000 0.14577  0.32537  0.62307  Biso   1.000  C
  H51      1.0000 0.08590  0.32740  0.63510  Biso   1.000  H
  C88      1.0000 0.20342  0.38566  0.63955  Biso   1.000  C
  H52      1.0000 0.18210  0.42820  0.66230  Biso   1.000  H
  C89      1.0000 0.11662  0.19302  0.57471  Biso   1.000  C
  C90      1.0000 0.49785  0.53218  0.76293  Biso   1.000  C
  H53      1.0000 0.47390  0.50510  0.79870  Biso   1.000  H
  H54      1.0000 0.56030  0.51990  0.75860  Biso   1.000  H
  H55      1.0000 0.49080  0.58760  0.76860  Biso   1.000  H
  Co11     1.0000 0.09889  0.46863  0.01234  Biso   1.000  Co
  Co12     1.0000 0.94266  0.38951  0.10850  Biso   1.000  Co
  O36      1.0000 0.38202  0.57294  0.41850  Biso   1.000  O
  O37      1.0000 0.33671  0.46204  0.37140  Biso   1.000  O
  O38      1.0000 0.09924  0.81688  0.31191  Biso   1.000  O
  O39      1.0000 0.14868  0.79047  0.40692  Biso   1.000  O
  O40      1.0000 0.35256  0.86044  0.04078  Biso   1.000  O
  O41      1.0000 0.45936  0.80540  0.10014  Biso   1.000  O
  O42      1.0000 0.96295  0.43070  0.01957  Biso   1.000  O
  H56      1.0000 0.94910  0.39090  0.99340  Biso   1.000  H
  N16      1.0000 0.11822  0.54729  0.20466  Biso   1.000  N
  N17      1.0000 0.09280  0.51029  0.10831  Biso   1.000  N
  N18      1.0000 0.03525  0.46972  0.14772  Biso   1.000  N
  C91      1.0000 0.14127  0.55732  0.14312  Biso   1.000  C
  C92      1.0000 0.05091  0.49285  0.20528  Biso   1.000  C
  C93      1.0000 0.15857  0.58450  0.25859  Biso   1.000  C
  C94      1.0000 0.22297  0.54362  0.29220  Biso   1.000  C
  H57      1.0000 0.23970  0.49340  0.28000  Biso   1.000  H
  C95      1.0000 0.26236  0.57862  0.34455  Biso   1.000  C
  C96      1.0000 0.23464  0.65279  0.36315  Biso   1.000  C
  H58      1.0000 0.25930  0.67560  0.39890  Biso   1.000  H
  C97      1.0000 0.17023  0.69324  0.32867  Biso   1.000  C
  C98      1.0000 0.13230  0.65949  0.27519  Biso   1.000  C
  H59      1.0000 0.09040  0.68670  0.25130  Biso   1.000  H
  C99      1.0000 0.33306  0.53498  0.38111  Biso   1.000  C
  C100     1.0000 0.13829  0.77207  0.35020  Biso   1.000  C
  C101     1.0000 0.20660  0.61747  0.12205  Biso   1.000  C
  C102     1.0000 0.17526  0.67988  0.08691  Biso   1.000  C
  H60      1.0000 0.11540  0.68190  0.07490  Biso   1.000  H
  C103     1.0000 0.23348  0.73949  0.06957  Biso   1.000  C
  H61      1.0000 0.21270  0.78070  0.04500  Biso   1.000  H
  C104     1.0000 0.32260  0.73825  0.08851  Biso   1.000  C
  C105     1.0000 0.35423  0.67463  0.12307  Biso   1.000  C
  H62      1.0000 0.41410  0.67260  0.13510  Biso   1.000  H
  C106     1.0000 0.29658  0.61434  0.13955  Biso   1.000  C
  H63      1.0000 0.31790  0.57180  0.16230  Biso   1.000  H
  C107     1.0000 0.38338  0.80698  0.07471  Biso   1.000  C
  C108     1.0000 0.00215  0.46782  0.26293  Biso   1.000  C
  H64      1.0000 0.02610  0.49490  0.29870  Biso   1.000  H
  H65      1.0000 0.93970  0.48010  0.25860  Biso   1.000  H
  H66      1.0000 0.00920  0.41240  0.26860  Biso   1.000  H
  Co13     1.0000 0.59889  0.03137  0.98766  Biso   1.000  Co
  Co14     1.0000 0.44266  0.11049  0.89150  Biso   1.000  Co
  O43      1.0000 0.88202  0.92706  0.58150  Biso   1.000  O
  O44      1.0000 0.83671  0.03796  0.62860  Biso   1.000  O
  O45      1.0000 0.59924  0.68312  0.68809  Biso   1.000  O
  O46      1.0000 0.64868  0.70953  0.59308  Biso   1.000  O
  O47      1.0000 0.85256  0.63956  0.95922  Biso   1.000  O
  O48      1.0000 0.95936  0.69460  0.89986  Biso   1.000  O
  O49      1.0000 0.46295  0.06930  0.98043  Biso   1.000  O
  H67      1.0000 0.44910  0.10910  0.00660  Biso   1.000  H
  N19      1.0000 0.61822  0.95271  0.79534  Biso   1.000  N
  N20      1.0000 0.59280  0.98971  0.89169  Biso   1.000  N
  N21      1.0000 0.53525  0.03028  0.85228  Biso   1.000  N
  C109     1.0000 0.64127  0.94268  0.85688  Biso   1.000  C
  C110     1.0000 0.55091  0.00715  0.79472  Biso   1.000  C
  C111     1.0000 0.65857  0.91550  0.74141  Biso   1.000  C
  C112     1.0000 0.72297  0.95638  0.70780  Biso   1.000  C
  H68      1.0000 0.73970  0.00660  0.72000  Biso   1.000  H
  C113     1.0000 0.76236  0.92138  0.65545  Biso   1.000  C
  C114     1.0000 0.73464  0.84721  0.63685  Biso   1.000  C
  H69      1.0000 0.75930  0.82440  0.60110  Biso   1.000  H
  C115     1.0000 0.67023  0.80676  0.67133  Biso   1.000  C
  C116     1.0000 0.63230  0.84051  0.72481  Biso   1.000  C
  H70      1.0000 0.59040  0.81330  0.74870  Biso   1.000  H
  C117     1.0000 0.83306  0.96502  0.61889  Biso   1.000  C
  C118     1.0000 0.63829  0.72793  0.64980  Biso   1.000  C
  C119     1.0000 0.70660  0.88253  0.87795  Biso   1.000  C
  C120     1.0000 0.67526  0.82012  0.91309  Biso   1.000  C
  H71      1.0000 0.61540  0.81810  0.92510  Biso   1.000  H
  C121     1.0000 0.73348  0.76051  0.93043  Biso   1.000  C
  H72      1.0000 0.71270  0.71930  0.95500  Biso   1.000  H
  C122     1.0000 0.82260  0.76175  0.91149  Biso   1.000  C
  C123     1.0000 0.85423  0.82537  0.87693  Biso   1.000  C
  H73      1.0000 0.91410  0.82740  0.86490  Biso   1.000  H
  C124     1.0000 0.79658  0.88566  0.86045  Biso   1.000  C
  H74      1.0000 0.81790  0.92820  0.83770  Biso   1.000  H
  C125     1.0000 0.88338  0.69302  0.92529  Biso   1.000  C
  C126     1.0000 0.50215  0.03218  0.73707  Biso   1.000  C
  H75      1.0000 0.52610  0.00510  0.70130  Biso   1.000  H
  H76      1.0000 0.43970  0.01990  0.74140  Biso   1.000  H
  H77      1.0000 0.50920  0.08760  0.73140  Biso   1.000  H
  Co15     1.0000 0.90111  0.96863  0.48766  Biso   1.000  Co
  Co16     1.0000 0.05734  0.88951  0.39150  Biso   1.000  Co
  O50      1.0000 0.61798  0.07294  0.08150  Biso   1.000  O
  O51      1.0000 0.66329  0.96204  0.12860  Biso   1.000  O
  O52      1.0000 0.90076  0.31688  0.18809  Biso   1.000  O
  O53      1.0000 0.85132  0.29047  0.09308  Biso   1.000  O
  O54      1.0000 0.64744  0.36044  0.45922  Biso   1.000  O
  O55      1.0000 0.54064  0.30540  0.39986  Biso   1.000  O
  O56      1.0000 0.03705  0.93070  0.48043  Biso   1.000  O
  H78      1.0000 0.05090  0.89090  0.50660  Biso   1.000  H
  N22      1.0000 0.88178  0.04729  0.29534  Biso   1.000  N
  N23      1.0000 0.90720  0.01029  0.39169  Biso   1.000  N
  N24      1.0000 0.96475  0.96972  0.35228  Biso   1.000  N
  C127     1.0000 0.85873  0.05732  0.35688  Biso   1.000  C
  C128     1.0000 0.94909  0.99285  0.29472  Biso   1.000  C
  C129     1.0000 0.84143  0.08450  0.24141  Biso   1.000  C
  C130     1.0000 0.77703  0.04362  0.20780  Biso   1.000  C
  H79      1.0000 0.76030  0.99340  0.22000  Biso   1.000  H
  C131     1.0000 0.73764  0.07862  0.15545  Biso   1.000  C
  C132     1.0000 0.76536  0.15279  0.13685  Biso   1.000  C
  H80      1.0000 0.74070  0.17560  0.10110  Biso   1.000  H
  C133     1.0000 0.82977  0.19324  0.17133  Biso   1.000  C
  C134     1.0000 0.86770  0.15949  0.22481  Biso   1.000  C
  H81      1.0000 0.90960  0.18670  0.24870  Biso   1.000  H
  C135     1.0000 0.66694  0.03498  0.11889  Biso   1.000  C
  C136     1.0000 0.86171  0.27207  0.14980  Biso   1.000  C
  C137     1.0000 0.79340  0.11747  0.37795  Biso   1.000  C
  C138     1.0000 0.82474  0.17988  0.41309  Biso   1.000  C
  H82      1.0000 0.88460  0.18190  0.42510  Biso   1.000  H
  C139     1.0000 0.76652  0.23949  0.43043  Biso   1.000  C
  H83      1.0000 0.78730  0.28070  0.45500  Biso   1.000  H
  C140     1.0000 0.67740  0.23825  0.41149  Biso   1.000  C
  C141     1.0000 0.64577  0.17463  0.37693  Biso   1.000  C
  H84      1.0000 0.58590  0.17260  0.36490  Biso   1.000  H
  C142     1.0000 0.70342  0.11434  0.36045  Biso   1.000  C
  H85      1.0000 0.68210  0.07180  0.33770  Biso   1.000  H
  C143     1.0000 0.61662  0.30698  0.42529  Biso   1.000  C
  C144     1.0000 0.99785  0.96782  0.23707  Biso   1.000  C
  H86      1.0000 0.97390  0.99490  0.20130  Biso   1.000  H
  H87      1.0000 0.06030  0.98010  0.24140  Biso   1.000  H
  H88      1.0000 0.99080  0.91240  0.23140  Biso   1.000  H
