data_MASZUD_clean
_audit_creation_date              2014-07-02
_audit_creation_method            'Materials Studio'
_symmetry_space_group_name_H-M    'P1'
_symmetry_Int_Tables_number       1
_symmetry_cell_setting            triclinic
loop_
_symmetry_equiv_pos_as_xyz
  x,y,z
_cell_length_a                    15.0373
_cell_length_b                    15.0373
_cell_length_c                    18.1026
_cell_angle_alpha                 94.4723
_cell_angle_beta                  94.4723
_cell_angle_gamma                 90.0859
loop_
_atom_site_label
_atom_site_type_symbol
_atom_site_fract_x
_atom_site_fract_y
_atom_site_fract_z
_atom_site_U_iso_or_equiv
_atom_site_adp_type
_atom_site_occupancy
Cu1    Cu    0.40623   0.23047   0.47426   0.01267  Uiso   1.00
Cu2    Cu    0.19631   0.37457   0.51048   0.01267  Uiso   1.00
Cu3    Cu    0.28100   0.19510   0.64125   0.01267  Uiso   1.00
Cu4    Cu    0.76953   0.59377   0.02574   0.01267  Uiso   1.00
Cu5    Cu    0.62543   0.80369   0.98952   0.01267  Uiso   1.00
Cu6    Cu    0.80490   0.71900   0.85875   0.01267  Uiso   1.00
Mo1    Mo    0.23281   0.19769   0.49590   0.01267  Uiso   1.00
Mo2    Mo    0.80231   0.76719   0.00410   0.01267  Uiso   1.00
H1     H     0.56640   0.11180   0.43230   0.01267  Uiso   1.00
H2     H     0.61550   0.03350   0.33010   0.01267  Uiso   1.00
H3     H     0.42070   0.14530   0.20630   0.01267  Uiso   1.00
H4     H     0.37510   0.21650   0.31230   0.01267  Uiso   1.00
H5     H     0.71670   0.94590   0.10530   0.01267  Uiso   1.00
H6     H     0.68360   0.03400   0.20810   0.01267  Uiso   1.00
H7     H     0.42630   0.00450   0.13950   0.01267  Uiso   1.00
H8     H     0.46540   0.91380   0.04110   0.01267  Uiso   1.00
H9     H     0.62000   0.67000   0.80740   0.01267  Uiso   1.00
H10    H     0.53930   0.57270   0.72530   0.01267  Uiso   1.00
H11    H     0.76780   0.47840   0.65380   0.01267  Uiso   1.00
H12    H     0.84180   0.58180   0.73550   0.01267  Uiso   1.00
H13    H     0.40530   0.41550   0.53250   0.01267  Uiso   1.00
H14    H     0.48290   0.52030   0.60870   0.01267  Uiso   1.00
H15    H     0.68410   0.35050   0.62170   0.01267  Uiso   1.00
H16    H     0.60230   0.25270   0.54200   0.01267  Uiso   1.00
H17    H     0.84270   0.80170   0.71140   0.01267  Uiso   1.00
H18    H     0.93710   0.89990   0.66900   0.01267  Uiso   1.00
H19    H     0.08010   0.90450   0.86480   0.01267  Uiso   1.00
H20    H     0.98440   0.80120   0.89980   0.01267  Uiso   1.00
H21    H     0.88820   0.43360   0.06770   0.01267  Uiso   1.00
H22    H     0.96650   0.38450   0.16990   0.01267  Uiso   1.00
H23    H     0.85470   0.57930   0.29370   0.01267  Uiso   1.00
H24    H     0.78350   0.62490   0.18770   0.01267  Uiso   1.00
H25    H     0.05410   0.28330   0.39470   0.01267  Uiso   1.00
H26    H     0.96600   0.31640   0.29190   0.01267  Uiso   1.00
H27    H     0.99550   0.57370   0.36050   0.01267  Uiso   1.00
H28    H     0.08620   0.53460   0.45890   0.01267  Uiso   1.00
H29    H     0.33000   0.38000   0.69260   0.01267  Uiso   1.00
H30    H     0.42730   0.46070   0.77470   0.01267  Uiso   1.00
H31    H     0.52160   0.23220   0.84620   0.01267  Uiso   1.00
H32    H     0.41820   0.15820   0.76450   0.01267  Uiso   1.00
H33    H     0.58450   0.59470   0.96750   0.01267  Uiso   1.00
H34    H     0.47970   0.51710   0.89130   0.01267  Uiso   1.00
H35    H     0.64950   0.31590   0.87830   0.01267  Uiso   1.00
H36    H     0.74730   0.39770   0.95800   0.01267  Uiso   1.00
H37    H     0.19830   0.15730   0.78860   0.01267  Uiso   1.00
H38    H     0.10010   0.06290   0.83100   0.01267  Uiso   1.00
H39    H     0.09550   0.91990   0.63520   0.01267  Uiso   1.00
H40    H     0.19880   0.01560   0.60020   0.01267  Uiso   1.00
C1     C     0.53610   0.11770   0.38620   0.01267  Uiso   1.00
C2     C     0.56670   0.07090   0.32470   0.01267  Uiso   1.00
C3     C     0.52450   0.07970   0.25500   0.01267  Uiso   1.00
C4     C     0.45130   0.13650   0.25180   0.01267  Uiso   1.00
C5     C     0.42450   0.17950   0.31580   0.01267  Uiso   1.00
C6     C     0.65710   0.95630   0.11320   0.01267  Uiso   1.00
C7     C     0.63770   0.00990   0.17510   0.01267  Uiso   1.00
C8     C     0.55090   0.02750   0.18780   0.01267  Uiso   1.00
C9     C     0.48610   0.99170   0.13460   0.01267  Uiso   1.00
C10    C     0.51010   0.93790   0.07530   0.01267  Uiso   1.00
C11    C     0.65060   0.63120   0.77590   0.01267  Uiso   1.00
C12    C     0.60120   0.57220   0.72690   0.01267  Uiso   1.00
C13    C     0.64390   0.51190   0.68010   0.01267  Uiso   1.00
C14    C     0.73580   0.51680   0.68440   0.01267  Uiso   1.00
C15    C     0.77990   0.57930   0.73420   0.01267  Uiso   1.00
C16    C     0.46250   0.40130   0.55130   0.01267  Uiso   1.00
C17    C     0.50850   0.46510   0.59760   0.01267  Uiso   1.00
C18    C     0.59300   0.44660   0.62760   0.01267  Uiso   1.00
C19    C     0.62650   0.36570   0.60470   0.01267  Uiso   1.00
C20    C     0.57630   0.30650   0.55710   0.01267  Uiso   1.00
C21    C     0.89170   0.82210   0.74260   0.01267  Uiso   1.00
C22    C     0.94760   0.88160   0.71680   0.01267  Uiso   1.00
C23    C     0.02100   0.91500   0.76280   0.01267  Uiso   1.00
C24    C     0.03250   0.88390   0.83200   0.01267  Uiso   1.00
C25    C     0.97400   0.82240   0.85310   0.01267  Uiso   1.00
C26    C     0.88230   0.46390   0.11380   0.01267  Uiso   1.00
C27    C     0.92910   0.43330   0.17530   0.01267  Uiso   1.00
C28    C     0.92030   0.47550   0.24500   0.01267  Uiso   1.00
C29    C     0.86350   0.54870   0.24820   0.01267  Uiso   1.00
C30    C     0.82050   0.57550   0.18420   0.01267  Uiso   1.00
C31    C     0.04370   0.34290   0.38680   0.01267  Uiso   1.00
C32    C     0.99010   0.36230   0.32490   0.01267  Uiso   1.00
C33    C     0.97250   0.44910   0.31220   0.01267  Uiso   1.00
C34    C     0.00830   0.51390   0.36540   0.01267  Uiso   1.00
C35    C     0.06210   0.48990   0.42470   0.01267  Uiso   1.00
C36    C     0.36880   0.34940   0.72410   0.01267  Uiso   1.00
C37    C     0.42780   0.39880   0.77310   0.01267  Uiso   1.00
C38    C     0.48810   0.35610   0.81990   0.01267  Uiso   1.00
C39    C     0.48320   0.26420   0.81560   0.01267  Uiso   1.00
C40    C     0.42070   0.22010   0.76580   0.01267  Uiso   1.00
C41    C     0.59870   0.53750   0.94870   0.01267  Uiso   1.00
C42    C     0.53490   0.49150   0.90240   0.01267  Uiso   1.00
C43    C     0.55340   0.40700   0.87240   0.01267  Uiso   1.00
C44    C     0.63430   0.37350   0.89530   0.01267  Uiso   1.00
C45    C     0.69350   0.42370   0.94290   0.01267  Uiso   1.00
C46    C     0.17790   0.10830   0.75740   0.01267  Uiso   1.00
C47    C     0.11840   0.05240   0.78320   0.01267  Uiso   1.00
C48    C     0.08500   0.97900   0.73720   0.01267  Uiso   1.00
C49    C     0.11610   0.96750   0.66800   0.01267  Uiso   1.00
C50    C     0.17760   0.02600   0.64690   0.01267  Uiso   1.00
S1     S     0.28191   0.30125   0.42505   0.01267  Uiso   1.00
S2     S     0.35375   0.12719   0.54642   0.01267  Uiso   1.00
S3     S     0.16283   0.27039   0.58904   0.01267  Uiso   1.00
S4     S     0.69875   0.71809   0.07495   0.01267  Uiso   1.00
S5     S     0.87281   0.64625   0.95358   0.01267  Uiso   1.00
S6     S     0.72961   0.83717   0.91096   0.01267  Uiso   1.00
I1     I     0.24669   0.52759   0.57014   0.01267  Uiso   1.00
I2     I     0.47241   0.75331   0.92986   0.01267  Uiso   1.00
N1     N     0.46560   0.17080   0.38300   0.01267  Uiso   1.00
N2     N     0.59520   0.91840   0.06400   0.01267  Uiso   1.00
N3     N     0.73900   0.63620   0.78080   0.01267  Uiso   1.00
N4     N     0.49290   0.32110   0.53130   0.01267  Uiso   1.00
N5     N     0.90240   0.79120   0.80970   0.01267  Uiso   1.00
N6     N     0.82920   0.53440   0.11700   0.01267  Uiso   1.00
N7     N     0.08160   0.40480   0.43600   0.01267  Uiso   1.00
N8     N     0.36380   0.26100   0.71920   0.01267  Uiso   1.00
N9     N     0.67890   0.50710   0.96870   0.01267  Uiso   1.00
N10    N     0.20880   0.09760   0.69030   0.01267  Uiso   1.00
Cu7    Cu    0.59377   0.76953   0.52574   0.01267  Uiso   1.00
Cu8    Cu    0.80369   0.62543   0.48952   0.01267  Uiso   1.00
Cu9    Cu    0.71900   0.80490   0.35875   0.01267  Uiso   1.00
Cu10   Cu    0.23047   0.40623   0.97426   0.01267  Uiso   1.00
Cu11   Cu    0.37457   0.19631   0.01048   0.01267  Uiso   1.00
Cu12   Cu    0.19510   0.28100   0.14125   0.01267  Uiso   1.00
Mo3    Mo    0.76719   0.80231   0.50410   0.01267  Uiso   1.00
Mo4    Mo    0.19769   0.23281   0.99590   0.01267  Uiso   1.00
H41    H     0.43360   0.88820   0.56770   0.01267  Uiso   1.00
H42    H     0.38450   0.96650   0.66990   0.01267  Uiso   1.00
H43    H     0.57930   0.85470   0.79370   0.01267  Uiso   1.00
H44    H     0.62490   0.78350   0.68770   0.01267  Uiso   1.00
H45    H     0.28330   0.05410   0.89470   0.01267  Uiso   1.00
H46    H     0.31640   0.96600   0.79190   0.01267  Uiso   1.00
H47    H     0.57370   0.99550   0.86050   0.01267  Uiso   1.00
H48    H     0.53460   0.08620   0.95890   0.01267  Uiso   1.00
H49    H     0.38000   0.33000   0.19260   0.01267  Uiso   1.00
H50    H     0.46070   0.42730   0.27470   0.01267  Uiso   1.00
H51    H     0.23220   0.52160   0.34620   0.01267  Uiso   1.00
H52    H     0.15820   0.41820   0.26450   0.01267  Uiso   1.00
H53    H     0.59470   0.58450   0.46750   0.01267  Uiso   1.00
H54    H     0.51710   0.47970   0.39130   0.01267  Uiso   1.00
H55    H     0.31590   0.64950   0.37830   0.01267  Uiso   1.00
H56    H     0.39770   0.74730   0.45800   0.01267  Uiso   1.00
H57    H     0.15730   0.19830   0.28860   0.01267  Uiso   1.00
H58    H     0.06290   0.10010   0.33100   0.01267  Uiso   1.00
H59    H     0.91990   0.09550   0.13520   0.01267  Uiso   1.00
H60    H     0.01560   0.19880   0.10020   0.01267  Uiso   1.00
H61    H     0.11180   0.56640   0.93230   0.01267  Uiso   1.00
H62    H     0.03350   0.61550   0.83010   0.01267  Uiso   1.00
H63    H     0.14530   0.42070   0.70630   0.01267  Uiso   1.00
H64    H     0.21650   0.37510   0.81230   0.01267  Uiso   1.00
H65    H     0.94590   0.71670   0.60530   0.01267  Uiso   1.00
H66    H     0.03400   0.68360   0.70810   0.01267  Uiso   1.00
H67    H     0.00450   0.42630   0.63950   0.01267  Uiso   1.00
H68    H     0.91380   0.46540   0.54110   0.01267  Uiso   1.00
H69    H     0.67000   0.62000   0.30740   0.01267  Uiso   1.00
H70    H     0.57270   0.53930   0.22530   0.01267  Uiso   1.00
H71    H     0.47840   0.76780   0.15380   0.01267  Uiso   1.00
H72    H     0.58180   0.84180   0.23550   0.01267  Uiso   1.00
H73    H     0.41550   0.40530   0.03250   0.01267  Uiso   1.00
H74    H     0.52030   0.48290   0.10870   0.01267  Uiso   1.00
H75    H     0.35050   0.68410   0.12170   0.01267  Uiso   1.00
H76    H     0.25270   0.60230   0.04200   0.01267  Uiso   1.00
H77    H     0.80170   0.84270   0.21140   0.01267  Uiso   1.00
H78    H     0.89990   0.93710   0.16900   0.01267  Uiso   1.00
H79    H     0.90450   0.08010   0.36480   0.01267  Uiso   1.00
H80    H     0.80120   0.98440   0.39980   0.01267  Uiso   1.00
C51    C     0.46390   0.88230   0.61380   0.01267  Uiso   1.00
C52    C     0.43330   0.92910   0.67530   0.01267  Uiso   1.00
C53    C     0.47550   0.92030   0.74500   0.01267  Uiso   1.00
C54    C     0.54870   0.86350   0.74820   0.01267  Uiso   1.00
C55    C     0.57550   0.82050   0.68420   0.01267  Uiso   1.00
C56    C     0.34290   0.04370   0.88680   0.01267  Uiso   1.00
C57    C     0.36230   0.99010   0.82490   0.01267  Uiso   1.00
C58    C     0.44910   0.97250   0.81220   0.01267  Uiso   1.00
C59    C     0.51390   0.00830   0.86540   0.01267  Uiso   1.00
C60    C     0.48990   0.06210   0.92470   0.01267  Uiso   1.00
C61    C     0.34940   0.36880   0.22410   0.01267  Uiso   1.00
C62    C     0.39880   0.42780   0.27310   0.01267  Uiso   1.00
C63    C     0.35610   0.48810   0.31990   0.01267  Uiso   1.00
C64    C     0.26420   0.48320   0.31560   0.01267  Uiso   1.00
C65    C     0.22010   0.42070   0.26580   0.01267  Uiso   1.00
C66    C     0.53750   0.59870   0.44870   0.01267  Uiso   1.00
C67    C     0.49150   0.53490   0.40240   0.01267  Uiso   1.00
C68    C     0.40700   0.55340   0.37240   0.01267  Uiso   1.00
C69    C     0.37350   0.63430   0.39530   0.01267  Uiso   1.00
C70    C     0.42370   0.69350   0.44290   0.01267  Uiso   1.00
C71    C     0.10830   0.17790   0.25740   0.01267  Uiso   1.00
C72    C     0.05240   0.11840   0.28320   0.01267  Uiso   1.00
C73    C     0.97900   0.08500   0.23720   0.01267  Uiso   1.00
C74    C     0.96750   0.11610   0.16800   0.01267  Uiso   1.00
C75    C     0.02600   0.17760   0.14690   0.01267  Uiso   1.00
C76    C     0.11770   0.53610   0.88620   0.01267  Uiso   1.00
C77    C     0.07090   0.56670   0.82470   0.01267  Uiso   1.00
C78    C     0.07970   0.52450   0.75500   0.01267  Uiso   1.00
C79    C     0.13650   0.45130   0.75180   0.01267  Uiso   1.00
C80    C     0.17950   0.42450   0.81580   0.01267  Uiso   1.00
C81    C     0.95630   0.65710   0.61320   0.01267  Uiso   1.00
C82    C     0.00990   0.63770   0.67510   0.01267  Uiso   1.00
C83    C     0.02750   0.55090   0.68780   0.01267  Uiso   1.00
C84    C     0.99170   0.48610   0.63460   0.01267  Uiso   1.00
C85    C     0.93790   0.51010   0.57530   0.01267  Uiso   1.00
C86    C     0.63120   0.65060   0.27590   0.01267  Uiso   1.00
C87    C     0.57220   0.60120   0.22690   0.01267  Uiso   1.00
C88    C     0.51190   0.64390   0.18010   0.01267  Uiso   1.00
C89    C     0.51680   0.73580   0.18440   0.01267  Uiso   1.00
C90    C     0.57930   0.77990   0.23420   0.01267  Uiso   1.00
C91    C     0.40130   0.46250   0.05130   0.01267  Uiso   1.00
C92    C     0.46510   0.50850   0.09760   0.01267  Uiso   1.00
C93    C     0.44660   0.59300   0.12760   0.01267  Uiso   1.00
C94    C     0.36570   0.62650   0.10470   0.01267  Uiso   1.00
C95    C     0.30650   0.57630   0.05710   0.01267  Uiso   1.00
C96    C     0.82210   0.89170   0.24260   0.01267  Uiso   1.00
C97    C     0.88160   0.94760   0.21680   0.01267  Uiso   1.00
C98    C     0.91500   0.02100   0.26280   0.01267  Uiso   1.00
C99    C     0.88390   0.03250   0.33200   0.01267  Uiso   1.00
C100   C     0.82240   0.97400   0.35310   0.01267  Uiso   1.00
S7     S     0.71809   0.69875   0.57495   0.01267  Uiso   1.00
S8     S     0.64625   0.87281   0.45358   0.01267  Uiso   1.00
S9     S     0.83717   0.72961   0.41096   0.01267  Uiso   1.00
S10    S     0.30125   0.28191   0.92505   0.01267  Uiso   1.00
S11    S     0.12719   0.35375   0.04642   0.01267  Uiso   1.00
S12    S     0.27039   0.16283   0.08904   0.01267  Uiso   1.00
I3     I     0.75331   0.47241   0.42986   0.01267  Uiso   1.00
I4     I     0.52759   0.24669   0.07014   0.01267  Uiso   1.00
N11    N     0.53440   0.82920   0.61700   0.01267  Uiso   1.00
N12    N     0.40480   0.08160   0.93600   0.01267  Uiso   1.00
N13    N     0.26100   0.36380   0.21920   0.01267  Uiso   1.00
N14    N     0.50710   0.67890   0.46870   0.01267  Uiso   1.00
N15    N     0.09760   0.20880   0.19030   0.01267  Uiso   1.00
N16    N     0.17080   0.46560   0.88300   0.01267  Uiso   1.00
N17    N     0.91840   0.59520   0.56400   0.01267  Uiso   1.00
N18    N     0.63620   0.73900   0.28080   0.01267  Uiso   1.00
N19    N     0.32110   0.49290   0.03130   0.01267  Uiso   1.00
N20    N     0.79120   0.90240   0.30970   0.01267  Uiso   1.00
