data_MASZOX_clean
_audit_creation_date              2014-07-02
_audit_creation_method            'Materials Studio'
_symmetry_space_group_name_H-M    'P1'
_symmetry_Int_Tables_number       1
_symmetry_cell_setting            triclinic
loop_
_symmetry_equiv_pos_as_xyz
  x,y,z
_cell_length_a                    15.0186
_cell_length_b                    15.0186
_cell_length_c                    17.9470
_cell_angle_alpha                 94.5508
_cell_angle_beta                  94.5508
_cell_angle_gamma                 90.2886
loop_
_atom_site_label
_atom_site_type_symbol
_atom_site_fract_x
_atom_site_fract_y
_atom_site_fract_z
_atom_site_U_iso_or_equiv
_atom_site_adp_type
_atom_site_occupancy
Cu1    Cu    0.62768   0.80214   0.48750   0.01267  Uiso   1.00
Cu2    Cu    0.80791   0.71707   0.35919   0.01267  Uiso   1.00
Cu3    Cu    0.77035   0.59421   0.52747   0.01267  Uiso   1.00
Cu4    Cu    0.19786   0.37232   0.01250   0.01267  Uiso   1.00
Cu5    Cu    0.28293   0.19209   0.14081   0.01267  Uiso   1.00
Cu6    Cu    0.40579   0.22965   0.97253   0.01267  Uiso   1.00
Mo1    Mo    0.80460   0.76698   0.50470   0.01267  Uiso   1.00
Mo2    Mo    0.23302   0.19540   0.99530   0.01267  Uiso   1.00
H1     H     0.71710   0.94530   0.60170   0.01267  Uiso   1.00
H2     H     0.68640   0.03780   0.70360   0.01267  Uiso   1.00
H3     H     0.42440   0.00020   0.63580   0.01267  Uiso   1.00
H4     H     0.46760   0.90900   0.53740   0.01267  Uiso   1.00
H5     H     0.56690   0.11190   0.93020   0.01267  Uiso   1.00
H6     H     0.61500   0.03360   0.82500   0.01267  Uiso   1.00
H7     H     0.42230   0.14890   0.70360   0.01267  Uiso   1.00
H8     H     0.37780   0.22060   0.80850   0.01267  Uiso   1.00
H9     H     0.99120   0.79900   0.40080   0.01267  Uiso   1.00
H10    H     0.08330   0.89710   0.36540   0.01267  Uiso   1.00
H11    H     0.93930   0.90050   0.16910   0.01267  Uiso   1.00
H12    H     0.84170   0.80110   0.21300   0.01267  Uiso   1.00
H13    H     0.84420   0.57780   0.23590   0.01267  Uiso   1.00
H14    H     0.76750   0.48030   0.15010   0.01267  Uiso   1.00
H15    H     0.54190   0.57710   0.22300   0.01267  Uiso   1.00
H16    H     0.61980   0.66180   0.31320   0.01267  Uiso   1.00
H17    H     0.40380   0.41700   0.03290   0.01267  Uiso   1.00
H18    H     0.48040   0.51600   0.11290   0.01267  Uiso   1.00
H19    H     0.68730   0.35030   0.11610   0.01267  Uiso   1.00
H20    H     0.60060   0.25240   0.03640   0.01267  Uiso   1.00
H21    H     0.05470   0.28290   0.89830   0.01267  Uiso   1.00
H22    H     0.96220   0.31360   0.79640   0.01267  Uiso   1.00
H23    H     0.99980   0.57560   0.86420   0.01267  Uiso   1.00
H24    H     0.09100   0.53240   0.96260   0.01267  Uiso   1.00
H25    H     0.88810   0.43310   0.56980   0.01267  Uiso   1.00
H26    H     0.96640   0.38500   0.67500   0.01267  Uiso   1.00
H27    H     0.85110   0.57770   0.79640   0.01267  Uiso   1.00
H28    H     0.77940   0.62220   0.69150   0.01267  Uiso   1.00
H29    H     0.20100   0.00880   0.09920   0.01267  Uiso   1.00
H30    H     0.10290   0.91670   0.13460   0.01267  Uiso   1.00
H31    H     0.09950   0.06070   0.33090   0.01267  Uiso   1.00
H32    H     0.19890   0.15830   0.28700   0.01267  Uiso   1.00
H33    H     0.42220   0.15580   0.26410   0.01267  Uiso   1.00
H34    H     0.51970   0.23250   0.34990   0.01267  Uiso   1.00
H35    H     0.42290   0.45810   0.27700   0.01267  Uiso   1.00
H36    H     0.33820   0.38020   0.18680   0.01267  Uiso   1.00
H37    H     0.58300   0.59620   0.46710   0.01267  Uiso   1.00
H38    H     0.48400   0.51960   0.38710   0.01267  Uiso   1.00
H39    H     0.64970   0.31270   0.38390   0.01267  Uiso   1.00
H40    H     0.74760   0.39940   0.46360   0.01267  Uiso   1.00
C1     C     0.65750   0.95670   0.60910   0.01267  Uiso   1.00
C2     C     0.64020   0.01260   0.67110   0.01267  Uiso   1.00
C3     C     0.55010   0.03030   0.68380   0.01267  Uiso   1.00
C4     C     0.48480   0.99000   0.63070   0.01267  Uiso   1.00
C5     C     0.51130   0.93570   0.57160   0.01267  Uiso   1.00
C6     C     0.53640   0.11840   0.88380   0.01267  Uiso   1.00
C7     C     0.56690   0.07210   0.82030   0.01267  Uiso   1.00
C8     C     0.52600   0.08360   0.75190   0.01267  Uiso   1.00
C9     C     0.45300   0.14020   0.74950   0.01267  Uiso   1.00
C10    C     0.42610   0.18230   0.81250   0.01267  Uiso   1.00
C11    C     0.97980   0.82000   0.35360   0.01267  Uiso   1.00
C12    C     0.03450   0.87790   0.33280   0.01267  Uiso   1.00
C13    C     0.02250   0.91270   0.26230   0.01267  Uiso   1.00
C14    C     0.95010   0.88130   0.21700   0.01267  Uiso   1.00
C15    C     0.89220   0.82020   0.24350   0.01267  Uiso   1.00
C16    C     0.78210   0.57710   0.23360   0.01267  Uiso   1.00
C17    C     0.73630   0.51730   0.18270   0.01267  Uiso   1.00
C18    C     0.64540   0.51200   0.17950   0.01267  Uiso   1.00
C19    C     0.60390   0.57370   0.22710   0.01267  Uiso   1.00
C20    C     0.65030   0.62770   0.27800   0.01267  Uiso   1.00
C21    C     0.46130   0.40250   0.05090   0.01267  Uiso   1.00
C22    C     0.50760   0.46280   0.09770   0.01267  Uiso   1.00
C23    C     0.59390   0.44810   0.12400   0.01267  Uiso   1.00
C24    C     0.62930   0.36530   0.10020   0.01267  Uiso   1.00
C25    C     0.57600   0.30660   0.05240   0.01267  Uiso   1.00
C26    C     0.04330   0.34250   0.89090   0.01267  Uiso   1.00
C27    C     0.98740   0.35980   0.82890   0.01267  Uiso   1.00
C28    C     0.96970   0.44990   0.81620   0.01267  Uiso   1.00
C29    C     0.01000   0.51520   0.86930   0.01267  Uiso   1.00
C30    C     0.06430   0.48870   0.92840   0.01267  Uiso   1.00
C31    C     0.88160   0.46360   0.61620   0.01267  Uiso   1.00
C32    C     0.92790   0.43310   0.67970   0.01267  Uiso   1.00
C33    C     0.91640   0.47400   0.74810   0.01267  Uiso   1.00
C34    C     0.85980   0.54700   0.75050   0.01267  Uiso   1.00
C35    C     0.81770   0.57390   0.68750   0.01267  Uiso   1.00
C36    C     0.18000   0.02020   0.14640   0.01267  Uiso   1.00
C37    C     0.12210   0.96550   0.16720   0.01267  Uiso   1.00
C38    C     0.08730   0.97750   0.23770   0.01267  Uiso   1.00
C39    C     0.11870   0.04990   0.28300   0.01267  Uiso   1.00
C40    C     0.17980   0.10780   0.25650   0.01267  Uiso   1.00
C41    C     0.42290   0.21790   0.26640   0.01267  Uiso   1.00
C42    C     0.48270   0.26370   0.31730   0.01267  Uiso   1.00
C43    C     0.48800   0.35460   0.32050   0.01267  Uiso   1.00
C44    C     0.42630   0.39610   0.27290   0.01267  Uiso   1.00
C45    C     0.37230   0.34970   0.22200   0.01267  Uiso   1.00
C46    C     0.59750   0.53870   0.44910   0.01267  Uiso   1.00
C47    C     0.53720   0.49240   0.40230   0.01267  Uiso   1.00
C48    C     0.55190   0.40610   0.37600   0.01267  Uiso   1.00
C49    C     0.63470   0.37070   0.39980   0.01267  Uiso   1.00
C50    C     0.69340   0.42400   0.44760   0.01267  Uiso   1.00
S1     S     0.73279   0.83653   0.41051   0.01267  Uiso   1.00
S2     S     0.87475   0.64463   0.45510   0.01267  Uiso   1.00
S3     S     0.69996   0.71962   0.57618   0.01267  Uiso   1.00
S4     S     0.16347   0.26721   0.08949   0.01267  Uiso   1.00
S5     S     0.35537   0.12525   0.04490   0.01267  Uiso   1.00
S6     S     0.28038   0.30004   0.92382   0.01267  Uiso   1.00
I1     I     0.48218   0.75366   0.42961   0.01267  Uiso   1.00
I2     I     0.24634   0.51782   0.07039   0.01267  Uiso   1.00
N1     N     0.59850   0.91910   0.56060   0.01267  Uiso   1.00
N2     N     0.46550   0.17170   0.88080   0.01267  Uiso   1.00
N3     N     0.90600   0.78800   0.31000   0.01267  Uiso   1.00
N4     N     0.74030   0.63510   0.28070   0.01267  Uiso   1.00
N5     N     0.49320   0.32200   0.02830   0.01267  Uiso   1.00
N6     N     0.08090   0.40150   0.93940   0.01267  Uiso   1.00
N7     N     0.82830   0.53450   0.61920   0.01267  Uiso   1.00
N8     N     0.21200   0.09400   0.19000   0.01267  Uiso   1.00
N9     N     0.36490   0.25970   0.21930   0.01267  Uiso   1.00
N10    N     0.67800   0.50680   0.47170   0.01267  Uiso   1.00
Cu7    Cu    0.37232   0.19786   0.51250   0.01267  Uiso   1.00
Cu8    Cu    0.19209   0.28293   0.64081   0.01267  Uiso   1.00
Cu9    Cu    0.22965   0.40579   0.47253   0.01267  Uiso   1.00
Cu10   Cu    0.80214   0.62768   0.98750   0.01267  Uiso   1.00
Cu11   Cu    0.71707   0.80791   0.85919   0.01267  Uiso   1.00
Cu12   Cu    0.59421   0.77035   0.02747   0.01267  Uiso   1.00
Mo3    Mo    0.19540   0.23302   0.49530   0.01267  Uiso   1.00
Mo4    Mo    0.76698   0.80460   0.00470   0.01267  Uiso   1.00
H41    H     0.28290   0.05470   0.39830   0.01267  Uiso   1.00
H42    H     0.31360   0.96220   0.29640   0.01267  Uiso   1.00
H43    H     0.57560   0.99980   0.36420   0.01267  Uiso   1.00
H44    H     0.53240   0.09100   0.46260   0.01267  Uiso   1.00
H45    H     0.43310   0.88810   0.06980   0.01267  Uiso   1.00
H46    H     0.38500   0.96640   0.17500   0.01267  Uiso   1.00
H47    H     0.57770   0.85110   0.29640   0.01267  Uiso   1.00
H48    H     0.62220   0.77940   0.19150   0.01267  Uiso   1.00
H49    H     0.00880   0.20100   0.59920   0.01267  Uiso   1.00
H50    H     0.91670   0.10290   0.63460   0.01267  Uiso   1.00
H51    H     0.06070   0.09950   0.83090   0.01267  Uiso   1.00
H52    H     0.15830   0.19890   0.78700   0.01267  Uiso   1.00
H53    H     0.15580   0.42220   0.76410   0.01267  Uiso   1.00
H54    H     0.23250   0.51970   0.84990   0.01267  Uiso   1.00
H55    H     0.45810   0.42290   0.77700   0.01267  Uiso   1.00
H56    H     0.38020   0.33820   0.68680   0.01267  Uiso   1.00
H57    H     0.59620   0.58300   0.96710   0.01267  Uiso   1.00
H58    H     0.51960   0.48400   0.88710   0.01267  Uiso   1.00
H59    H     0.31270   0.64970   0.88390   0.01267  Uiso   1.00
H60    H     0.39940   0.74760   0.96360   0.01267  Uiso   1.00
H61    H     0.94530   0.71710   0.10170   0.01267  Uiso   1.00
H62    H     0.03780   0.68640   0.20360   0.01267  Uiso   1.00
H63    H     0.00020   0.42440   0.13580   0.01267  Uiso   1.00
H64    H     0.90900   0.46760   0.03740   0.01267  Uiso   1.00
H65    H     0.11190   0.56690   0.43020   0.01267  Uiso   1.00
H66    H     0.03360   0.61500   0.32500   0.01267  Uiso   1.00
H67    H     0.14890   0.42230   0.20360   0.01267  Uiso   1.00
H68    H     0.22060   0.37780   0.30850   0.01267  Uiso   1.00
H69    H     0.79900   0.99120   0.90080   0.01267  Uiso   1.00
H70    H     0.89710   0.08330   0.86540   0.01267  Uiso   1.00
H71    H     0.90050   0.93930   0.66910   0.01267  Uiso   1.00
H72    H     0.80110   0.84170   0.71300   0.01267  Uiso   1.00
H73    H     0.57780   0.84420   0.73590   0.01267  Uiso   1.00
H74    H     0.48030   0.76750   0.65010   0.01267  Uiso   1.00
H75    H     0.57710   0.54190   0.72300   0.01267  Uiso   1.00
H76    H     0.66180   0.61980   0.81320   0.01267  Uiso   1.00
H77    H     0.41700   0.40380   0.53290   0.01267  Uiso   1.00
H78    H     0.51600   0.48040   0.61290   0.01267  Uiso   1.00
H79    H     0.35030   0.68730   0.61610   0.01267  Uiso   1.00
H80    H     0.25240   0.60060   0.53640   0.01267  Uiso   1.00
C51    C     0.34250   0.04330   0.39090   0.01267  Uiso   1.00
C52    C     0.35980   0.98740   0.32890   0.01267  Uiso   1.00
C53    C     0.44990   0.96970   0.31620   0.01267  Uiso   1.00
C54    C     0.51520   0.01000   0.36930   0.01267  Uiso   1.00
C55    C     0.48870   0.06430   0.42840   0.01267  Uiso   1.00
C56    C     0.46360   0.88160   0.11620   0.01267  Uiso   1.00
C57    C     0.43310   0.92790   0.17970   0.01267  Uiso   1.00
C58    C     0.47400   0.91640   0.24810   0.01267  Uiso   1.00
C59    C     0.54700   0.85980   0.25050   0.01267  Uiso   1.00
C60    C     0.57390   0.81770   0.18750   0.01267  Uiso   1.00
C61    C     0.02020   0.18000   0.64640   0.01267  Uiso   1.00
C62    C     0.96550   0.12210   0.66720   0.01267  Uiso   1.00
C63    C     0.97750   0.08730   0.73770   0.01267  Uiso   1.00
C64    C     0.04990   0.11870   0.78300   0.01267  Uiso   1.00
C65    C     0.10780   0.17980   0.75650   0.01267  Uiso   1.00
C66    C     0.21790   0.42290   0.76640   0.01267  Uiso   1.00
C67    C     0.26370   0.48270   0.81730   0.01267  Uiso   1.00
C68    C     0.35460   0.48800   0.82050   0.01267  Uiso   1.00
C69    C     0.39610   0.42630   0.77290   0.01267  Uiso   1.00
C70    C     0.34970   0.37230   0.72200   0.01267  Uiso   1.00
C71    C     0.53870   0.59750   0.94910   0.01267  Uiso   1.00
C72    C     0.49240   0.53720   0.90230   0.01267  Uiso   1.00
C73    C     0.40610   0.55190   0.87600   0.01267  Uiso   1.00
C74    C     0.37070   0.63470   0.89980   0.01267  Uiso   1.00
C75    C     0.42400   0.69340   0.94760   0.01267  Uiso   1.00
C76    C     0.95670   0.65750   0.10910   0.01267  Uiso   1.00
C77    C     0.01260   0.64020   0.17110   0.01267  Uiso   1.00
C78    C     0.03030   0.55010   0.18380   0.01267  Uiso   1.00
C79    C     0.99000   0.48480   0.13070   0.01267  Uiso   1.00
C80    C     0.93570   0.51130   0.07160   0.01267  Uiso   1.00
C81    C     0.11840   0.53640   0.38380   0.01267  Uiso   1.00
C82    C     0.07210   0.56690   0.32030   0.01267  Uiso   1.00
C83    C     0.08360   0.52600   0.25190   0.01267  Uiso   1.00
C84    C     0.14020   0.45300   0.24950   0.01267  Uiso   1.00
C85    C     0.18230   0.42610   0.31250   0.01267  Uiso   1.00
C86    C     0.82000   0.97980   0.85360   0.01267  Uiso   1.00
C87    C     0.87790   0.03450   0.83280   0.01267  Uiso   1.00
C88    C     0.91270   0.02250   0.76230   0.01267  Uiso   1.00
C89    C     0.88130   0.95010   0.71700   0.01267  Uiso   1.00
C90    C     0.82020   0.89220   0.74350   0.01267  Uiso   1.00
C91    C     0.57710   0.78210   0.73360   0.01267  Uiso   1.00
C92    C     0.51730   0.73630   0.68270   0.01267  Uiso   1.00
C93    C     0.51200   0.64540   0.67950   0.01267  Uiso   1.00
C94    C     0.57370   0.60390   0.72710   0.01267  Uiso   1.00
C95    C     0.62770   0.65030   0.77800   0.01267  Uiso   1.00
C96    C     0.40250   0.46130   0.55090   0.01267  Uiso   1.00
C97    C     0.46280   0.50760   0.59770   0.01267  Uiso   1.00
C98    C     0.44810   0.59390   0.62400   0.01267  Uiso   1.00
C99    C     0.36530   0.62930   0.60020   0.01267  Uiso   1.00
C100   C     0.30660   0.57600   0.55240   0.01267  Uiso   1.00
S7     S     0.26721   0.16347   0.58949   0.01267  Uiso   1.00
S8     S     0.12525   0.35537   0.54490   0.01267  Uiso   1.00
S9     S     0.30004   0.28038   0.42382   0.01267  Uiso   1.00
S10    S     0.83653   0.73279   0.91051   0.01267  Uiso   1.00
S11    S     0.64463   0.87475   0.95510   0.01267  Uiso   1.00
S12    S     0.71962   0.69996   0.07618   0.01267  Uiso   1.00
I3     I     0.51782   0.24634   0.57039   0.01267  Uiso   1.00
I4     I     0.75366   0.48218   0.92961   0.01267  Uiso   1.00
N11    N     0.40150   0.08090   0.43940   0.01267  Uiso   1.00
N12    N     0.53450   0.82830   0.11920   0.01267  Uiso   1.00
N13    N     0.09400   0.21200   0.69000   0.01267  Uiso   1.00
N14    N     0.25970   0.36490   0.71930   0.01267  Uiso   1.00
N15    N     0.50680   0.67800   0.97170   0.01267  Uiso   1.00
N16    N     0.91910   0.59850   0.06060   0.01267  Uiso   1.00
N17    N     0.17170   0.46550   0.38080   0.01267  Uiso   1.00
N18    N     0.78800   0.90600   0.81000   0.01267  Uiso   1.00
N19    N     0.63510   0.74030   0.78070   0.01267  Uiso   1.00
N20    N     0.32200   0.49320   0.52830   0.01267  Uiso   1.00
