data_image0
_cell_length_a       21.263
_cell_length_b       21.287
_cell_length_c       18.0287
_cell_angle_alpha    90
_cell_angle_beta     96.213
_cell_angle_gamma    90

_symmetry_space_group_name_H-M    "P 1"
_symmetry_int_tables_number       1

loop_
  _symmetry_equiv_pos_as_xyz
  'x, y, z'

loop_
  _atom_site_label
  _atom_site_occupancy
  _atom_site_fract_x
  _atom_site_fract_y
  _atom_site_fract_z
  _atom_site_thermal_displace_type
  _atom_site_B_iso_or_equiv
  _atom_site_type_symbol
  Mo1      1.0000 0.71400  0.51890  0.99529  Biso   1.000  Mo
  Br1      1.0000 0.88151  0.36440  0.06987  Biso   1.000  Br
  Cu1      1.0000 0.73744  0.54561  0.14095  Biso   1.000  Cu
  Cu2      1.0000 0.81756  0.58808  0.97231  Biso   1.000  Cu
  Cu3      1.0000 0.78497  0.41305  0.01249  Biso   1.000  Cu
  S1       1.0000 0.71550  0.44841  0.08981  Biso   1.000  S
  S2       1.0000 0.74022  0.61510  0.04508  Biso   1.000  S
  S3       1.0000 0.78994  0.49048  0.92419  Biso   1.000  S
  N1       1.0000 0.81180  0.55340  0.21970  Biso   1.000  N
  N2       1.0000 0.09260  0.58480  0.47120  Biso   1.000  N
  N3       1.0000 0.65270  0.55900  0.19000  Biso   1.000  N
  N4       1.0000 0.68110  0.14720  0.61970  Biso   1.000  N
  N5       1.0000 0.74280  0.33900  0.93990  Biso   1.000  N
  C1       1.0000 0.85930  0.51200  0.22400  Biso   1.000  C
  H1       1.0000 0.85540  0.47770  0.19200  Biso   1.000  H
  C2       1.0000 0.91350  0.51670  0.27250  Biso   1.000  C
  H2       1.0000 0.94470  0.48610  0.27250  Biso   1.000  H
  C3       1.0000 0.92170  0.56670  0.32130  Biso   1.000  C
  C4       1.0000 0.87240  0.61020  0.31910  Biso   1.000  C
  H3       1.0000 0.87480  0.64430  0.35150  Biso   1.000  H
  C5       1.0000 0.81990  0.60150  0.26780  Biso   1.000  C
  H4       1.0000 0.78770  0.63120  0.26660  Biso   1.000  H
  C6       1.0000 0.06960  0.52930  0.44900  Biso   1.000  C
  H5       1.0000 0.09180  0.49350  0.46600  Biso   1.000  H
  C7       1.0000 0.01420  0.52160  0.40180  Biso   1.000  C
  H6       1.0000 0.00020  0.48140  0.38800  Biso   1.000  H
  C8       1.0000 0.97980  0.57330  0.37530  Biso   1.000  C
  C9       1.0000 0.00270  0.63040  0.40100  Biso   1.000  C
  H7       1.0000 0.98040  0.66680  0.38690  Biso   1.000  H
  C10      1.0000 0.05810  0.63430  0.44720  Biso   1.000  C
  H8       1.0000 0.07250  0.67400  0.46270  Biso   1.000  H
  C11      1.0000 0.64360  0.53620  0.25730  Biso   1.000  C
  H9       1.0000 0.67810  0.52120  0.28820  Biso   1.000  H
  C12      1.0000 0.58430  0.53440  0.28200  Biso   1.000  C
  H10      1.0000 0.57980  0.51870  0.32930  Biso   1.000  H
  C13      1.0000 0.53210  0.55550  0.23760  Biso   1.000  C
  C14      1.0000 0.54160  0.57740  0.16740  Biso   1.000  C
  H11      1.0000 0.50750  0.59050  0.13440  Biso   1.000  H
  C15      1.0000 0.60210  0.57950  0.14700  Biso   1.000  C
  H12      1.0000 0.60790  0.59620  0.10050  Biso   1.000  H
  C16      1.0000 0.67130  0.20890  0.61640  Biso   1.000  C
  H13      1.0000 0.65830  0.22710  0.57030  Biso   1.000  H
  C17      1.0000 0.67970  0.24720  0.67920  Biso   1.000  C
  H14      1.0000 0.67430  0.29040  0.67410  Biso   1.000  H
  C18      1.0000 0.69590  0.22200  0.74870  Biso   1.000  C
  C19      1.0000 0.70360  0.15650  0.75150  Biso   1.000  C
  H15      1.0000 0.71370  0.13650  0.79710  Biso   1.000  H
  C20      1.0000 0.69620  0.12250  0.68740  Biso   1.000  C
  H16      1.0000 0.70200  0.07930  0.69080  Biso   1.000  H
  C21      1.0000 0.69230  0.35080  0.89110  Biso   1.000  C
  H17      1.0000 0.66810  0.38610  0.89900  Biso   1.000  H
  C22      1.0000 0.67370  0.31340  0.82880  Biso   1.000  C
  H18      1.0000 0.63820  0.32360  0.79620  Biso   1.000  H
  C23      1.0000 0.70940  0.26100  0.81710  Biso   1.000  C
  C24      1.0000 0.76070  0.24750  0.86900  Biso   1.000  C
  H19      1.0000 0.78480  0.21170  0.86380  Biso   1.000  H
  C25      1.0000 0.77570  0.28760  0.92850  Biso   1.000  C
  H20      1.0000 0.81070  0.27820  0.96230  Biso   1.000  H
  Mo2      1.0000 0.21400  0.01890  0.99529  Biso   1.000  Mo
  Br2      1.0000 0.38151  0.86440  0.06987  Biso   1.000  Br
  Cu4      1.0000 0.23744  0.04561  0.14095  Biso   1.000  Cu
  Cu5      1.0000 0.31756  0.08808  0.97231  Biso   1.000  Cu
  Cu6      1.0000 0.28497  0.91305  0.01249  Biso   1.000  Cu
  S4       1.0000 0.21550  0.94841  0.08981  Biso   1.000  S
  S5       1.0000 0.24022  0.11510  0.04508  Biso   1.000  S
  S6       1.0000 0.28994  0.99048  0.92419  Biso   1.000  S
  N6       1.0000 0.31180  0.05340  0.21970  Biso   1.000  N
  N7       1.0000 0.59260  0.08480  0.47120  Biso   1.000  N
  N8       1.0000 0.15270  0.05900  0.19000  Biso   1.000  N
  N9       1.0000 0.18110  0.64720  0.61970  Biso   1.000  N
  N10      1.0000 0.24280  0.83900  0.93990  Biso   1.000  N
  C26      1.0000 0.35930  0.01200  0.22400  Biso   1.000  C
  H21      1.0000 0.35540  0.97770  0.19200  Biso   1.000  H
  C27      1.0000 0.41350  0.01670  0.27250  Biso   1.000  C
  H22      1.0000 0.44470  0.98610  0.27250  Biso   1.000  H
  C28      1.0000 0.42170  0.06670  0.32130  Biso   1.000  C
  C29      1.0000 0.37240  0.11020  0.31910  Biso   1.000  C
  H23      1.0000 0.37480  0.14430  0.35150  Biso   1.000  H
  C30      1.0000 0.31990  0.10150  0.26780  Biso   1.000  C
  H24      1.0000 0.28770  0.13120  0.26660  Biso   1.000  H
  C31      1.0000 0.56960  0.02930  0.44900  Biso   1.000  C
  H25      1.0000 0.59180  0.99350  0.46600  Biso   1.000  H
  C32      1.0000 0.51420  0.02160  0.40180  Biso   1.000  C
  H26      1.0000 0.50020  0.98140  0.38800  Biso   1.000  H
  C33      1.0000 0.47980  0.07330  0.37530  Biso   1.000  C
  C34      1.0000 0.50270  0.13040  0.40100  Biso   1.000  C
  H27      1.0000 0.48040  0.16680  0.38690  Biso   1.000  H
  C35      1.0000 0.55810  0.13430  0.44720  Biso   1.000  C
  H28      1.0000 0.57250  0.17400  0.46270  Biso   1.000  H
  C36      1.0000 0.14360  0.03620  0.25730  Biso   1.000  C
  H29      1.0000 0.17810  0.02120  0.28820  Biso   1.000  H
  C37      1.0000 0.08430  0.03440  0.28200  Biso   1.000  C
  H30      1.0000 0.07980  0.01870  0.32930  Biso   1.000  H
  C38      1.0000 0.03210  0.05550  0.23760  Biso   1.000  C
  C39      1.0000 0.04160  0.07740  0.16740  Biso   1.000  C
  H31      1.0000 0.00750  0.09050  0.13440  Biso   1.000  H
  C40      1.0000 0.10210  0.07950  0.14700  Biso   1.000  C
  H32      1.0000 0.10790  0.09620  0.10050  Biso   1.000  H
  C41      1.0000 0.17130  0.70890  0.61640  Biso   1.000  C
  H33      1.0000 0.15830  0.72710  0.57030  Biso   1.000  H
  C42      1.0000 0.17970  0.74720  0.67920  Biso   1.000  C
  H34      1.0000 0.17430  0.79040  0.67410  Biso   1.000  H
  C43      1.0000 0.19590  0.72200  0.74870  Biso   1.000  C
  C44      1.0000 0.20360  0.65650  0.75150  Biso   1.000  C
  H35      1.0000 0.21370  0.63650  0.79710  Biso   1.000  H
  C45      1.0000 0.19620  0.62250  0.68740  Biso   1.000  C
  H36      1.0000 0.20200  0.57930  0.69080  Biso   1.000  H
  C46      1.0000 0.19230  0.85080  0.89110  Biso   1.000  C
  H37      1.0000 0.16810  0.88610  0.89900  Biso   1.000  H
  C47      1.0000 0.17370  0.81340  0.82880  Biso   1.000  C
  H38      1.0000 0.13820  0.82360  0.79620  Biso   1.000  H
  C48      1.0000 0.20940  0.76100  0.81710  Biso   1.000  C
  C49      1.0000 0.26070  0.74750  0.86900  Biso   1.000  C
  H39      1.0000 0.28480  0.71170  0.86380  Biso   1.000  H
  C50      1.0000 0.27570  0.78760  0.92850  Biso   1.000  C
  H40      1.0000 0.31070  0.77820  0.96230  Biso   1.000  H
  Mo3      1.0000 0.28600  0.51890  0.50471  Biso   1.000  Mo
  Br3      1.0000 0.11849  0.36440  0.43013  Biso   1.000  Br
  Cu7      1.0000 0.26256  0.54561  0.35905  Biso   1.000  Cu
  Cu8      1.0000 0.18244  0.58808  0.52769  Biso   1.000  Cu
  Cu9      1.0000 0.21503  0.41305  0.48751  Biso   1.000  Cu
  S7       1.0000 0.28450  0.44841  0.41019  Biso   1.000  S
  S8       1.0000 0.25978  0.61510  0.45492  Biso   1.000  S
  S9       1.0000 0.21006  0.49048  0.57581  Biso   1.000  S
  N11      1.0000 0.18820  0.55340  0.28030  Biso   1.000  N
  N12      1.0000 0.90740  0.58480  0.02880  Biso   1.000  N
  N13      1.0000 0.34730  0.55900  0.31000  Biso   1.000  N
  N14      1.0000 0.31890  0.14720  0.88030  Biso   1.000  N
  N15      1.0000 0.25720  0.33900  0.56010  Biso   1.000  N
  C51      1.0000 0.14070  0.51200  0.27600  Biso   1.000  C
  H41      1.0000 0.14460  0.47770  0.30800  Biso   1.000  H
  C52      1.0000 0.08650  0.51670  0.22750  Biso   1.000  C
  H42      1.0000 0.05530  0.48610  0.22750  Biso   1.000  H
  C53      1.0000 0.07830  0.56670  0.17870  Biso   1.000  C
  C54      1.0000 0.12760  0.61020  0.18090  Biso   1.000  C
  H43      1.0000 0.12520  0.64430  0.14850  Biso   1.000  H
  C55      1.0000 0.18010  0.60150  0.23220  Biso   1.000  C
  H44      1.0000 0.21230  0.63120  0.23340  Biso   1.000  H
  C56      1.0000 0.93040  0.52930  0.05100  Biso   1.000  C
  H45      1.0000 0.90820  0.49350  0.03400  Biso   1.000  H
  C57      1.0000 0.98580  0.52160  0.09820  Biso   1.000  C
  H46      1.0000 0.99980  0.48140  0.11200  Biso   1.000  H
  C58      1.0000 0.02020  0.57330  0.12470  Biso   1.000  C
  C59      1.0000 0.99730  0.63040  0.09900  Biso   1.000  C
  H47      1.0000 0.01960  0.66680  0.11310  Biso   1.000  H
  C60      1.0000 0.94190  0.63430  0.05280  Biso   1.000  C
  H48      1.0000 0.92750  0.67400  0.03730  Biso   1.000  H
  C61      1.0000 0.35640  0.53620  0.24270  Biso   1.000  C
  H49      1.0000 0.32190  0.52120  0.21180  Biso   1.000  H
  C62      1.0000 0.41570  0.53440  0.21800  Biso   1.000  C
  H50      1.0000 0.42020  0.51870  0.17070  Biso   1.000  H
  C63      1.0000 0.46790  0.55550  0.26240  Biso   1.000  C
  C64      1.0000 0.45840  0.57740  0.33260  Biso   1.000  C
  H51      1.0000 0.49250  0.59050  0.36560  Biso   1.000  H
  C65      1.0000 0.39790  0.57950  0.35300  Biso   1.000  C
  H52      1.0000 0.39210  0.59620  0.39950  Biso   1.000  H
  C66      1.0000 0.32870  0.20890  0.88360  Biso   1.000  C
  H53      1.0000 0.34170  0.22710  0.92970  Biso   1.000  H
  C67      1.0000 0.32030  0.24720  0.82080  Biso   1.000  C
  H54      1.0000 0.32570  0.29040  0.82590  Biso   1.000  H
  C68      1.0000 0.30410  0.22200  0.75130  Biso   1.000  C
  C69      1.0000 0.29640  0.15650  0.74850  Biso   1.000  C
  H55      1.0000 0.28630  0.13650  0.70290  Biso   1.000  H
  C70      1.0000 0.30380  0.12250  0.81260  Biso   1.000  C
  H56      1.0000 0.29800  0.07930  0.80920  Biso   1.000  H
  C71      1.0000 0.30770  0.35080  0.60890  Biso   1.000  C
  H57      1.0000 0.33190  0.38610  0.60100  Biso   1.000  H
  C72      1.0000 0.32630  0.31340  0.67120  Biso   1.000  C
  H58      1.0000 0.36180  0.32360  0.70380  Biso   1.000  H
  C73      1.0000 0.29060  0.26100  0.68290  Biso   1.000  C
  C74      1.0000 0.23930  0.24750  0.63100  Biso   1.000  C
  H59      1.0000 0.21520  0.21170  0.63620  Biso   1.000  H
  C75      1.0000 0.22430  0.28760  0.57150  Biso   1.000  C
  H60      1.0000 0.18930  0.27820  0.53770  Biso   1.000  H
  Mo4      1.0000 0.78600  0.01890  0.50471  Biso   1.000  Mo
  Br4      1.0000 0.61849  0.86440  0.43013  Biso   1.000  Br
  Cu10     1.0000 0.76256  0.04561  0.35905  Biso   1.000  Cu
  Cu11     1.0000 0.68244  0.08808  0.52769  Biso   1.000  Cu
  Cu12     1.0000 0.71503  0.91305  0.48751  Biso   1.000  Cu
  S10      1.0000 0.78450  0.94841  0.41019  Biso   1.000  S
  S11      1.0000 0.75978  0.11510  0.45492  Biso   1.000  S
  S12      1.0000 0.71006  0.99048  0.57581  Biso   1.000  S
  N16      1.0000 0.68820  0.05340  0.28030  Biso   1.000  N
  N17      1.0000 0.40740  0.08480  0.02880  Biso   1.000  N
  N18      1.0000 0.84730  0.05900  0.31000  Biso   1.000  N
  N19      1.0000 0.81890  0.64720  0.88030  Biso   1.000  N
  N20      1.0000 0.75720  0.83900  0.56010  Biso   1.000  N
  C76      1.0000 0.64070  0.01200  0.27600  Biso   1.000  C
  H61      1.0000 0.64460  0.97770  0.30800  Biso   1.000  H
  C77      1.0000 0.58650  0.01670  0.22750  Biso   1.000  C
  H62      1.0000 0.55530  0.98610  0.22750  Biso   1.000  H
  C78      1.0000 0.57830  0.06670  0.17870  Biso   1.000  C
  C79      1.0000 0.62760  0.11020  0.18090  Biso   1.000  C
  H63      1.0000 0.62520  0.14430  0.14850  Biso   1.000  H
  C80      1.0000 0.68010  0.10150  0.23220  Biso   1.000  C
  H64      1.0000 0.71230  0.13120  0.23340  Biso   1.000  H
  C81      1.0000 0.43040  0.02930  0.05100  Biso   1.000  C
  H65      1.0000 0.40820  0.99350  0.03400  Biso   1.000  H
  C82      1.0000 0.48580  0.02160  0.09820  Biso   1.000  C
  H66      1.0000 0.49980  0.98140  0.11200  Biso   1.000  H
  C83      1.0000 0.52020  0.07330  0.12470  Biso   1.000  C
  C84      1.0000 0.49730  0.13040  0.09900  Biso   1.000  C
  H67      1.0000 0.51960  0.16680  0.11310  Biso   1.000  H
  C85      1.0000 0.44190  0.13430  0.05280  Biso   1.000  C
  H68      1.0000 0.42750  0.17400  0.03730  Biso   1.000  H
  C86      1.0000 0.85640  0.03620  0.24270  Biso   1.000  C
  H69      1.0000 0.82190  0.02120  0.21180  Biso   1.000  H
  C87      1.0000 0.91570  0.03440  0.21800  Biso   1.000  C
  H70      1.0000 0.92020  0.01870  0.17070  Biso   1.000  H
  C88      1.0000 0.96790  0.05550  0.26240  Biso   1.000  C
  C89      1.0000 0.95840  0.07740  0.33260  Biso   1.000  C
  H71      1.0000 0.99250  0.09050  0.36560  Biso   1.000  H
  C90      1.0000 0.89790  0.07950  0.35300  Biso   1.000  C
  H72      1.0000 0.89210  0.09620  0.39950  Biso   1.000  H
  C91      1.0000 0.82870  0.70890  0.88360  Biso   1.000  C
  H73      1.0000 0.84170  0.72710  0.92970  Biso   1.000  H
  C92      1.0000 0.82030  0.74720  0.82080  Biso   1.000  C
  H74      1.0000 0.82570  0.79040  0.82590  Biso   1.000  H
  C93      1.0000 0.80410  0.72200  0.75130  Biso   1.000  C
  C94      1.0000 0.79640  0.65650  0.74850  Biso   1.000  C
  H75      1.0000 0.78630  0.63650  0.70290  Biso   1.000  H
  C95      1.0000 0.80380  0.62250  0.81260  Biso   1.000  C
  H76      1.0000 0.79800  0.57930  0.80920  Biso   1.000  H
  C96      1.0000 0.80770  0.85080  0.60890  Biso   1.000  C
  H77      1.0000 0.83190  0.88610  0.60100  Biso   1.000  H
  C97      1.0000 0.82630  0.81340  0.67120  Biso   1.000  C
  H78      1.0000 0.86180  0.82360  0.70380  Biso   1.000  H
  C98      1.0000 0.79060  0.76100  0.68290  Biso   1.000  C
  C99      1.0000 0.73930  0.74750  0.63100  Biso   1.000  C
  H79      1.0000 0.71520  0.71170  0.63620  Biso   1.000  H
  C100     1.0000 0.72430  0.78760  0.57150  Biso   1.000  C
  H80      1.0000 0.68930  0.77820  0.53770  Biso   1.000  H
  Mo5      1.0000 0.28600  0.48110  0.00471  Biso   1.000  Mo
  Br5      1.0000 0.11849  0.63560  0.93013  Biso   1.000  Br
  Cu13     1.0000 0.26256  0.45439  0.85905  Biso   1.000  Cu
  Cu14     1.0000 0.18244  0.41192  0.02769  Biso   1.000  Cu
  Cu15     1.0000 0.21503  0.58695  0.98751  Biso   1.000  Cu
  S13      1.0000 0.28450  0.55159  0.91019  Biso   1.000  S
  S14      1.0000 0.25978  0.38490  0.95492  Biso   1.000  S
  S15      1.0000 0.21006  0.50952  0.07581  Biso   1.000  S
  N21      1.0000 0.18820  0.44660  0.78030  Biso   1.000  N
  N22      1.0000 0.90740  0.41520  0.52880  Biso   1.000  N
  N23      1.0000 0.34730  0.44100  0.81000  Biso   1.000  N
  N24      1.0000 0.31890  0.85280  0.38030  Biso   1.000  N
  N25      1.0000 0.25720  0.66100  0.06010  Biso   1.000  N
  C101     1.0000 0.14070  0.48800  0.77600  Biso   1.000  C
  H81      1.0000 0.14460  0.52230  0.80800  Biso   1.000  H
  C102     1.0000 0.08650  0.48330  0.72750  Biso   1.000  C
  H82      1.0000 0.05530  0.51390  0.72750  Biso   1.000  H
  C103     1.0000 0.07830  0.43330  0.67870  Biso   1.000  C
  C104     1.0000 0.12760  0.38980  0.68090  Biso   1.000  C
  H83      1.0000 0.12520  0.35570  0.64850  Biso   1.000  H
  C105     1.0000 0.18010  0.39850  0.73220  Biso   1.000  C
  H84      1.0000 0.21230  0.36880  0.73340  Biso   1.000  H
  C106     1.0000 0.93040  0.47070  0.55100  Biso   1.000  C
  H85      1.0000 0.90820  0.50650  0.53400  Biso   1.000  H
  C107     1.0000 0.98580  0.47840  0.59820  Biso   1.000  C
  H86      1.0000 0.99980  0.51860  0.61200  Biso   1.000  H
  C108     1.0000 0.02020  0.42670  0.62470  Biso   1.000  C
  C109     1.0000 0.99730  0.36960  0.59900  Biso   1.000  C
  H87      1.0000 0.01960  0.33320  0.61310  Biso   1.000  H
  C110     1.0000 0.94190  0.36570  0.55280  Biso   1.000  C
  H88      1.0000 0.92750  0.32600  0.53730  Biso   1.000  H
  C111     1.0000 0.35640  0.46380  0.74270  Biso   1.000  C
  H89      1.0000 0.32190  0.47880  0.71180  Biso   1.000  H
  C112     1.0000 0.41570  0.46560  0.71800  Biso   1.000  C
  H90      1.0000 0.42020  0.48130  0.67070  Biso   1.000  H
  C113     1.0000 0.46790  0.44450  0.76240  Biso   1.000  C
  C114     1.0000 0.45840  0.42260  0.83260  Biso   1.000  C
  H91      1.0000 0.49250  0.40950  0.86560  Biso   1.000  H
  C115     1.0000 0.39790  0.42050  0.85300  Biso   1.000  C
  H92      1.0000 0.39210  0.40380  0.89950  Biso   1.000  H
  C116     1.0000 0.32870  0.79110  0.38360  Biso   1.000  C
  H93      1.0000 0.34170  0.77290  0.42970  Biso   1.000  H
  C117     1.0000 0.32030  0.75280  0.32080  Biso   1.000  C
  H94      1.0000 0.32570  0.70960  0.32590  Biso   1.000  H
  C118     1.0000 0.30410  0.77800  0.25130  Biso   1.000  C
  C119     1.0000 0.29640  0.84350  0.24850  Biso   1.000  C
  H95      1.0000 0.28630  0.86350  0.20290  Biso   1.000  H
  C120     1.0000 0.30380  0.87750  0.31260  Biso   1.000  C
  H96      1.0000 0.29800  0.92070  0.30920  Biso   1.000  H
  C121     1.0000 0.30770  0.64920  0.10890  Biso   1.000  C
  H97      1.0000 0.33190  0.61390  0.10100  Biso   1.000  H
  C122     1.0000 0.32630  0.68660  0.17120  Biso   1.000  C
  H98      1.0000 0.36180  0.67640  0.20380  Biso   1.000  H
  C123     1.0000 0.29060  0.73900  0.18290  Biso   1.000  C
  C124     1.0000 0.23930  0.75250  0.13100  Biso   1.000  C
  H99      1.0000 0.21520  0.78830  0.13620  Biso   1.000  H
  C125     1.0000 0.22430  0.71240  0.07150  Biso   1.000  C
  H100     1.0000 0.18930  0.72180  0.03770  Biso   1.000  H
  Mo6      1.0000 0.78600  0.98110  0.00471  Biso   1.000  Mo
  Br6      1.0000 0.61849  0.13560  0.93013  Biso   1.000  Br
  Cu16     1.0000 0.76256  0.95439  0.85905  Biso   1.000  Cu
  Cu17     1.0000 0.68244  0.91192  0.02769  Biso   1.000  Cu
  Cu18     1.0000 0.71503  0.08695  0.98751  Biso   1.000  Cu
  S16      1.0000 0.78450  0.05159  0.91019  Biso   1.000  S
  S17      1.0000 0.75978  0.88490  0.95492  Biso   1.000  S
  S18      1.0000 0.71006  0.00952  0.07581  Biso   1.000  S
  N26      1.0000 0.68820  0.94660  0.78030  Biso   1.000  N
  N27      1.0000 0.40740  0.91520  0.52880  Biso   1.000  N
  N28      1.0000 0.84730  0.94100  0.81000  Biso   1.000  N
  N29      1.0000 0.81890  0.35280  0.38030  Biso   1.000  N
  N30      1.0000 0.75720  0.16100  0.06010  Biso   1.000  N
  C126     1.0000 0.64070  0.98800  0.77600  Biso   1.000  C
  H101     1.0000 0.64460  0.02230  0.80800  Biso   1.000  H
  C127     1.0000 0.58650  0.98330  0.72750  Biso   1.000  C
  H102     1.0000 0.55530  0.01390  0.72750  Biso   1.000  H
  C128     1.0000 0.57830  0.93330  0.67870  Biso   1.000  C
  C129     1.0000 0.62760  0.88980  0.68090  Biso   1.000  C
  H103     1.0000 0.62520  0.85570  0.64850  Biso   1.000  H
  C130     1.0000 0.68010  0.89850  0.73220  Biso   1.000  C
  H104     1.0000 0.71230  0.86880  0.73340  Biso   1.000  H
  C131     1.0000 0.43040  0.97070  0.55100  Biso   1.000  C
  H105     1.0000 0.40820  0.00650  0.53400  Biso   1.000  H
  C132     1.0000 0.48580  0.97840  0.59820  Biso   1.000  C
  H106     1.0000 0.49980  0.01860  0.61200  Biso   1.000  H
  C133     1.0000 0.52020  0.92670  0.62470  Biso   1.000  C
  C134     1.0000 0.49730  0.86960  0.59900  Biso   1.000  C
  H107     1.0000 0.51960  0.83320  0.61310  Biso   1.000  H
  C135     1.0000 0.44190  0.86570  0.55280  Biso   1.000  C
  H108     1.0000 0.42750  0.82600  0.53730  Biso   1.000  H
  C136     1.0000 0.85640  0.96380  0.74270  Biso   1.000  C
  H109     1.0000 0.82190  0.97880  0.71180  Biso   1.000  H
  C137     1.0000 0.91570  0.96560  0.71800  Biso   1.000  C
  H110     1.0000 0.92020  0.98130  0.67070  Biso   1.000  H
  C138     1.0000 0.96790  0.94450  0.76240  Biso   1.000  C
  C139     1.0000 0.95840  0.92260  0.83260  Biso   1.000  C
  H111     1.0000 0.99250  0.90950  0.86560  Biso   1.000  H
  C140     1.0000 0.89790  0.92050  0.85300  Biso   1.000  C
  H112     1.0000 0.89210  0.90380  0.89950  Biso   1.000  H
  C141     1.0000 0.82870  0.29110  0.38360  Biso   1.000  C
  H113     1.0000 0.84170  0.27290  0.42970  Biso   1.000  H
  C142     1.0000 0.82030  0.25280  0.32080  Biso   1.000  C
  H114     1.0000 0.82570  0.20960  0.32590  Biso   1.000  H
  C143     1.0000 0.80410  0.27800  0.25130  Biso   1.000  C
  C144     1.0000 0.79640  0.34350  0.24850  Biso   1.000  C
  H115     1.0000 0.78630  0.36350  0.20290  Biso   1.000  H
  C145     1.0000 0.80380  0.37750  0.31260  Biso   1.000  C
  H116     1.0000 0.79800  0.42070  0.30920  Biso   1.000  H
  C146     1.0000 0.80770  0.14920  0.10890  Biso   1.000  C
  H117     1.0000 0.83190  0.11390  0.10100  Biso   1.000  H
  C147     1.0000 0.82630  0.18660  0.17120  Biso   1.000  C
  H118     1.0000 0.86180  0.17640  0.20380  Biso   1.000  H
  C148     1.0000 0.79060  0.23900  0.18290  Biso   1.000  C
  C149     1.0000 0.73930  0.25250  0.13100  Biso   1.000  C
  H119     1.0000 0.71520  0.28830  0.13620  Biso   1.000  H
  C150     1.0000 0.72430  0.21240  0.07150  Biso   1.000  C
  H120     1.0000 0.68930  0.22180  0.03770  Biso   1.000  H
  Mo7      1.0000 0.71400  0.48110  0.49529  Biso   1.000  Mo
  Br7      1.0000 0.88151  0.63560  0.56987  Biso   1.000  Br
  Cu19     1.0000 0.73744  0.45439  0.64095  Biso   1.000  Cu
  Cu20     1.0000 0.81756  0.41192  0.47231  Biso   1.000  Cu
  Cu21     1.0000 0.78497  0.58695  0.51249  Biso   1.000  Cu
  S19      1.0000 0.71550  0.55159  0.58981  Biso   1.000  S
  S20      1.0000 0.74022  0.38490  0.54508  Biso   1.000  S
  S21      1.0000 0.78994  0.50952  0.42419  Biso   1.000  S
  N31      1.0000 0.81180  0.44660  0.71970  Biso   1.000  N
  N32      1.0000 0.09260  0.41520  0.97120  Biso   1.000  N
  N33      1.0000 0.65270  0.44100  0.69000  Biso   1.000  N
  N34      1.0000 0.68110  0.85280  0.11970  Biso   1.000  N
  N35      1.0000 0.74280  0.66100  0.43990  Biso   1.000  N
  C151     1.0000 0.85930  0.48800  0.72400  Biso   1.000  C
  H121     1.0000 0.85540  0.52230  0.69200  Biso   1.000  H
  C152     1.0000 0.91350  0.48330  0.77250  Biso   1.000  C
  H122     1.0000 0.94470  0.51390  0.77250  Biso   1.000  H
  C153     1.0000 0.92170  0.43330  0.82130  Biso   1.000  C
  C154     1.0000 0.87240  0.38980  0.81910  Biso   1.000  C
  H123     1.0000 0.87480  0.35570  0.85150  Biso   1.000  H
  C155     1.0000 0.81990  0.39850  0.76780  Biso   1.000  C
  H124     1.0000 0.78770  0.36880  0.76660  Biso   1.000  H
  C156     1.0000 0.06960  0.47070  0.94900  Biso   1.000  C
  H125     1.0000 0.09180  0.50650  0.96600  Biso   1.000  H
  C157     1.0000 0.01420  0.47840  0.90180  Biso   1.000  C
  H126     1.0000 0.00020  0.51860  0.88800  Biso   1.000  H
  C158     1.0000 0.97980  0.42670  0.87530  Biso   1.000  C
  C159     1.0000 0.00270  0.36960  0.90100  Biso   1.000  C
  H127     1.0000 0.98040  0.33320  0.88690  Biso   1.000  H
  C160     1.0000 0.05810  0.36570  0.94720  Biso   1.000  C
  H128     1.0000 0.07250  0.32600  0.96270  Biso   1.000  H
  C161     1.0000 0.64360  0.46380  0.75730  Biso   1.000  C
  H129     1.0000 0.67810  0.47880  0.78820  Biso   1.000  H
  C162     1.0000 0.58430  0.46560  0.78200  Biso   1.000  C
  H130     1.0000 0.57980  0.48130  0.82930  Biso   1.000  H
  C163     1.0000 0.53210  0.44450  0.73760  Biso   1.000  C
  C164     1.0000 0.54160  0.42260  0.66740  Biso   1.000  C
  H131     1.0000 0.50750  0.40950  0.63440  Biso   1.000  H
  C165     1.0000 0.60210  0.42050  0.64700  Biso   1.000  C
  H132     1.0000 0.60790  0.40380  0.60050  Biso   1.000  H
  C166     1.0000 0.67130  0.79110  0.11640  Biso   1.000  C
  H133     1.0000 0.65830  0.77290  0.07030  Biso   1.000  H
  C167     1.0000 0.67970  0.75280  0.17920  Biso   1.000  C
  H134     1.0000 0.67430  0.70960  0.17410  Biso   1.000  H
  C168     1.0000 0.69590  0.77800  0.24870  Biso   1.000  C
  C169     1.0000 0.70360  0.84350  0.25150  Biso   1.000  C
  H135     1.0000 0.71370  0.86350  0.29710  Biso   1.000  H
  C170     1.0000 0.69620  0.87750  0.18740  Biso   1.000  C
  H136     1.0000 0.70200  0.92070  0.19080  Biso   1.000  H
  C171     1.0000 0.69230  0.64920  0.39110  Biso   1.000  C
  H137     1.0000 0.66810  0.61390  0.39900  Biso   1.000  H
  C172     1.0000 0.67370  0.68660  0.32880  Biso   1.000  C
  H138     1.0000 0.63820  0.67640  0.29620  Biso   1.000  H
  C173     1.0000 0.70940  0.73900  0.31710  Biso   1.000  C
  C174     1.0000 0.76070  0.75250  0.36900  Biso   1.000  C
  H139     1.0000 0.78480  0.78830  0.36380  Biso   1.000  H
  C175     1.0000 0.77570  0.71240  0.42850  Biso   1.000  C
  H140     1.0000 0.81070  0.72180  0.46230  Biso   1.000  H
  Mo8      1.0000 0.21400  0.98110  0.49529  Biso   1.000  Mo
  Br8      1.0000 0.38151  0.13560  0.56987  Biso   1.000  Br
  Cu22     1.0000 0.23744  0.95439  0.64095  Biso   1.000  Cu
  Cu23     1.0000 0.31756  0.91192  0.47231  Biso   1.000  Cu
  Cu24     1.0000 0.28497  0.08695  0.51249  Biso   1.000  Cu
  S22      1.0000 0.21550  0.05159  0.58981  Biso   1.000  S
  S23      1.0000 0.24022  0.88490  0.54508  Biso   1.000  S
  S24      1.0000 0.28994  0.00952  0.42419  Biso   1.000  S
  N36      1.0000 0.31180  0.94660  0.71970  Biso   1.000  N
  N37      1.0000 0.59260  0.91520  0.97120  Biso   1.000  N
  N38      1.0000 0.15270  0.94100  0.69000  Biso   1.000  N
  N39      1.0000 0.18110  0.35280  0.11970  Biso   1.000  N
  N40      1.0000 0.24280  0.16100  0.43990  Biso   1.000  N
  C176     1.0000 0.35930  0.98800  0.72400  Biso   1.000  C
  H141     1.0000 0.35540  0.02230  0.69200  Biso   1.000  H
  C177     1.0000 0.41350  0.98330  0.77250  Biso   1.000  C
  H142     1.0000 0.44470  0.01390  0.77250  Biso   1.000  H
  C178     1.0000 0.42170  0.93330  0.82130  Biso   1.000  C
  C179     1.0000 0.37240  0.88980  0.81910  Biso   1.000  C
  H143     1.0000 0.37480  0.85570  0.85150  Biso   1.000  H
  C180     1.0000 0.31990  0.89850  0.76780  Biso   1.000  C
  H144     1.0000 0.28770  0.86880  0.76660  Biso   1.000  H
  C181     1.0000 0.56960  0.97070  0.94900  Biso   1.000  C
  H145     1.0000 0.59180  0.00650  0.96600  Biso   1.000  H
  C182     1.0000 0.51420  0.97840  0.90180  Biso   1.000  C
  H146     1.0000 0.50020  0.01860  0.88800  Biso   1.000  H
  C183     1.0000 0.47980  0.92670  0.87530  Biso   1.000  C
  C184     1.0000 0.50270  0.86960  0.90100  Biso   1.000  C
  H147     1.0000 0.48040  0.83320  0.88690  Biso   1.000  H
  C185     1.0000 0.55810  0.86570  0.94720  Biso   1.000  C
  H148     1.0000 0.57250  0.82600  0.96270  Biso   1.000  H
  C186     1.0000 0.14360  0.96380  0.75730  Biso   1.000  C
  H149     1.0000 0.17810  0.97880  0.78820  Biso   1.000  H
  C187     1.0000 0.08430  0.96560  0.78200  Biso   1.000  C
  H150     1.0000 0.07980  0.98130  0.82930  Biso   1.000  H
  C188     1.0000 0.03210  0.94450  0.73760  Biso   1.000  C
  C189     1.0000 0.04160  0.92260  0.66740  Biso   1.000  C
  H151     1.0000 0.00750  0.90950  0.63440  Biso   1.000  H
  C190     1.0000 0.10210  0.92050  0.64700  Biso   1.000  C
  H152     1.0000 0.10790  0.90380  0.60050  Biso   1.000  H
  C191     1.0000 0.17130  0.29110  0.11640  Biso   1.000  C
  H153     1.0000 0.15830  0.27290  0.07030  Biso   1.000  H
  C192     1.0000 0.17970  0.25280  0.17920  Biso   1.000  C
  H154     1.0000 0.17430  0.20960  0.17410  Biso   1.000  H
  C193     1.0000 0.19590  0.27800  0.24870  Biso   1.000  C
  C194     1.0000 0.20360  0.34350  0.25150  Biso   1.000  C
  H155     1.0000 0.21370  0.36350  0.29710  Biso   1.000  H
  C195     1.0000 0.19620  0.37750  0.18740  Biso   1.000  C
  H156     1.0000 0.20200  0.42070  0.19080  Biso   1.000  H
  C196     1.0000 0.19230  0.14920  0.39110  Biso   1.000  C
  H157     1.0000 0.16810  0.11390  0.39900  Biso   1.000  H
  C197     1.0000 0.17370  0.18660  0.32880  Biso   1.000  C
  H158     1.0000 0.13820  0.17640  0.29620  Biso   1.000  H
  C198     1.0000 0.20940  0.23900  0.31710  Biso   1.000  C
  C199     1.0000 0.26070  0.25250  0.36900  Biso   1.000  C
  H159     1.0000 0.28480  0.28830  0.36380  Biso   1.000  H
  C200     1.0000 0.27570  0.21240  0.42850  Biso   1.000  C
  H160     1.0000 0.31070  0.22180  0.46230  Biso   1.000  H
