data_MATBAM_clean
_audit_creation_date              2014-07-02
_audit_creation_method            'Materials Studio'
_symmetry_space_group_name_H-M    'P1'
_symmetry_Int_Tables_number       1
_symmetry_cell_setting            triclinic
loop_
_symmetry_equiv_pos_as_xyz
  x,y,z
_cell_length_a                    9.7008
_cell_length_b                    20.8675
_cell_length_c                    24.7500
_cell_angle_alpha                 104.5310
_cell_angle_beta                  90.0000
_cell_angle_gamma                 103.4410
loop_
_atom_site_label
_atom_site_type_symbol
_atom_site_fract_x
_atom_site_fract_y
_atom_site_fract_z
_atom_site_U_iso_or_equiv
_atom_site_adp_type
_atom_site_occupancy
Cu1    Cu    0.25205   0.78548   0.01049   0.01267  Uiso   1.00
Cu2    Cu    0.56450   0.71034   0.96181   0.01267  Uiso   1.00
Cu3    Cu    0.47427   0.73852   0.10828   0.01267  Uiso   1.00
Cu4    Cu    0.46657   0.21452   0.48951   0.01267  Uiso   1.00
Cu5    Cu    0.85416   0.28966   0.53819   0.01267  Uiso   1.00
Cu6    Cu    0.73575   0.26148   0.39172   0.01267  Uiso   1.00
Cu7    Cu    0.74795   0.21452   0.98951   0.01267  Uiso   1.00
Cu8    Cu    0.43550   0.28966   0.03819   0.01267  Uiso   1.00
Cu9    Cu    0.52573   0.26148   0.89172   0.01267  Uiso   1.00
Cu10   Cu    0.53343   0.78548   0.51049   0.01267  Uiso   1.00
Cu11   Cu    0.14584   0.71034   0.46181   0.01267  Uiso   1.00
Cu12   Cu    0.26425   0.73852   0.60828   0.01267  Uiso   1.00
Mo1    Mo    0.53097   0.82110   0.04004   0.01267  Uiso   1.00
Mo2    Mo    0.70987   0.17890   0.45996   0.01267  Uiso   1.00
Mo3    Mo    0.46903   0.17890   0.95996   0.01267  Uiso   1.00
Mo4    Mo    0.29013   0.82110   0.54004   0.01267  Uiso   1.00
H1     H     0.95930   0.71460   0.03910   0.01267  Uiso   1.00
H2     H     0.80650   0.60960   0.01870   0.01267  Uiso   1.00
H3     H     0.06460   0.54780   0.90180   0.01267  Uiso   1.00
H4     H     0.21250   0.65280   0.92820   0.01267  Uiso   1.00
H5     H     0.51250   0.40660   0.95090   0.01267  Uiso   1.00
H6     H     0.64320   0.51560   0.97230   0.01267  Uiso   1.00
H7     H     0.97720   0.44300   0.91050   0.01267  Uiso   1.00
H8     H     0.82890   0.33620   0.89070   0.01267  Uiso   1.00
H9     H     0.98510   0.83780   0.04370   0.01267  Uiso   1.00
H10    H     0.89050   0.92620   0.04590   0.01267  Uiso   1.00
H11    H     0.17950   0.98640   0.94690   0.01267  Uiso   1.00
H12    H     0.28200   0.89920   0.95290   0.01267  Uiso   1.00
H13    H     0.76460   0.82000   0.91600   0.01267  Uiso   1.00
H14    H     0.92700   0.83100   0.84990   0.01267  Uiso   1.00
H15    H     0.90590   0.63200   0.82240   0.01267  Uiso   1.00
H16    H     0.73970   0.62780   0.88770   0.01267  Uiso   1.00
H17    H     0.26380   0.83080   0.72620   0.01267  Uiso   1.00
H18    H     0.14460   0.83160   0.80440   0.01267  Uiso   1.00
H19    H     0.94870   0.63780   0.73670   0.01267  Uiso   1.00
H20    H     0.09510   0.64040   0.66250   0.01267  Uiso   1.00
H21    H     0.24470   0.28540   0.46090   0.01267  Uiso   1.00
H22    H     0.19690   0.39040   0.48130   0.01267  Uiso   1.00
H23    H     0.51680   0.45220   0.59820   0.01267  Uiso   1.00
H24    H     0.55970   0.34720   0.57180   0.01267  Uiso   1.00
H25    H     0.10590   0.59340   0.54910   0.01267  Uiso   1.00
H26    H     0.12760   0.48440   0.52770   0.01267  Uiso   1.00
H27    H     0.53420   0.55700   0.58950   0.01267  Uiso   1.00
H28    H     0.49270   0.66380   0.60930   0.01267  Uiso   1.00
H29    H     0.14730   0.16220   0.45630   0.01267  Uiso   1.00
H30    H     0.96430   0.07380   0.45410   0.01267  Uiso   1.00
H31    H     0.19310   0.01360   0.55310   0.01267  Uiso   1.00
H32    H     0.38280   0.10080   0.54710   0.01267  Uiso   1.00
H33    H     0.94460   0.18000   0.58400   0.01267  Uiso   1.00
H34    H     0.09600   0.16900   0.65010   0.01267  Uiso   1.00
H35    H     0.27390   0.36800   0.67760   0.01267  Uiso   1.00
H36    H     0.11190   0.37220   0.61230   0.01267  Uiso   1.00
H37    H     0.43300   0.16920   0.77380   0.01267  Uiso   1.00
H38    H     0.31300   0.16840   0.69560   0.01267  Uiso   1.00
H39    H     0.31090   0.36220   0.76330   0.01267  Uiso   1.00
H40    H     0.45470   0.35960   0.83750   0.01267  Uiso   1.00
H41    H     0.04070   0.28540   0.96090   0.01267  Uiso   1.00
H42    H     0.19350   0.39040   0.98130   0.01267  Uiso   1.00
H43    H     0.93540   0.45220   0.09820   0.01267  Uiso   1.00
H44    H     0.78750   0.34720   0.07180   0.01267  Uiso   1.00
H45    H     0.48750   0.59340   0.04910   0.01267  Uiso   1.00
H46    H     0.35680   0.48440   0.02770   0.01267  Uiso   1.00
H47    H     0.02280   0.55700   0.08950   0.01267  Uiso   1.00
H48    H     0.17110   0.66380   0.10930   0.01267  Uiso   1.00
H49    H     0.01490   0.16220   0.95630   0.01267  Uiso   1.00
H50    H     0.10950   0.07380   0.95410   0.01267  Uiso   1.00
H51    H     0.82050   0.01360   0.05310   0.01267  Uiso   1.00
H52    H     0.71800   0.10080   0.04710   0.01267  Uiso   1.00
H53    H     0.23540   0.18000   0.08400   0.01267  Uiso   1.00
H54    H     0.07300   0.16900   0.15010   0.01267  Uiso   1.00
H55    H     0.09410   0.36800   0.17760   0.01267  Uiso   1.00
H56    H     0.26030   0.37220   0.11230   0.01267  Uiso   1.00
H57    H     0.73620   0.16920   0.27380   0.01267  Uiso   1.00
H58    H     0.85540   0.16840   0.19560   0.01267  Uiso   1.00
H59    H     0.05130   0.36220   0.26330   0.01267  Uiso   1.00
H60    H     0.90490   0.35960   0.33750   0.01267  Uiso   1.00
H61    H     0.75530   0.71460   0.53910   0.01267  Uiso   1.00
H62    H     0.80310   0.60960   0.51870   0.01267  Uiso   1.00
H63    H     0.48320   0.54780   0.40180   0.01267  Uiso   1.00
H64    H     0.44030   0.65280   0.42820   0.01267  Uiso   1.00
H65    H     0.89410   0.40660   0.45090   0.01267  Uiso   1.00
H66    H     0.87240   0.51560   0.47230   0.01267  Uiso   1.00
H67    H     0.46580   0.44300   0.41050   0.01267  Uiso   1.00
H68    H     0.50730   0.33620   0.39070   0.01267  Uiso   1.00
H69    H     0.85270   0.83780   0.54370   0.01267  Uiso   1.00
H70    H     0.03570   0.92620   0.54590   0.01267  Uiso   1.00
H71    H     0.80690   0.98640   0.44690   0.01267  Uiso   1.00
H72    H     0.61720   0.89920   0.45290   0.01267  Uiso   1.00
H73    H     0.05540   0.82000   0.41600   0.01267  Uiso   1.00
H74    H     0.90400   0.83100   0.34990   0.01267  Uiso   1.00
H75    H     0.72610   0.63200   0.32240   0.01267  Uiso   1.00
H76    H     0.88810   0.62780   0.38770   0.01267  Uiso   1.00
H77    H     0.56700   0.83080   0.22620   0.01267  Uiso   1.00
H78    H     0.68700   0.83160   0.30440   0.01267  Uiso   1.00
H79    H     0.68910   0.63780   0.23670   0.01267  Uiso   1.00
H80    H     0.54530   0.64040   0.16250   0.01267  Uiso   1.00
C1     C     0.98286   0.67972   0.01200   0.01267  Uiso   1.00
C2     C     0.88954   0.61648   0.99990   0.01267  Uiso   1.00
C3     C     0.92040   0.56340   0.95960   0.01267  Uiso   1.00
C4     C     0.04262   0.58044   0.93150   0.01267  Uiso   1.00
C5     C     0.12993   0.64386   0.94690   0.01267  Uiso   1.00
C6     C     0.60710   0.41460   0.94200   0.01267  Uiso   1.00
C7     C     0.68497   0.48034   0.95550   0.01267  Uiso   1.00
C8     C     0.82756   0.49412   0.94400   0.01267  Uiso   1.00
C9     C     0.88224   0.43728   0.91890   0.01267  Uiso   1.00
C10    C     0.79166   0.37332   0.90700   0.01267  Uiso   1.00
C11    C     0.03122   0.87004   0.02550   0.01267  Uiso   1.00
C12    C     0.97152   0.92244   0.02650   0.01267  Uiso   1.00
C13    C     0.02956   0.96872   0.99940   0.01267  Uiso   1.00
C14    C     0.14190   0.95800   0.96950   0.01267  Uiso   1.00
C15    C     0.20150   0.90420   0.97230   0.01267  Uiso   1.00
C16    C     0.79270   0.78140   0.89650   0.01267  Uiso   1.00
C17    C     0.89055   0.78870   0.85670   0.01267  Uiso   1.00
C18    C     0.93352   0.73144   0.82690   0.01267  Uiso   1.00
C19    C     0.87770   0.67140   0.84020   0.01267  Uiso   1.00
C20    C     0.77900   0.66960   0.88020   0.01267  Uiso   1.00
C21    C     0.20000   0.79080   0.72810   0.01267  Uiso   1.00
C22    C     0.12713   0.79206   0.77530   0.01267  Uiso   1.00
C23    C     0.02588   0.73396   0.78030   0.01267  Uiso   1.00
C24    C     0.01420   0.67820   0.73640   0.01267  Uiso   1.00
C25    C     0.10020   0.68060   0.69020   0.01267  Uiso   1.00
C26    C     0.41140   0.55620   0.91340   0.01267  Uiso   1.00
C27    C     0.30314   0.32028   0.48800   0.01267  Uiso   1.00
C28    C     0.27306   0.38352   0.50010   0.01267  Uiso   1.00
C29    C     0.35700   0.43660   0.54040   0.01267  Uiso   1.00
C30    C     0.46218   0.41956   0.56850   0.01267  Uiso   1.00
C31    C     0.48607   0.35614   0.55310   0.01267  Uiso   1.00
C32    C     0.19250   0.58540   0.55800   0.01267  Uiso   1.00
C33    C     0.20463   0.51966   0.54450   0.01267  Uiso   1.00
C34    C     0.33344   0.50588   0.55600   0.01267  Uiso   1.00
C35    C     0.44496   0.56272   0.58110   0.01267  Uiso   1.00
C36    C     0.41834   0.62668   0.59300   0.01267  Uiso   1.00
C37    C     0.16118   0.12996   0.47450   0.01267  Uiso   1.00
C38    C     0.04908   0.07756   0.47350   0.01267  Uiso   1.00
C39    C     0.06084   0.03128   0.50060   0.01267  Uiso   1.00
C40    C     0.18390   0.04200   0.53050   0.01267  Uiso   1.00
C41    C     0.29730   0.09580   0.52770   0.01267  Uiso   1.00
C42    C     0.01130   0.21860   0.60350   0.01267  Uiso   1.00
C43    C     0.10185   0.21130   0.64330   0.01267  Uiso   1.00
C44    C     0.20208   0.26856   0.67310   0.01267  Uiso   1.00
C45    C     0.20630   0.32860   0.65980   0.01267  Uiso   1.00
C46    C     0.10940   0.33040   0.61980   0.01267  Uiso   1.00
C47    C     0.40920   0.20920   0.77190   0.01267  Uiso   1.00
C48    C     0.33507   0.20794   0.72470   0.01267  Uiso   1.00
C49    C     0.29192   0.26604   0.71970   0.01267  Uiso   1.00
C50    C     0.33600   0.32180   0.76360   0.01267  Uiso   1.00
C51    C     0.41960   0.31940   0.80980   0.01267  Uiso   1.00
C52    C     0.85520   0.44380   0.58660   0.01267  Uiso   1.00
C53    C     0.01714   0.32028   0.98800   0.01267  Uiso   1.00
C54    C     0.11046   0.38352   0.00010   0.01267  Uiso   1.00
C55    C     0.07960   0.43660   0.04040   0.01267  Uiso   1.00
C56    C     0.95738   0.41956   0.06850   0.01267  Uiso   1.00
C57    C     0.87007   0.35614   0.05310   0.01267  Uiso   1.00
C58    C     0.39290   0.58540   0.05800   0.01267  Uiso   1.00
C59    C     0.31503   0.51966   0.04450   0.01267  Uiso   1.00
C60    C     0.17244   0.50588   0.05600   0.01267  Uiso   1.00
C61    C     0.11776   0.56272   0.08110   0.01267  Uiso   1.00
C62    C     0.20834   0.62668   0.09300   0.01267  Uiso   1.00
C63    C     0.96878   0.12996   0.97450   0.01267  Uiso   1.00
C64    C     0.02848   0.07756   0.97350   0.01267  Uiso   1.00
C65    C     0.97044   0.03128   0.00060   0.01267  Uiso   1.00
C66    C     0.85810   0.04200   0.03050   0.01267  Uiso   1.00
C67    C     0.79850   0.09580   0.02770   0.01267  Uiso   1.00
C68    C     0.20730   0.21860   0.10350   0.01267  Uiso   1.00
C69    C     0.10945   0.21130   0.14330   0.01267  Uiso   1.00
C70    C     0.06648   0.26856   0.17310   0.01267  Uiso   1.00
C71    C     0.12230   0.32860   0.15980   0.01267  Uiso   1.00
C72    C     0.22100   0.33040   0.11980   0.01267  Uiso   1.00
C73    C     0.80000   0.20920   0.27190   0.01267  Uiso   1.00
C74    C     0.87287   0.20794   0.22470   0.01267  Uiso   1.00
C75    C     0.97412   0.26604   0.21970   0.01267  Uiso   1.00
C76    C     0.98580   0.32180   0.26360   0.01267  Uiso   1.00
C77    C     0.89980   0.31940   0.30980   0.01267  Uiso   1.00
C78    C     0.58860   0.44380   0.08660   0.01267  Uiso   1.00
C79    C     0.69686   0.67972   0.51200   0.01267  Uiso   1.00
C80    C     0.72694   0.61648   0.49990   0.01267  Uiso   1.00
C81    C     0.64300   0.56340   0.45960   0.01267  Uiso   1.00
C82    C     0.53782   0.58044   0.43150   0.01267  Uiso   1.00
C83    C     0.51393   0.64386   0.44690   0.01267  Uiso   1.00
C84    C     0.80750   0.41460   0.44200   0.01267  Uiso   1.00
C85    C     0.79537   0.48034   0.45550   0.01267  Uiso   1.00
C86    C     0.66656   0.49412   0.44400   0.01267  Uiso   1.00
C87    C     0.55504   0.43728   0.41890   0.01267  Uiso   1.00
C88    C     0.58166   0.37332   0.40700   0.01267  Uiso   1.00
C89    C     0.83882   0.87004   0.52550   0.01267  Uiso   1.00
C90    C     0.95092   0.92244   0.52650   0.01267  Uiso   1.00
C91    C     0.93916   0.96872   0.49940   0.01267  Uiso   1.00
C92    C     0.81610   0.95800   0.46950   0.01267  Uiso   1.00
C93    C     0.70270   0.90420   0.47230   0.01267  Uiso   1.00
C94    C     0.98870   0.78140   0.39650   0.01267  Uiso   1.00
C95    C     0.89815   0.78870   0.35670   0.01267  Uiso   1.00
C96    C     0.79792   0.73144   0.32690   0.01267  Uiso   1.00
C97    C     0.79370   0.67140   0.34020   0.01267  Uiso   1.00
C98    C     0.89060   0.66960   0.38020   0.01267  Uiso   1.00
C99    C     0.59080   0.79080   0.22810   0.01267  Uiso   1.00
C100   C     0.66493   0.79206   0.27530   0.01267  Uiso   1.00
C101   C     0.70808   0.73396   0.28030   0.01267  Uiso   1.00
C102   C     0.66400   0.67820   0.23640   0.01267  Uiso   1.00
C103   C     0.58040   0.68060   0.19020   0.01267  Uiso   1.00
C104   C     0.14480   0.55620   0.41340   0.01267  Uiso   1.00
S1     S     0.43304   0.78534   0.95146   0.01267  Uiso   1.00
S2     S     0.65994   0.74740   0.05145   0.01267  Uiso   1.00
S3     S     0.35230   0.81572   0.09939   0.01267  Uiso   1.00
S4     S     0.31909   0.47818   0.88875   0.01267  Uiso   1.00
S5     S     0.64770   0.21466   0.54854   0.01267  Uiso   1.00
S6     S     0.91254   0.25260   0.44855   0.01267  Uiso   1.00
S7     S     0.53658   0.18428   0.40061   0.01267  Uiso   1.00
S8     S     0.84091   0.52182   0.61125   0.01267  Uiso   1.00
S9     S     0.56696   0.21466   0.04854   0.01267  Uiso   1.00
S10    S     0.34006   0.25260   0.94855   0.01267  Uiso   1.00
S11    S     0.64770   0.18428   0.90061   0.01267  Uiso   1.00
S12    S     0.68091   0.52182   0.11125   0.01267  Uiso   1.00
S13    S     0.35230   0.78534   0.45146   0.01267  Uiso   1.00
S14    S     0.08746   0.74740   0.55145   0.01267  Uiso   1.00
S15    S     0.46342   0.81572   0.59939   0.01267  Uiso   1.00
S16    S     0.15909   0.47818   0.38875   0.01267  Uiso   1.00
N1     N     0.10317   0.69454   0.98790   0.01267  Uiso   1.00
N2     N     0.65608   0.36116   0.91700   0.01267  Uiso   1.00
N3     N     0.14850   0.85960   0.00150   0.01267  Uiso   1.00
N4     N     0.73671   0.72362   0.90880   0.01267  Uiso   1.00
N5     N     0.18725   0.73750   0.68500   0.01267  Uiso   1.00
N6     N     0.47891   0.61022   0.93050   0.01267  Uiso   1.00
N7     N     0.40863   0.30546   0.51210   0.01267  Uiso   1.00
N8     N     0.29492   0.63884   0.58300   0.01267  Uiso   1.00
N9     N     0.28890   0.14040   0.49850   0.01267  Uiso   1.00
N10    N     0.01309   0.27638   0.59120   0.01267  Uiso   1.00
N11    N     0.44975   0.26250   0.81500   0.01267  Uiso   1.00
N12    N     0.86869   0.38978   0.56950   0.01267  Uiso   1.00
N13    N     0.89683   0.30546   0.01210   0.01267  Uiso   1.00
N14    N     0.34392   0.63884   0.08300   0.01267  Uiso   1.00
N15    N     0.85150   0.14040   0.99850   0.01267  Uiso   1.00
N16    N     0.26329   0.27638   0.09120   0.01267  Uiso   1.00
N17    N     0.81275   0.26250   0.31500   0.01267  Uiso   1.00
N18    N     0.52109   0.38978   0.06950   0.01267  Uiso   1.00
N19    N     0.59137   0.69454   0.48790   0.01267  Uiso   1.00
N20    N     0.70508   0.36116   0.41700   0.01267  Uiso   1.00
N21    N     0.71110   0.85960   0.50150   0.01267  Uiso   1.00
N22    N     0.98691   0.72362   0.40880   0.01267  Uiso   1.00
N23    N     0.55025   0.73750   0.18500   0.01267  Uiso   1.00
N24    N     0.13131   0.61022   0.43050   0.01267  Uiso   1.00
