data_image0
_cell_length_a       12.068
_cell_length_b       13.909
_cell_length_c       22.742
_cell_angle_alpha    95.902
_cell_angle_beta     104.964
_cell_angle_gamma    103.97

_symmetry_space_group_name_H-M    "P 1"
_symmetry_int_tables_number       1

loop_
  _symmetry_equiv_pos_as_xyz
  'x, y, z'

loop_
  _atom_site_label
  _atom_site_occupancy
  _atom_site_fract_x
  _atom_site_fract_y
  _atom_site_fract_z
  _atom_site_thermal_displace_type
  _atom_site_B_iso_or_equiv
  _atom_site_type_symbol
  Ag1      1.0000 0.31130  0.83225  0.93353  Biso   1.000  Ag
  N1       1.0000 0.53120  0.68990  0.57640  Biso   1.000  N
  Ag2      1.0000 0.51264  0.94278  0.07947  Biso   1.000  Ag
  C1       1.0000 0.24400  0.05900  0.52260  Biso   1.000  C
  H1       1.0000 0.29090  0.06890  0.49570  Biso   1.000  H
  Ag3      1.0000 0.81736  0.57572  0.44031  Biso   1.000  Ag
  C2       1.0000 0.77340  0.27210  0.34800  Biso   1.000  C
  H2       1.0000 0.80160  0.21910  0.36120  Biso   1.000  H
  Ag4      1.0000 0.14328  0.01634  0.85413  Biso   1.000  Ag
  N2       1.0000 0.97590  0.78990  0.49800  Biso   1.000  N
  C3       1.0000 0.21520  0.08030  0.01010  Biso   1.000  C
  Ag5      1.0000 0.97015  0.15706  0.30007  Biso   1.000  Ag
  N3       1.0000 0.90420  0.71640  0.56900  Biso   1.000  N
  Ag6      1.0000 0.39742  0.12121  0.17298  Biso   1.000  Ag
  N4       1.0000 0.25300  0.13000  0.56530  Biso   1.000  N
  C4       1.0000 0.68310  0.17360  0.24310  Biso   1.000  C
  C5       1.0000 0.10500  0.02730  0.60410  Biso   1.000  C
  H3       1.0000 0.05890  0.01750  0.63140  Biso   1.000  H
  N5       1.0000 0.96600  0.24870  0.01180  Biso   1.000  N
  C6       1.0000 0.65700  0.33800  0.27480  Biso   1.000  C
  H4       1.0000 0.60400  0.33170  0.23580  Biso   1.000  H
  N6       1.0000 0.52550  0.80500  0.02720  Biso   1.000  N
  C7       1.0000 0.13090  0.13950  0.01550  Biso   1.000  C
  N7       1.0000 0.45900  0.76740  0.96830  Biso   1.000  N
  C8       1.0000 0.07000  0.27300  0.05260  Biso   1.000  C
  H5       1.0000 0.08760  0.33150  0.08120  Biso   1.000  H
  N8       1.0000 0.72750  0.05940  0.18980  Biso   1.000  N
  N9       1.0000 0.61950  0.05910  0.16400  Biso   1.000  N
  N10      1.0000 0.77520  0.12820  0.24180  Biso   1.000  N
  N11      1.0000 0.86310  0.92890  0.83610  Biso   1.000  N
  N12      1.0000 0.30780  0.07890  0.05750  Biso   1.000  N
  C9       1.0000 0.50400  0.75500  0.61470  Biso   1.000  C
  H6       1.0000 0.43050  0.76870  0.60310  Biso   1.000  H
  N13      1.0000 0.35650  0.01070  0.03760  Biso   1.000  N
  C10      1.0000 0.63700  0.67280  0.59120  Biso   1.000  C
  H7       1.0000 0.65330  0.62630  0.56460  Biso   1.000  H
  N14      1.0000 0.94820  0.91850  0.81160  Biso   1.000  N
  C11      1.0000 0.68600  0.42700  0.31560  Biso   1.000  C
  H8       1.0000 0.65470  0.47950  0.30350  Biso   1.000  H
  C12      1.0000 0.58190  0.79970  0.66870  Biso   1.000  C
  H9       1.0000 0.55740  0.83730  0.69660  Biso   1.000  H
  N15      1.0000 0.76140  0.43880  0.37420  Biso   1.000  N
  N16      1.0000 0.58930  0.13120  0.19500  Biso   1.000  N
  C13      1.0000 0.72550  0.72310  0.64620  Biso   1.000  C
  H10      1.0000 0.79960  0.71020  0.65620  Biso   1.000  H
  N17      1.0000 0.75970  0.88340  0.79360  Biso   1.000  N
  C14      1.0000 0.15600  0.22510  0.05920  Biso   1.000  C
  H11      1.0000 0.22730  0.24790  0.09100  Biso   1.000  H
  N18      1.0000 0.90730  0.70990  0.50950  Biso   1.000  N
  C15      1.0000 0.93890  0.16310  0.97210  Biso   1.000  C
  H12      1.0000 0.86260  0.14050  0.94430  Biso   1.000  H
  N19      1.0000 0.30160  0.97770  0.97940  Biso   1.000  N
  C16      1.0000 0.70090  0.25870  0.28840  Biso   1.000  C
  N20      1.0000 0.90090  0.86290  0.75400  Biso   1.000  N
  C17      1.0000 0.80530  0.36040  0.38840  Biso   1.000  C
  H13      1.0000 0.85910  0.36710  0.42710  Biso   1.000  H
  N21      1.0000 0.20720  0.01750  0.96160  Biso   1.000  N
  C18      1.0000 0.09820  0.95300  0.55720  Biso   1.000  C
  N22      1.0000 0.97810  0.80740  0.59550  Biso   1.000  N
  C19      1.0000 0.01580  0.84890  0.55210  Biso   1.000  C
  C20      1.0000 0.01630  0.10670  0.97010  Biso   1.000  C
  H14      1.0000 0.99550  0.04920  0.94030  Biso   1.000  H
  C21      1.0000 0.16100  0.96640  0.51790  Biso   1.000  C
  H15      1.0000 0.15030  0.91360  0.48650  Biso   1.000  H
  C22      1.0000 0.19000  0.12200  0.60670  Biso   1.000  C
  H16      1.0000 0.20150  0.17750  0.63660  Biso   1.000  H
  C23      1.0000 0.70030  0.79320  0.68600  Biso   1.000  C
  C24      1.0000 0.78350  0.84190  0.74380  Biso   1.000  C
  N23      1.0000 0.60220  0.74980  0.04550  Biso   1.000  N
  N24      1.0000 0.48820  0.68800  0.94930  Biso   1.000  N
  C25      1.0000 0.57100  0.67700  0.99640  Biso   1.000  C
  C26      1.0000 0.62800  0.59800  0.99430  Biso   1.000  C
  C27      1.0000 0.59700  0.51970  0.94710  Biso   1.000  C
  H17      1.0000 0.53860  0.52030  0.91160  Biso   1.000  H
  C28      1.0000 0.71900  0.59700  0.04540  Biso   1.000  C
  H18      1.0000 0.74420  0.64660  0.08060  Biso   1.000  H
  C29      1.0000 0.64500  0.44010  0.94700  Biso   1.000  C
  H19      1.0000 0.61550  0.38660  0.91390  Biso   1.000  H
  C30      1.0000 0.77000  0.51800  0.04070  Biso   1.000  C
  H20      1.0000 0.83670  0.52230  0.07350  Biso   1.000  H
  N25      1.0000 0.74000  0.44110  0.99770  Biso   1.000  N
  Ag7      1.0000 0.84607  0.33904  0.00332  Biso   1.000  Ag
  Ag8      1.0000 0.68870  0.16775  0.06647  Biso   1.000  Ag
  N26      1.0000 0.46880  0.31010  0.42360  Biso   1.000  N
  Ag9      1.0000 0.48736  0.05722  0.92053  Biso   1.000  Ag
  C31      1.0000 0.75600  0.94100  0.47740  Biso   1.000  C
  H21      1.0000 0.70910  0.93110  0.50430  Biso   1.000  H
  Ag10     1.0000 0.18264  0.42428  0.55969  Biso   1.000  Ag
  C32      1.0000 0.22660  0.72790  0.65200  Biso   1.000  C
  H22      1.0000 0.19840  0.78090  0.63880  Biso   1.000  H
  Ag11     1.0000 0.85672  0.98366  0.14587  Biso   1.000  Ag
  N27      1.0000 0.02410  0.21010  0.50200  Biso   1.000  N
  C33      1.0000 0.78480  0.91970  0.98990  Biso   1.000  C
  Ag12     1.0000 0.02985  0.84294  0.69993  Biso   1.000  Ag
  N28      1.0000 0.09580  0.28360  0.43100  Biso   1.000  N
  Ag13     1.0000 0.60258  0.87879  0.82702  Biso   1.000  Ag
  N29      1.0000 0.74700  0.87000  0.43470  Biso   1.000  N
  C34      1.0000 0.31690  0.82640  0.75690  Biso   1.000  C
  C35      1.0000 0.89500  0.97270  0.39590  Biso   1.000  C
  H23      1.0000 0.94110  0.98250  0.36860  Biso   1.000  H
  N30      1.0000 0.03400  0.75130  0.98820  Biso   1.000  N
  C36      1.0000 0.34300  0.66200  0.72520  Biso   1.000  C
  H24      1.0000 0.39600  0.66830  0.76420  Biso   1.000  H
  N31      1.0000 0.47450  0.19500  0.97280  Biso   1.000  N
  C37      1.0000 0.86910  0.86050  0.98450  Biso   1.000  C
  N32      1.0000 0.54100  0.23260  0.03170  Biso   1.000  N
  C38      1.0000 0.93000  0.72700  0.94740  Biso   1.000  C
  H25      1.0000 0.91240  0.66850  0.91880  Biso   1.000  H
  N33      1.0000 0.27250  0.94060  0.81020  Biso   1.000  N
  N34      1.0000 0.38050  0.94090  0.83600  Biso   1.000  N
  N35      1.0000 0.22480  0.87180  0.75820  Biso   1.000  N
  N36      1.0000 0.13690  0.07110  0.16390  Biso   1.000  N
  N37      1.0000 0.69220  0.92110  0.94250  Biso   1.000  N
  C39      1.0000 0.49600  0.24500  0.38530  Biso   1.000  C
  H26      1.0000 0.56950  0.23130  0.39690  Biso   1.000  H
  N38      1.0000 0.64350  0.98930  0.96240  Biso   1.000  N
  C40      1.0000 0.36300  0.32720  0.40880  Biso   1.000  C
  H27      1.0000 0.34670  0.37370  0.43540  Biso   1.000  H
  N39      1.0000 0.05180  0.08150  0.18840  Biso   1.000  N
  C41      1.0000 0.31400  0.57300  0.68440  Biso   1.000  C
  H28      1.0000 0.34530  0.52050  0.69650  Biso   1.000  H
  C42      1.0000 0.41810  0.20030  0.33130  Biso   1.000  C
  H29      1.0000 0.44260  0.16270  0.30340  Biso   1.000  H
  N40      1.0000 0.23860  0.56120  0.62580  Biso   1.000  N
  N41      1.0000 0.41070  0.86880  0.80500  Biso   1.000  N
  C43      1.0000 0.27450  0.27690  0.35380  Biso   1.000  C
  H30      1.0000 0.20040  0.28980  0.34380  Biso   1.000  H
  N42      1.0000 0.24030  0.11660  0.20640  Biso   1.000  N
  C44      1.0000 0.84400  0.77490  0.94080  Biso   1.000  C
  H31      1.0000 0.77270  0.75210  0.90900  Biso   1.000  H
  N43      1.0000 0.09270  0.29010  0.49050  Biso   1.000  N
  C45      1.0000 0.06110  0.83690  0.02790  Biso   1.000  C
  H32      1.0000 0.13740  0.85950  0.05570  Biso   1.000  H
  N44      1.0000 0.69840  0.02230  0.02060  Biso   1.000  N
  C46      1.0000 0.29910  0.74130  0.71160  Biso   1.000  C
  N45      1.0000 0.09910  0.13710  0.24600  Biso   1.000  N
  C47      1.0000 0.19470  0.63960  0.61160  Biso   1.000  C
  H33      1.0000 0.14090  0.63290  0.57290  Biso   1.000  H
  N46      1.0000 0.79280  0.98250  0.03840  Biso   1.000  N
  C48      1.0000 0.90180  0.04700  0.44280  Biso   1.000  C
  N47      1.0000 0.02190  0.19260  0.40450  Biso   1.000  N
  C49      1.0000 0.98420  0.15110  0.44790  Biso   1.000  C
  C50      1.0000 0.98370  0.89330  0.02990  Biso   1.000  C
  H34      1.0000 0.00450  0.95080  0.05970  Biso   1.000  H
  C51      1.0000 0.83900  0.03360  0.48210  Biso   1.000  C
  H35      1.0000 0.84970  0.08640  0.51350  Biso   1.000  H
  C52      1.0000 0.81000  0.87800  0.39330  Biso   1.000  C
  H36      1.0000 0.79850  0.82250  0.36340  Biso   1.000  H
  C53      1.0000 0.29970  0.20680  0.31400  Biso   1.000  C
  C54      1.0000 0.21650  0.15810  0.25620  Biso   1.000  C
  N48      1.0000 0.39780  0.25020  0.95450  Biso   1.000  N
  N49      1.0000 0.51180  0.31200  0.05070  Biso   1.000  N
  C55      1.0000 0.42900  0.32300  0.00360  Biso   1.000  C
  C56      1.0000 0.37200  0.40200  0.00570  Biso   1.000  C
  C57      1.0000 0.40300  0.48030  0.05290  Biso   1.000  C
  H37      1.0000 0.46140  0.47970  0.08840  Biso   1.000  H
  C58      1.0000 0.28100  0.40300  0.95460  Biso   1.000  C
  H38      1.0000 0.25580  0.35340  0.91940  Biso   1.000  H
  C59      1.0000 0.35500  0.55990  0.05300  Biso   1.000  C
  H39      1.0000 0.38450  0.61340  0.08610  Biso   1.000  H
  C60      1.0000 0.23000  0.48200  0.95930  Biso   1.000  C
  H40      1.0000 0.16330  0.47770  0.92650  Biso   1.000  H
  N50      1.0000 0.26000  0.55890  0.00230  Biso   1.000  N
  Ag14     1.0000 0.15393  0.66096  0.99668  Biso   1.000  Ag
