data_image0
_cell_length_a       27.9927
_cell_length_b       13.9755
_cell_length_c       22.6184
_cell_angle_alpha    90
_cell_angle_beta     99.5272
_cell_angle_gamma    90

_symmetry_space_group_name_H-M    "P 1"
_symmetry_int_tables_number       1

loop_
  _symmetry_equiv_pos_as_xyz
  'x, y, z'

loop_
  _atom_site_label
  _atom_site_occupancy
  _atom_site_fract_x
  _atom_site_fract_y
  _atom_site_fract_z
  _atom_site_thermal_displace_type
  _atom_site_B_iso_or_equiv
  _atom_site_type_symbol
  Tb1      1.0000 0.03293  0.87657  0.04300  Biso   1.000  Tb
  Zn1      1.0000 0.26291  0.87943  0.35197  Biso   1.000  Zn
  C1       1.0000 0.19423  0.10060  0.23299  Biso   1.000  C
  H1       1.0000 0.19990  0.15900  0.22600  Biso   1.000  H
  O1       1.0000 0.07987  0.94562  0.13000  Biso   1.000  O
  O2       1.0000 0.08677  0.02548  0.40892  Biso   1.000  O
  O3       1.0000 0.99979  0.03716  0.05690  Biso   1.000  O
  C2       1.0000 0.15376  0.05880  0.20012  Biso   1.000  C
  H2       1.0000 0.13390  0.09300  0.16810  Biso   1.000  H
  O4       1.0000 0.43006  0.66354  0.41753  Biso   1.000  O
  N1       1.0000 0.22613  0.91557  0.42644  Biso   1.000  N
  O5       1.0000 0.07725  0.85621  0.21170  Biso   1.000  O
  C3       1.0000 0.16009  0.97715  0.46942  Biso   1.000  C
  N2       1.0000 0.21248  0.95600  0.28805  Biso   1.000  N
  C4       1.0000 0.24951  0.89119  0.48142  Biso   1.000  C
  O6       1.0000 0.40160  0.13885  0.48366  Biso   1.000  O
  O7       1.0000 0.45085  0.65797  0.51765  Biso   1.000  O
  N3       1.0000 0.31120  0.83090  0.42889  Biso   1.000  N
  C5       1.0000 0.29698  0.84302  0.48274  Biso   1.000  C
  C6       1.0000 0.18432  0.95276  0.52659  Biso   1.000  C
  H3       1.0000 0.17000  0.97270  0.56190  Biso   1.000  H
  C7       1.0000 0.36718  0.76048  0.53193  Biso   1.000  C
  H4       1.0000 0.38350  0.73450  0.56260  Biso   1.000  H
  C8       1.0000 0.11071  0.02278  0.46099  Biso   1.000  C
  C9       1.0000 0.42413  0.68404  0.46934  Biso   1.000  C
  N4       1.0000 0.29045  0.02769  0.35722  Biso   1.000  N
  O8       1.0000 0.40844  0.26276  0.42327  Biso   1.000  O
  O9       1.0000 0.09737  0.05455  0.50737  Biso   1.000  O
  C10      1.0000 0.38894  0.18700  0.43760  Biso   1.000  C
  C11      1.0000 0.32861  0.06070  0.39460  Biso   1.000  C
  H5       1.0000 0.34090  0.02400  0.41670  Biso   1.000  H
  C12      1.0000 0.38054  0.74374  0.47658  Biso   1.000  C
  C13      1.0000 0.18250  0.95652  0.42143  Biso   1.000  C
  H6       1.0000 0.16800  0.97410  0.38310  Biso   1.000  H
  C14      1.0000 0.17229  0.91743  0.25743  Biso   1.000  C
  H7       1.0000 0.16560  0.85300  0.26820  Biso   1.000  H
  C15      1.0000 0.35176  0.78153  0.42659  Biso   1.000  C
  H8       1.0000 0.36210  0.76970  0.39220  Biso   1.000  H
  C16      1.0000 0.22898  0.90842  0.53228  Biso   1.000  C
  H9       1.0000 0.24610  0.88740  0.57160  Biso   1.000  H
  C17      1.0000 0.09568  0.91883  0.18257  Biso   1.000  C
  C18      1.0000 0.26622  0.08870  0.31704  Biso   1.000  C
  C19      1.0000 0.14124  0.96606  0.21360  Biso   1.000  C
  C20      1.0000 0.32494  0.80975  0.53512  Biso   1.000  C
  H10      1.0000 0.31400  0.81330  0.56960  Biso   1.000  H
  C21      1.0000 0.22288  0.04810  0.27753  Biso   1.000  C
  Cl1      1.0000 0.22453  0.72885  0.33420  Biso   1.000  Cl
  C22      1.0000 0.34540  0.15320  0.39421  Biso   1.000  C
  C23      1.0000 0.28054  0.18220  0.31349  Biso   1.000  C
  H11      1.0000 0.26620  0.22400  0.29150  Biso   1.000  H
  C24      1.0000 0.32078  0.21420  0.35171  Biso   1.000  C
  H12      1.0000 0.33080  0.27100  0.35000  Biso   1.000  H
  H13      1.0000 0.97860  0.04200  0.07760  Biso   1.000  H
  H14      1.0000 0.02280  0.07700  0.07470  Biso   1.000  H
  Tb2      1.0000 0.53293  0.37657  0.04300  Biso   1.000  Tb
  Zn2      1.0000 0.76291  0.37943  0.35197  Biso   1.000  Zn
  C25      1.0000 0.69423  0.60060  0.23299  Biso   1.000  C
  H15      1.0000 0.69990  0.65900  0.22600  Biso   1.000  H
  O10      1.0000 0.57987  0.44562  0.13000  Biso   1.000  O
  O11      1.0000 0.58677  0.52548  0.40892  Biso   1.000  O
  O12      1.0000 0.49979  0.53716  0.05690  Biso   1.000  O
  C26      1.0000 0.65376  0.55880  0.20012  Biso   1.000  C
  H16      1.0000 0.63390  0.59300  0.16810  Biso   1.000  H
  O13      1.0000 0.93006  0.16354  0.41753  Biso   1.000  O
  N5       1.0000 0.72613  0.41557  0.42644  Biso   1.000  N
  O14      1.0000 0.57725  0.35621  0.21170  Biso   1.000  O
  C27      1.0000 0.66009  0.47715  0.46942  Biso   1.000  C
  N6       1.0000 0.71248  0.45600  0.28805  Biso   1.000  N
  C28      1.0000 0.74951  0.39119  0.48142  Biso   1.000  C
  O15      1.0000 0.90160  0.63885  0.48366  Biso   1.000  O
  O16      1.0000 0.95085  0.15797  0.51765  Biso   1.000  O
  N7       1.0000 0.81120  0.33090  0.42889  Biso   1.000  N
  C29      1.0000 0.79698  0.34302  0.48274  Biso   1.000  C
  C30      1.0000 0.68432  0.45276  0.52659  Biso   1.000  C
  H17      1.0000 0.67000  0.47270  0.56190  Biso   1.000  H
  C31      1.0000 0.86718  0.26048  0.53193  Biso   1.000  C
  H18      1.0000 0.88350  0.23450  0.56260  Biso   1.000  H
  C32      1.0000 0.61071  0.52278  0.46099  Biso   1.000  C
  C33      1.0000 0.92413  0.18404  0.46934  Biso   1.000  C
  N8       1.0000 0.79045  0.52769  0.35722  Biso   1.000  N
  O17      1.0000 0.90844  0.76276  0.42327  Biso   1.000  O
  O18      1.0000 0.59737  0.55455  0.50737  Biso   1.000  O
  C34      1.0000 0.88894  0.68700  0.43760  Biso   1.000  C
  C35      1.0000 0.82861  0.56070  0.39460  Biso   1.000  C
  H19      1.0000 0.84090  0.52400  0.41670  Biso   1.000  H
  C36      1.0000 0.88054  0.24374  0.47658  Biso   1.000  C
  C37      1.0000 0.68250  0.45652  0.42143  Biso   1.000  C
  H20      1.0000 0.66800  0.47410  0.38310  Biso   1.000  H
  C38      1.0000 0.67229  0.41743  0.25743  Biso   1.000  C
  H21      1.0000 0.66560  0.35300  0.26820  Biso   1.000  H
  C39      1.0000 0.85176  0.28153  0.42659  Biso   1.000  C
  H22      1.0000 0.86210  0.26970  0.39220  Biso   1.000  H
  C40      1.0000 0.72898  0.40842  0.53228  Biso   1.000  C
  H23      1.0000 0.74610  0.38740  0.57160  Biso   1.000  H
  C41      1.0000 0.59568  0.41883  0.18257  Biso   1.000  C
  C42      1.0000 0.76622  0.58870  0.31704  Biso   1.000  C
  C43      1.0000 0.64124  0.46606  0.21360  Biso   1.000  C
  C44      1.0000 0.82494  0.30975  0.53512  Biso   1.000  C
  H24      1.0000 0.81400  0.31330  0.56960  Biso   1.000  H
  C45      1.0000 0.72288  0.54810  0.27753  Biso   1.000  C
  Cl2      1.0000 0.72453  0.22885  0.33420  Biso   1.000  Cl
  C46      1.0000 0.84540  0.65320  0.39421  Biso   1.000  C
  C47      1.0000 0.78054  0.68220  0.31349  Biso   1.000  C
  H25      1.0000 0.76620  0.72400  0.29150  Biso   1.000  H
  C48      1.0000 0.82078  0.71420  0.35171  Biso   1.000  C
  H26      1.0000 0.83080  0.77100  0.35000  Biso   1.000  H
  H27      1.0000 0.47860  0.54200  0.07760  Biso   1.000  H
  H28      1.0000 0.52280  0.57700  0.07470  Biso   1.000  H
  Tb3      1.0000 0.96707  0.87657  0.45700  Biso   1.000  Tb
  Zn3      1.0000 0.73709  0.87943  0.14803  Biso   1.000  Zn
  C49      1.0000 0.80577  0.10060  0.26701  Biso   1.000  C
  H29      1.0000 0.80010  0.15900  0.27400  Biso   1.000  H
  O19      1.0000 0.92013  0.94562  0.37000  Biso   1.000  O
  O20      1.0000 0.91323  0.02548  0.09108  Biso   1.000  O
  O21      1.0000 0.00021  0.03716  0.44310  Biso   1.000  O
  C50      1.0000 0.84624  0.05880  0.29988  Biso   1.000  C
  H30      1.0000 0.86610  0.09300  0.33190  Biso   1.000  H
  O22      1.0000 0.56994  0.66354  0.08247  Biso   1.000  O
  N9       1.0000 0.77387  0.91557  0.07356  Biso   1.000  N
  O23      1.0000 0.92275  0.85621  0.28830  Biso   1.000  O
  C51      1.0000 0.83991  0.97715  0.03058  Biso   1.000  C
  N10      1.0000 0.78752  0.95600  0.21195  Biso   1.000  N
  C52      1.0000 0.75049  0.89119  0.01858  Biso   1.000  C
  O24      1.0000 0.59840  0.13885  0.01634  Biso   1.000  O
  O25      1.0000 0.54915  0.65797  0.98235  Biso   1.000  O
  N11      1.0000 0.68880  0.83090  0.07111  Biso   1.000  N
  C53      1.0000 0.70302  0.84302  0.01726  Biso   1.000  C
  C54      1.0000 0.81568  0.95276  0.97341  Biso   1.000  C
  H31      1.0000 0.83000  0.97270  0.93810  Biso   1.000  H
  C55      1.0000 0.63282  0.76048  0.96807  Biso   1.000  C
  H32      1.0000 0.61650  0.73450  0.93740  Biso   1.000  H
  C56      1.0000 0.88929  0.02278  0.03901  Biso   1.000  C
  C57      1.0000 0.57587  0.68404  0.03066  Biso   1.000  C
  N12      1.0000 0.70955  0.02769  0.14278  Biso   1.000  N
  O26      1.0000 0.59156  0.26276  0.07673  Biso   1.000  O
  O27      1.0000 0.90263  0.05455  0.99263  Biso   1.000  O
  C58      1.0000 0.61106  0.18700  0.06240  Biso   1.000  C
  C59      1.0000 0.67139  0.06070  0.10540  Biso   1.000  C
  H33      1.0000 0.65910  0.02400  0.08330  Biso   1.000  H
  C60      1.0000 0.61946  0.74374  0.02342  Biso   1.000  C
  C61      1.0000 0.81750  0.95652  0.07857  Biso   1.000  C
  H34      1.0000 0.83200  0.97410  0.11690  Biso   1.000  H
  C62      1.0000 0.82771  0.91743  0.24257  Biso   1.000  C
  H35      1.0000 0.83440  0.85300  0.23180  Biso   1.000  H
  C63      1.0000 0.64824  0.78153  0.07341  Biso   1.000  C
  H36      1.0000 0.63790  0.76970  0.10780  Biso   1.000  H
  C64      1.0000 0.77102  0.90842  0.96772  Biso   1.000  C
  H37      1.0000 0.75390  0.88740  0.92840  Biso   1.000  H
  C65      1.0000 0.90432  0.91883  0.31743  Biso   1.000  C
  C66      1.0000 0.73378  0.08870  0.18296  Biso   1.000  C
  C67      1.0000 0.85876  0.96606  0.28640  Biso   1.000  C
  C68      1.0000 0.67506  0.80975  0.96488  Biso   1.000  C
  H38      1.0000 0.68600  0.81330  0.93040  Biso   1.000  H
  C69      1.0000 0.77712  0.04810  0.22247  Biso   1.000  C
  Cl3      1.0000 0.77547  0.72885  0.16580  Biso   1.000  Cl
  C70      1.0000 0.65460  0.15320  0.10579  Biso   1.000  C
  C71      1.0000 0.71946  0.18220  0.18651  Biso   1.000  C
  H39      1.0000 0.73380  0.22400  0.20850  Biso   1.000  H
  C72      1.0000 0.67922  0.21420  0.14829  Biso   1.000  C
  H40      1.0000 0.66920  0.27100  0.15000  Biso   1.000  H
  H41      1.0000 0.02140  0.04200  0.42240  Biso   1.000  H
  H42      1.0000 0.97720  0.07700  0.42530  Biso   1.000  H
  Tb4      1.0000 0.46707  0.37657  0.45700  Biso   1.000  Tb
  Zn4      1.0000 0.23709  0.37943  0.14803  Biso   1.000  Zn
  C73      1.0000 0.30577  0.60060  0.26701  Biso   1.000  C
  H43      1.0000 0.30010  0.65900  0.27400  Biso   1.000  H
  O28      1.0000 0.42013  0.44562  0.37000  Biso   1.000  O
  O29      1.0000 0.41323  0.52548  0.09108  Biso   1.000  O
  O30      1.0000 0.50021  0.53716  0.44310  Biso   1.000  O
  C74      1.0000 0.34624  0.55880  0.29988  Biso   1.000  C
  H44      1.0000 0.36610  0.59300  0.33190  Biso   1.000  H
  O31      1.0000 0.06994  0.16354  0.08247  Biso   1.000  O
  N13      1.0000 0.27387  0.41557  0.07356  Biso   1.000  N
  O32      1.0000 0.42275  0.35621  0.28830  Biso   1.000  O
  C75      1.0000 0.33991  0.47715  0.03058  Biso   1.000  C
  N14      1.0000 0.28752  0.45600  0.21195  Biso   1.000  N
  C76      1.0000 0.25049  0.39119  0.01858  Biso   1.000  C
  O33      1.0000 0.09840  0.63885  0.01634  Biso   1.000  O
  O34      1.0000 0.04915  0.15797  0.98235  Biso   1.000  O
  N15      1.0000 0.18880  0.33090  0.07111  Biso   1.000  N
  C77      1.0000 0.20302  0.34302  0.01726  Biso   1.000  C
  C78      1.0000 0.31568  0.45276  0.97341  Biso   1.000  C
  H45      1.0000 0.33000  0.47270  0.93810  Biso   1.000  H
  C79      1.0000 0.13282  0.26048  0.96807  Biso   1.000  C
  H46      1.0000 0.11650  0.23450  0.93740  Biso   1.000  H
  C80      1.0000 0.38929  0.52278  0.03901  Biso   1.000  C
  C81      1.0000 0.07587  0.18404  0.03066  Biso   1.000  C
  N16      1.0000 0.20955  0.52769  0.14278  Biso   1.000  N
  O35      1.0000 0.09156  0.76276  0.07673  Biso   1.000  O
  O36      1.0000 0.40263  0.55455  0.99263  Biso   1.000  O
  C82      1.0000 0.11106  0.68700  0.06240  Biso   1.000  C
  C83      1.0000 0.17139  0.56070  0.10540  Biso   1.000  C
  H47      1.0000 0.15910  0.52400  0.08330  Biso   1.000  H
  C84      1.0000 0.11946  0.24374  0.02342  Biso   1.000  C
  C85      1.0000 0.31750  0.45652  0.07857  Biso   1.000  C
  H48      1.0000 0.33200  0.47410  0.11690  Biso   1.000  H
  C86      1.0000 0.32771  0.41743  0.24257  Biso   1.000  C
  H49      1.0000 0.33440  0.35300  0.23180  Biso   1.000  H
  C87      1.0000 0.14824  0.28153  0.07341  Biso   1.000  C
  H50      1.0000 0.13790  0.26970  0.10780  Biso   1.000  H
  C88      1.0000 0.27102  0.40842  0.96772  Biso   1.000  C
  H51      1.0000 0.25390  0.38740  0.92840  Biso   1.000  H
  C89      1.0000 0.40432  0.41883  0.31743  Biso   1.000  C
  C90      1.0000 0.23378  0.58870  0.18296  Biso   1.000  C
  C91      1.0000 0.35876  0.46606  0.28640  Biso   1.000  C
  C92      1.0000 0.17506  0.30975  0.96488  Biso   1.000  C
  H52      1.0000 0.18600  0.31330  0.93040  Biso   1.000  H
  C93      1.0000 0.27712  0.54810  0.22247  Biso   1.000  C
  Cl4      1.0000 0.27547  0.22885  0.16580  Biso   1.000  Cl
  C94      1.0000 0.15460  0.65320  0.10579  Biso   1.000  C
  C95      1.0000 0.21946  0.68220  0.18651  Biso   1.000  C
  H53      1.0000 0.23380  0.72400  0.20850  Biso   1.000  H
  C96      1.0000 0.17922  0.71420  0.14829  Biso   1.000  C
  H54      1.0000 0.16920  0.77100  0.15000  Biso   1.000  H
  H55      1.0000 0.52140  0.54200  0.42240  Biso   1.000  H
  H56      1.0000 0.47720  0.57700  0.42530  Biso   1.000  H
  Tb5      1.0000 0.96707  0.12343  0.95700  Biso   1.000  Tb
  Zn5      1.0000 0.73709  0.12057  0.64803  Biso   1.000  Zn
  C97      1.0000 0.80577  0.89940  0.76701  Biso   1.000  C
  H57      1.0000 0.80010  0.84100  0.77400  Biso   1.000  H
  O37      1.0000 0.92013  0.05438  0.87000  Biso   1.000  O
  O38      1.0000 0.91323  0.97452  0.59108  Biso   1.000  O
  O39      1.0000 0.00021  0.96284  0.94310  Biso   1.000  O
  C98      1.0000 0.84624  0.94120  0.79988  Biso   1.000  C
  H58      1.0000 0.86610  0.90700  0.83190  Biso   1.000  H
  O40      1.0000 0.56994  0.33646  0.58247  Biso   1.000  O
  N17      1.0000 0.77387  0.08443  0.57356  Biso   1.000  N
  O41      1.0000 0.92275  0.14379  0.78830  Biso   1.000  O
  C99      1.0000 0.83991  0.02285  0.53058  Biso   1.000  C
  N18      1.0000 0.78752  0.04400  0.71195  Biso   1.000  N
  C100     1.0000 0.75049  0.10881  0.51858  Biso   1.000  C
  O42      1.0000 0.59840  0.86115  0.51634  Biso   1.000  O
  O43      1.0000 0.54915  0.34203  0.48235  Biso   1.000  O
  N19      1.0000 0.68880  0.16910  0.57111  Biso   1.000  N
  C101     1.0000 0.70302  0.15698  0.51726  Biso   1.000  C
  C102     1.0000 0.81568  0.04724  0.47341  Biso   1.000  C
  H59      1.0000 0.83000  0.02730  0.43810  Biso   1.000  H
  C103     1.0000 0.63282  0.23952  0.46807  Biso   1.000  C
  H60      1.0000 0.61650  0.26550  0.43740  Biso   1.000  H
  C104     1.0000 0.88929  0.97722  0.53901  Biso   1.000  C
  C105     1.0000 0.57587  0.31596  0.53066  Biso   1.000  C
  N20      1.0000 0.70955  0.97231  0.64278  Biso   1.000  N
  O44      1.0000 0.59156  0.73724  0.57673  Biso   1.000  O
  O45      1.0000 0.90263  0.94545  0.49263  Biso   1.000  O
  C106     1.0000 0.61106  0.81300  0.56240  Biso   1.000  C
  C107     1.0000 0.67139  0.93930  0.60540  Biso   1.000  C
  H61      1.0000 0.65910  0.97600  0.58330  Biso   1.000  H
  C108     1.0000 0.61946  0.25626  0.52342  Biso   1.000  C
  C109     1.0000 0.81750  0.04348  0.57857  Biso   1.000  C
  H62      1.0000 0.83200  0.02590  0.61690  Biso   1.000  H
  C110     1.0000 0.82771  0.08257  0.74257  Biso   1.000  C
  H63      1.0000 0.83440  0.14700  0.73180  Biso   1.000  H
  C111     1.0000 0.64824  0.21847  0.57341  Biso   1.000  C
  H64      1.0000 0.63790  0.23030  0.60780  Biso   1.000  H
  C112     1.0000 0.77102  0.09158  0.46772  Biso   1.000  C
  H65      1.0000 0.75390  0.11260  0.42840  Biso   1.000  H
  C113     1.0000 0.90432  0.08117  0.81743  Biso   1.000  C
  C114     1.0000 0.73378  0.91130  0.68296  Biso   1.000  C
  C115     1.0000 0.85876  0.03394  0.78640  Biso   1.000  C
  C116     1.0000 0.67506  0.19025  0.46488  Biso   1.000  C
  H66      1.0000 0.68600  0.18670  0.43040  Biso   1.000  H
  C117     1.0000 0.77712  0.95190  0.72247  Biso   1.000  C
  Cl5      1.0000 0.77547  0.27115  0.66580  Biso   1.000  Cl
  C118     1.0000 0.65460  0.84680  0.60579  Biso   1.000  C
  C119     1.0000 0.71946  0.81780  0.68651  Biso   1.000  C
  H67      1.0000 0.73380  0.77600  0.70850  Biso   1.000  H
  C120     1.0000 0.67922  0.78580  0.64829  Biso   1.000  C
  H68      1.0000 0.66920  0.72900  0.65000  Biso   1.000  H
  H69      1.0000 0.02140  0.95800  0.92240  Biso   1.000  H
  H70      1.0000 0.97720  0.92300  0.92530  Biso   1.000  H
  Tb6      1.0000 0.46707  0.62343  0.95700  Biso   1.000  Tb
  Zn6      1.0000 0.23709  0.62057  0.64803  Biso   1.000  Zn
  C121     1.0000 0.30577  0.39940  0.76701  Biso   1.000  C
  H71      1.0000 0.30010  0.34100  0.77400  Biso   1.000  H
  O46      1.0000 0.42013  0.55438  0.87000  Biso   1.000  O
  O47      1.0000 0.41323  0.47452  0.59108  Biso   1.000  O
  O48      1.0000 0.50021  0.46284  0.94310  Biso   1.000  O
  C122     1.0000 0.34624  0.44120  0.79988  Biso   1.000  C
  H72      1.0000 0.36610  0.40700  0.83190  Biso   1.000  H
  O49      1.0000 0.06994  0.83646  0.58247  Biso   1.000  O
  N21      1.0000 0.27387  0.58443  0.57356  Biso   1.000  N
  O50      1.0000 0.42275  0.64379  0.78830  Biso   1.000  O
  C123     1.0000 0.33991  0.52285  0.53058  Biso   1.000  C
  N22      1.0000 0.28752  0.54400  0.71195  Biso   1.000  N
  C124     1.0000 0.25049  0.60881  0.51858  Biso   1.000  C
  O51      1.0000 0.09840  0.36115  0.51634  Biso   1.000  O
  O52      1.0000 0.04915  0.84203  0.48235  Biso   1.000  O
  N23      1.0000 0.18880  0.66910  0.57111  Biso   1.000  N
  C125     1.0000 0.20302  0.65698  0.51726  Biso   1.000  C
  C126     1.0000 0.31568  0.54724  0.47341  Biso   1.000  C
  H73      1.0000 0.33000  0.52730  0.43810  Biso   1.000  H
  C127     1.0000 0.13282  0.73952  0.46807  Biso   1.000  C
  H74      1.0000 0.11650  0.76550  0.43740  Biso   1.000  H
  C128     1.0000 0.38929  0.47722  0.53901  Biso   1.000  C
  C129     1.0000 0.07587  0.81596  0.53066  Biso   1.000  C
  N24      1.0000 0.20955  0.47231  0.64278  Biso   1.000  N
  O53      1.0000 0.09156  0.23724  0.57673  Biso   1.000  O
  O54      1.0000 0.40263  0.44545  0.49263  Biso   1.000  O
  C130     1.0000 0.11106  0.31300  0.56240  Biso   1.000  C
  C131     1.0000 0.17139  0.43930  0.60540  Biso   1.000  C
  H75      1.0000 0.15910  0.47600  0.58330  Biso   1.000  H
  C132     1.0000 0.11946  0.75626  0.52342  Biso   1.000  C
  C133     1.0000 0.31750  0.54348  0.57857  Biso   1.000  C
  H76      1.0000 0.33200  0.52590  0.61690  Biso   1.000  H
  C134     1.0000 0.32771  0.58257  0.74257  Biso   1.000  C
  H77      1.0000 0.33440  0.64700  0.73180  Biso   1.000  H
  C135     1.0000 0.14824  0.71847  0.57341  Biso   1.000  C
  H78      1.0000 0.13790  0.73030  0.60780  Biso   1.000  H
  C136     1.0000 0.27102  0.59158  0.46772  Biso   1.000  C
  H79      1.0000 0.25390  0.61260  0.42840  Biso   1.000  H
  C137     1.0000 0.40432  0.58117  0.81743  Biso   1.000  C
  C138     1.0000 0.23378  0.41130  0.68296  Biso   1.000  C
  C139     1.0000 0.35876  0.53394  0.78640  Biso   1.000  C
  C140     1.0000 0.17506  0.69025  0.46488  Biso   1.000  C
  H80      1.0000 0.18600  0.68670  0.43040  Biso   1.000  H
  C141     1.0000 0.27712  0.45190  0.72247  Biso   1.000  C
  Cl6      1.0000 0.27547  0.77115  0.66580  Biso   1.000  Cl
  C142     1.0000 0.15460  0.34680  0.60579  Biso   1.000  C
  C143     1.0000 0.21946  0.31780  0.68651  Biso   1.000  C
  H81      1.0000 0.23380  0.27600  0.70850  Biso   1.000  H
  C144     1.0000 0.17922  0.28580  0.64829  Biso   1.000  C
  H82      1.0000 0.16920  0.22900  0.65000  Biso   1.000  H
  H83      1.0000 0.52140  0.45800  0.92240  Biso   1.000  H
  H84      1.0000 0.47720  0.42300  0.92530  Biso   1.000  H
  Tb7      1.0000 0.03293  0.12343  0.54300  Biso   1.000  Tb
  Zn7      1.0000 0.26291  0.12057  0.85197  Biso   1.000  Zn
  C145     1.0000 0.19423  0.89940  0.73299  Biso   1.000  C
  H85      1.0000 0.19990  0.84100  0.72600  Biso   1.000  H
  O55      1.0000 0.07987  0.05438  0.63000  Biso   1.000  O
  O56      1.0000 0.08677  0.97452  0.90892  Biso   1.000  O
  O57      1.0000 0.99979  0.96284  0.55690  Biso   1.000  O
  C146     1.0000 0.15376  0.94120  0.70012  Biso   1.000  C
  H86      1.0000 0.13390  0.90700  0.66810  Biso   1.000  H
  O58      1.0000 0.43006  0.33646  0.91753  Biso   1.000  O
  N25      1.0000 0.22613  0.08443  0.92644  Biso   1.000  N
  O59      1.0000 0.07725  0.14379  0.71170  Biso   1.000  O
  C147     1.0000 0.16009  0.02285  0.96942  Biso   1.000  C
  N26      1.0000 0.21248  0.04400  0.78805  Biso   1.000  N
  C148     1.0000 0.24951  0.10881  0.98142  Biso   1.000  C
  O60      1.0000 0.40160  0.86115  0.98366  Biso   1.000  O
  O61      1.0000 0.45085  0.34203  0.01765  Biso   1.000  O
  N27      1.0000 0.31120  0.16910  0.92889  Biso   1.000  N
  C149     1.0000 0.29698  0.15698  0.98274  Biso   1.000  C
  C150     1.0000 0.18432  0.04724  0.02659  Biso   1.000  C
  H87      1.0000 0.17000  0.02730  0.06190  Biso   1.000  H
  C151     1.0000 0.36718  0.23952  0.03193  Biso   1.000  C
  H88      1.0000 0.38350  0.26550  0.06260  Biso   1.000  H
  C152     1.0000 0.11071  0.97722  0.96099  Biso   1.000  C
  C153     1.0000 0.42413  0.31596  0.96934  Biso   1.000  C
  N28      1.0000 0.29045  0.97231  0.85722  Biso   1.000  N
  O62      1.0000 0.40844  0.73724  0.92327  Biso   1.000  O
  O63      1.0000 0.09737  0.94545  0.00737  Biso   1.000  O
  C154     1.0000 0.38894  0.81300  0.93760  Biso   1.000  C
  C155     1.0000 0.32861  0.93930  0.89460  Biso   1.000  C
  H89      1.0000 0.34090  0.97600  0.91670  Biso   1.000  H
  C156     1.0000 0.38054  0.25626  0.97658  Biso   1.000  C
  C157     1.0000 0.18250  0.04348  0.92143  Biso   1.000  C
  H90      1.0000 0.16800  0.02590  0.88310  Biso   1.000  H
  C158     1.0000 0.17229  0.08257  0.75743  Biso   1.000  C
  H91      1.0000 0.16560  0.14700  0.76820  Biso   1.000  H
  C159     1.0000 0.35176  0.21847  0.92659  Biso   1.000  C
  H92      1.0000 0.36210  0.23030  0.89220  Biso   1.000  H
  C160     1.0000 0.22898  0.09158  0.03228  Biso   1.000  C
  H93      1.0000 0.24610  0.11260  0.07160  Biso   1.000  H
  C161     1.0000 0.09568  0.08117  0.68257  Biso   1.000  C
  C162     1.0000 0.26622  0.91130  0.81704  Biso   1.000  C
  C163     1.0000 0.14124  0.03394  0.71360  Biso   1.000  C
  C164     1.0000 0.32494  0.19025  0.03512  Biso   1.000  C
  H94      1.0000 0.31400  0.18670  0.06960  Biso   1.000  H
  C165     1.0000 0.22288  0.95190  0.77753  Biso   1.000  C
  Cl7      1.0000 0.22453  0.27115  0.83420  Biso   1.000  Cl
  C166     1.0000 0.34540  0.84680  0.89421  Biso   1.000  C
  C167     1.0000 0.28054  0.81780  0.81349  Biso   1.000  C
  H95      1.0000 0.26620  0.77600  0.79150  Biso   1.000  H
  C168     1.0000 0.32078  0.78580  0.85171  Biso   1.000  C
  H96      1.0000 0.33080  0.72900  0.85000  Biso   1.000  H
  H97      1.0000 0.97860  0.95800  0.57760  Biso   1.000  H
  H98      1.0000 0.02280  0.92300  0.57470  Biso   1.000  H
  Tb8      1.0000 0.53293  0.62343  0.54300  Biso   1.000  Tb
  Zn8      1.0000 0.76291  0.62057  0.85197  Biso   1.000  Zn
  C169     1.0000 0.69423  0.39940  0.73299  Biso   1.000  C
  H99      1.0000 0.69990  0.34100  0.72600  Biso   1.000  H
  O64      1.0000 0.57987  0.55438  0.63000  Biso   1.000  O
  O65      1.0000 0.58677  0.47452  0.90892  Biso   1.000  O
  O66      1.0000 0.49979  0.46284  0.55690  Biso   1.000  O
  C170     1.0000 0.65376  0.44120  0.70012  Biso   1.000  C
  H100     1.0000 0.63390  0.40700  0.66810  Biso   1.000  H
  O67      1.0000 0.93006  0.83646  0.91753  Biso   1.000  O
  N29      1.0000 0.72613  0.58443  0.92644  Biso   1.000  N
  O68      1.0000 0.57725  0.64379  0.71170  Biso   1.000  O
  C171     1.0000 0.66009  0.52285  0.96942  Biso   1.000  C
  N30      1.0000 0.71248  0.54400  0.78805  Biso   1.000  N
  C172     1.0000 0.74951  0.60881  0.98142  Biso   1.000  C
  O69      1.0000 0.90160  0.36115  0.98366  Biso   1.000  O
  O70      1.0000 0.95085  0.84203  0.01765  Biso   1.000  O
  N31      1.0000 0.81120  0.66910  0.92889  Biso   1.000  N
  C173     1.0000 0.79698  0.65698  0.98274  Biso   1.000  C
  C174     1.0000 0.68432  0.54724  0.02659  Biso   1.000  C
  H101     1.0000 0.67000  0.52730  0.06190  Biso   1.000  H
  C175     1.0000 0.86718  0.73952  0.03193  Biso   1.000  C
  H102     1.0000 0.88350  0.76550  0.06260  Biso   1.000  H
  C176     1.0000 0.61071  0.47722  0.96099  Biso   1.000  C
  C177     1.0000 0.92413  0.81596  0.96934  Biso   1.000  C
  N32      1.0000 0.79045  0.47231  0.85722  Biso   1.000  N
  O71      1.0000 0.90844  0.23724  0.92327  Biso   1.000  O
  O72      1.0000 0.59737  0.44545  0.00737  Biso   1.000  O
  C178     1.0000 0.88894  0.31300  0.93760  Biso   1.000  C
  C179     1.0000 0.82861  0.43930  0.89460  Biso   1.000  C
  H103     1.0000 0.84090  0.47600  0.91670  Biso   1.000  H
  C180     1.0000 0.88054  0.75626  0.97658  Biso   1.000  C
  C181     1.0000 0.68250  0.54348  0.92143  Biso   1.000  C
  H104     1.0000 0.66800  0.52590  0.88310  Biso   1.000  H
  C182     1.0000 0.67229  0.58257  0.75743  Biso   1.000  C
  H105     1.0000 0.66560  0.64700  0.76820  Biso   1.000  H
  C183     1.0000 0.85176  0.71847  0.92659  Biso   1.000  C
  H106     1.0000 0.86210  0.73030  0.89220  Biso   1.000  H
  C184     1.0000 0.72898  0.59158  0.03228  Biso   1.000  C
  H107     1.0000 0.74610  0.61260  0.07160  Biso   1.000  H
  C185     1.0000 0.59568  0.58117  0.68257  Biso   1.000  C
  C186     1.0000 0.76622  0.41130  0.81704  Biso   1.000  C
  C187     1.0000 0.64124  0.53394  0.71360  Biso   1.000  C
  C188     1.0000 0.82494  0.69025  0.03512  Biso   1.000  C
  H108     1.0000 0.81400  0.68670  0.06960  Biso   1.000  H
  C189     1.0000 0.72288  0.45190  0.77753  Biso   1.000  C
  Cl8      1.0000 0.72453  0.77115  0.83420  Biso   1.000  Cl
  C190     1.0000 0.84540  0.34680  0.89421  Biso   1.000  C
  C191     1.0000 0.78054  0.31780  0.81349  Biso   1.000  C
  H109     1.0000 0.76620  0.27600  0.79150  Biso   1.000  H
  C192     1.0000 0.82078  0.28580  0.85171  Biso   1.000  C
  H110     1.0000 0.83080  0.22900  0.85000  Biso   1.000  H
  H111     1.0000 0.47860  0.45800  0.57760  Biso   1.000  H
  H112     1.0000 0.52280  0.42300  0.57470  Biso   1.000  H
