data_image0
_cell_length_a       28.0996
_cell_length_b       13.8122
_cell_length_c       22.4619
_cell_angle_alpha    90
_cell_angle_beta     99.3566
_cell_angle_gamma    90

_symmetry_space_group_name_H-M    "P 1"
_symmetry_int_tables_number       1

loop_
  _symmetry_equiv_pos_as_xyz
  'x, y, z'

loop_
  _atom_site_label
  _atom_site_occupancy
  _atom_site_fract_x
  _atom_site_fract_y
  _atom_site_fract_z
  _atom_site_thermal_displace_type
  _atom_site_B_iso_or_equiv
  _atom_site_type_symbol
  Tb1      1.0000 0.03320  0.37557  0.04244  Biso   1.000  Tb
  Co1      1.0000 0.26261  0.61682  0.85187  Biso   1.000  Co
  Cl1      1.0000 0.22567  0.77213  0.83415  Biso   1.000  Cl
  O1       1.0000 0.99897  0.53684  0.05741  Biso   1.000  O
  O2       1.0000 0.08685  0.47749  0.90799  Biso   1.000  O
  N1       1.0000 0.22626  0.58570  0.92525  Biso   1.000  N
  O3       1.0000 0.07814  0.55480  0.63037  Biso   1.000  O
  O4       1.0000 0.07807  0.64898  0.71114  Biso   1.000  O
  O5       1.0000 0.09723  0.44720  0.00713  Biso   1.000  O
  O6       1.0000 0.45170  0.83926  0.01642  Biso   1.000  O
  N2       1.0000 0.21221  0.54380  0.78704  Biso   1.000  N
  C1       1.0000 0.18251  0.54560  0.92038  Biso   1.000  C
  H1       1.0000 0.16620  0.53120  0.88200  Biso   1.000  H
  C2       1.0000 0.16020  0.52430  0.96897  Biso   1.000  C
  C3       1.0000 0.29731  0.65680  0.98170  Biso   1.000  C
  O7       1.0000 0.39844  0.36050  0.98555  Biso   1.000  O
  C4       1.0000 0.24970  0.60890  0.98072  Biso   1.000  C
  C5       1.0000 0.18453  0.54770  0.02625  Biso   1.000  C
  H2       1.0000 0.17080  0.53410  0.06030  Biso   1.000  H
  O8       1.0000 0.40650  0.23601  0.92422  Biso   1.000  O
  N3       1.0000 0.31074  0.66960  0.92712  Biso   1.000  N
  C6       1.0000 0.36836  0.73730  0.03093  Biso   1.000  C
  H3       1.0000 0.38820  0.75830  0.06580  Biso   1.000  H
  C7       1.0000 0.42515  0.81390  0.96796  Biso   1.000  C
  C8       1.0000 0.32555  0.43710  0.89634  Biso   1.000  C
  H4       1.0000 0.34150  0.47950  0.92500  Biso   1.000  H
  C9       1.0000 0.32556  0.68830  0.03460  Biso   1.000  C
  H5       1.0000 0.31610  0.67700  0.07180  Biso   1.000  H
  N4       1.0000 0.28764  0.47020  0.85777  Biso   1.000  N
  C10      1.0000 0.11056  0.47960  0.95990  Biso   1.000  C
  C11      1.0000 0.38101  0.75440  0.97474  Biso   1.000  C
  C12      1.0000 0.17212  0.58460  0.75629  Biso   1.000  C
  H6       1.0000 0.16550  0.64890  0.76410  Biso   1.000  H
  C13      1.0000 0.35164  0.71870  0.92459  Biso   1.000  C
  H7       1.0000 0.36050  0.72920  0.88700  Biso   1.000  H
  C14      1.0000 0.09515  0.58410  0.68230  Biso   1.000  C
  C15      1.0000 0.22945  0.59150  0.03204  Biso   1.000  C
  H8       1.0000 0.24580  0.60900  0.06990  Biso   1.000  H
  C16      1.0000 0.38593  0.31160  0.93921  Biso   1.000  C
  C17      1.0000 0.31679  0.27970  0.85440  Biso   1.000  C
  H9       1.0000 0.32680  0.21580  0.85290  Biso   1.000  H
  C18      1.0000 0.26314  0.40740  0.81774  Biso   1.000  C
  C19      1.0000 0.27690  0.31090  0.81572  Biso   1.000  C
  H10      1.0000 0.25930  0.26820  0.78860  Biso   1.000  H
  C20      1.0000 0.34218  0.34290  0.89558  Biso   1.000  C
  O9       1.0000 0.43153  0.83366  0.91577  Biso   1.000  O
  C21      1.0000 0.14023  0.53450  0.71329  Biso   1.000  C
  C22      1.0000 0.22074  0.44930  0.77754  Biso   1.000  C
  C23      1.0000 0.15075  0.43920  0.70086  Biso   1.000  C
  H11      1.0000 0.13130  0.40530  0.67040  Biso   1.000  H
  C24      1.0000 0.19096  0.39490  0.73481  Biso   1.000  C
  H12      1.0000 0.19770  0.33000  0.72880  Biso   1.000  H
  H13      1.0000 0.01990  0.57500  0.07280  Biso   1.000  H
  H14      1.0000 0.97950  0.54200  0.08200  Biso   1.000  H
  Tb2      1.0000 0.53320  0.87557  0.04244  Biso   1.000  Tb
  Co2      1.0000 0.76261  0.11682  0.85187  Biso   1.000  Co
  Cl2      1.0000 0.72567  0.27213  0.83415  Biso   1.000  Cl
  O10      1.0000 0.49897  0.03684  0.05741  Biso   1.000  O
  O11      1.0000 0.58685  0.97749  0.90799  Biso   1.000  O
  N5       1.0000 0.72626  0.08570  0.92525  Biso   1.000  N
  O12      1.0000 0.57814  0.05480  0.63037  Biso   1.000  O
  O13      1.0000 0.57807  0.14898  0.71114  Biso   1.000  O
  O14      1.0000 0.59723  0.94720  0.00713  Biso   1.000  O
  O15      1.0000 0.95170  0.33926  0.01642  Biso   1.000  O
  N6       1.0000 0.71221  0.04380  0.78704  Biso   1.000  N
  C25      1.0000 0.68251  0.04560  0.92038  Biso   1.000  C
  H15      1.0000 0.66620  0.03120  0.88200  Biso   1.000  H
  C26      1.0000 0.66020  0.02430  0.96897  Biso   1.000  C
  C27      1.0000 0.79731  0.15680  0.98170  Biso   1.000  C
  O16      1.0000 0.89844  0.86050  0.98555  Biso   1.000  O
  C28      1.0000 0.74970  0.10890  0.98072  Biso   1.000  C
  C29      1.0000 0.68453  0.04770  0.02625  Biso   1.000  C
  H16      1.0000 0.67080  0.03410  0.06030  Biso   1.000  H
  O17      1.0000 0.90650  0.73601  0.92422  Biso   1.000  O
  N7       1.0000 0.81074  0.16960  0.92712  Biso   1.000  N
  C30      1.0000 0.86836  0.23730  0.03093  Biso   1.000  C
  H17      1.0000 0.88820  0.25830  0.06580  Biso   1.000  H
  C31      1.0000 0.92515  0.31390  0.96796  Biso   1.000  C
  C32      1.0000 0.82555  0.93710  0.89634  Biso   1.000  C
  H18      1.0000 0.84150  0.97950  0.92500  Biso   1.000  H
  C33      1.0000 0.82556  0.18830  0.03460  Biso   1.000  C
  H19      1.0000 0.81610  0.17700  0.07180  Biso   1.000  H
  N8       1.0000 0.78764  0.97020  0.85777  Biso   1.000  N
  C34      1.0000 0.61056  0.97960  0.95990  Biso   1.000  C
  C35      1.0000 0.88101  0.25440  0.97474  Biso   1.000  C
  C36      1.0000 0.67212  0.08460  0.75629  Biso   1.000  C
  H20      1.0000 0.66550  0.14890  0.76410  Biso   1.000  H
  C37      1.0000 0.85164  0.21870  0.92459  Biso   1.000  C
  H21      1.0000 0.86050  0.22920  0.88700  Biso   1.000  H
  C38      1.0000 0.59515  0.08410  0.68230  Biso   1.000  C
  C39      1.0000 0.72945  0.09150  0.03204  Biso   1.000  C
  H22      1.0000 0.74580  0.10900  0.06990  Biso   1.000  H
  C40      1.0000 0.88593  0.81160  0.93921  Biso   1.000  C
  C41      1.0000 0.81679  0.77970  0.85440  Biso   1.000  C
  H23      1.0000 0.82680  0.71580  0.85290  Biso   1.000  H
  C42      1.0000 0.76314  0.90740  0.81774  Biso   1.000  C
  C43      1.0000 0.77690  0.81090  0.81572  Biso   1.000  C
  H24      1.0000 0.75930  0.76820  0.78860  Biso   1.000  H
  C44      1.0000 0.84218  0.84290  0.89558  Biso   1.000  C
  O18      1.0000 0.93153  0.33366  0.91577  Biso   1.000  O
  C45      1.0000 0.64023  0.03450  0.71329  Biso   1.000  C
  C46      1.0000 0.72074  0.94930  0.77754  Biso   1.000  C
  C47      1.0000 0.65075  0.93920  0.70086  Biso   1.000  C
  H25      1.0000 0.63130  0.90530  0.67040  Biso   1.000  H
  C48      1.0000 0.69096  0.89490  0.73481  Biso   1.000  C
  H26      1.0000 0.69770  0.83000  0.72880  Biso   1.000  H
  H27      1.0000 0.51990  0.07500  0.07280  Biso   1.000  H
  H28      1.0000 0.47950  0.04200  0.08200  Biso   1.000  H
  Tb3      1.0000 0.96680  0.37557  0.45756  Biso   1.000  Tb
  Co3      1.0000 0.73739  0.61682  0.64813  Biso   1.000  Co
  Cl3      1.0000 0.77433  0.77213  0.66585  Biso   1.000  Cl
  O19      1.0000 0.00103  0.53684  0.44259  Biso   1.000  O
  O20      1.0000 0.91315  0.47749  0.59201  Biso   1.000  O
  N9       1.0000 0.77374  0.58570  0.57475  Biso   1.000  N
  O21      1.0000 0.92186  0.55480  0.86963  Biso   1.000  O
  O22      1.0000 0.92193  0.64898  0.78886  Biso   1.000  O
  O23      1.0000 0.90277  0.44720  0.49287  Biso   1.000  O
  O24      1.0000 0.54830  0.83926  0.48358  Biso   1.000  O
  N10      1.0000 0.78779  0.54380  0.71296  Biso   1.000  N
  C49      1.0000 0.81749  0.54560  0.57962  Biso   1.000  C
  H29      1.0000 0.83380  0.53120  0.61800  Biso   1.000  H
  C50      1.0000 0.83980  0.52430  0.53103  Biso   1.000  C
  C51      1.0000 0.70269  0.65680  0.51830  Biso   1.000  C
  O25      1.0000 0.60156  0.36050  0.51445  Biso   1.000  O
  C52      1.0000 0.75030  0.60890  0.51928  Biso   1.000  C
  C53      1.0000 0.81547  0.54770  0.47375  Biso   1.000  C
  H30      1.0000 0.82920  0.53410  0.43970  Biso   1.000  H
  O26      1.0000 0.59350  0.23601  0.57578  Biso   1.000  O
  N11      1.0000 0.68926  0.66960  0.57288  Biso   1.000  N
  C54      1.0000 0.63164  0.73730  0.46907  Biso   1.000  C
  H31      1.0000 0.61180  0.75830  0.43420  Biso   1.000  H
  C55      1.0000 0.57485  0.81390  0.53204  Biso   1.000  C
  C56      1.0000 0.67445  0.43710  0.60366  Biso   1.000  C
  H32      1.0000 0.65850  0.47950  0.57500  Biso   1.000  H
  C57      1.0000 0.67444  0.68830  0.46540  Biso   1.000  C
  H33      1.0000 0.68390  0.67700  0.42820  Biso   1.000  H
  N12      1.0000 0.71236  0.47020  0.64223  Biso   1.000  N
  C58      1.0000 0.88944  0.47960  0.54010  Biso   1.000  C
  C59      1.0000 0.61899  0.75440  0.52526  Biso   1.000  C
  C60      1.0000 0.82788  0.58460  0.74371  Biso   1.000  C
  H34      1.0000 0.83450  0.64890  0.73590  Biso   1.000  H
  C61      1.0000 0.64836  0.71870  0.57541  Biso   1.000  C
  H35      1.0000 0.63950  0.72920  0.61300  Biso   1.000  H
  C62      1.0000 0.90485  0.58410  0.81770  Biso   1.000  C
  C63      1.0000 0.77055  0.59150  0.46796  Biso   1.000  C
  H36      1.0000 0.75420  0.60900  0.43010  Biso   1.000  H
  C64      1.0000 0.61407  0.31160  0.56079  Biso   1.000  C
  C65      1.0000 0.68321  0.27970  0.64560  Biso   1.000  C
  H37      1.0000 0.67320  0.21580  0.64710  Biso   1.000  H
  C66      1.0000 0.73686  0.40740  0.68226  Biso   1.000  C
  C67      1.0000 0.72310  0.31090  0.68428  Biso   1.000  C
  H38      1.0000 0.74070  0.26820  0.71140  Biso   1.000  H
  C68      1.0000 0.65782  0.34290  0.60442  Biso   1.000  C
  O27      1.0000 0.56847  0.83366  0.58423  Biso   1.000  O
  C69      1.0000 0.85977  0.53450  0.78671  Biso   1.000  C
  C70      1.0000 0.77926  0.44930  0.72246  Biso   1.000  C
  C71      1.0000 0.84925  0.43920  0.79914  Biso   1.000  C
  H39      1.0000 0.86870  0.40530  0.82960  Biso   1.000  H
  C72      1.0000 0.80904  0.39490  0.76519  Biso   1.000  C
  H40      1.0000 0.80230  0.33000  0.77120  Biso   1.000  H
  H41      1.0000 0.98010  0.57500  0.42720  Biso   1.000  H
  H42      1.0000 0.02050  0.54200  0.41800  Biso   1.000  H
  Tb4      1.0000 0.46680  0.87557  0.45756  Biso   1.000  Tb
  Co4      1.0000 0.23739  0.11682  0.64813  Biso   1.000  Co
  Cl4      1.0000 0.27433  0.27213  0.66585  Biso   1.000  Cl
  O28      1.0000 0.50103  0.03684  0.44259  Biso   1.000  O
  O29      1.0000 0.41315  0.97749  0.59201  Biso   1.000  O
  N13      1.0000 0.27374  0.08570  0.57475  Biso   1.000  N
  O30      1.0000 0.42186  0.05480  0.86963  Biso   1.000  O
  O31      1.0000 0.42193  0.14898  0.78886  Biso   1.000  O
  O32      1.0000 0.40277  0.94720  0.49287  Biso   1.000  O
  O33      1.0000 0.04830  0.33926  0.48358  Biso   1.000  O
  N14      1.0000 0.28779  0.04380  0.71296  Biso   1.000  N
  C73      1.0000 0.31749  0.04560  0.57962  Biso   1.000  C
  H43      1.0000 0.33380  0.03120  0.61800  Biso   1.000  H
  C74      1.0000 0.33980  0.02430  0.53103  Biso   1.000  C
  C75      1.0000 0.20269  0.15680  0.51830  Biso   1.000  C
  O34      1.0000 0.10156  0.86050  0.51445  Biso   1.000  O
  C76      1.0000 0.25030  0.10890  0.51928  Biso   1.000  C
  C77      1.0000 0.31547  0.04770  0.47375  Biso   1.000  C
  H44      1.0000 0.32920  0.03410  0.43970  Biso   1.000  H
  O35      1.0000 0.09350  0.73601  0.57578  Biso   1.000  O
  N15      1.0000 0.18926  0.16960  0.57288  Biso   1.000  N
  C78      1.0000 0.13164  0.23730  0.46907  Biso   1.000  C
  H45      1.0000 0.11180  0.25830  0.43420  Biso   1.000  H
  C79      1.0000 0.07485  0.31390  0.53204  Biso   1.000  C
  C80      1.0000 0.17445  0.93710  0.60366  Biso   1.000  C
  H46      1.0000 0.15850  0.97950  0.57500  Biso   1.000  H
  C81      1.0000 0.17444  0.18830  0.46540  Biso   1.000  C
  H47      1.0000 0.18390  0.17700  0.42820  Biso   1.000  H
  N16      1.0000 0.21236  0.97020  0.64223  Biso   1.000  N
  C82      1.0000 0.38944  0.97960  0.54010  Biso   1.000  C
  C83      1.0000 0.11899  0.25440  0.52526  Biso   1.000  C
  C84      1.0000 0.32788  0.08460  0.74371  Biso   1.000  C
  H48      1.0000 0.33450  0.14890  0.73590  Biso   1.000  H
  C85      1.0000 0.14836  0.21870  0.57541  Biso   1.000  C
  H49      1.0000 0.13950  0.22920  0.61300  Biso   1.000  H
  C86      1.0000 0.40485  0.08410  0.81770  Biso   1.000  C
  C87      1.0000 0.27055  0.09150  0.46796  Biso   1.000  C
  H50      1.0000 0.25420  0.10900  0.43010  Biso   1.000  H
  C88      1.0000 0.11407  0.81160  0.56079  Biso   1.000  C
  C89      1.0000 0.18321  0.77970  0.64560  Biso   1.000  C
  H51      1.0000 0.17320  0.71580  0.64710  Biso   1.000  H
  C90      1.0000 0.23686  0.90740  0.68226  Biso   1.000  C
  C91      1.0000 0.22310  0.81090  0.68428  Biso   1.000  C
  H52      1.0000 0.24070  0.76820  0.71140  Biso   1.000  H
  C92      1.0000 0.15782  0.84290  0.60442  Biso   1.000  C
  O36      1.0000 0.06847  0.33366  0.58423  Biso   1.000  O
  C93      1.0000 0.35977  0.03450  0.78671  Biso   1.000  C
  C94      1.0000 0.27926  0.94930  0.72246  Biso   1.000  C
  C95      1.0000 0.34925  0.93920  0.79914  Biso   1.000  C
  H53      1.0000 0.36870  0.90530  0.82960  Biso   1.000  H
  C96      1.0000 0.30904  0.89490  0.76519  Biso   1.000  C
  H54      1.0000 0.30230  0.83000  0.77120  Biso   1.000  H
  H55      1.0000 0.48010  0.07500  0.42720  Biso   1.000  H
  H56      1.0000 0.52050  0.04200  0.41800  Biso   1.000  H
  Tb5      1.0000 0.96680  0.62443  0.95756  Biso   1.000  Tb
  Co5      1.0000 0.73739  0.38318  0.14813  Biso   1.000  Co
  Cl5      1.0000 0.77433  0.22787  0.16585  Biso   1.000  Cl
  O37      1.0000 0.00103  0.46316  0.94259  Biso   1.000  O
  O38      1.0000 0.91315  0.52251  0.09201  Biso   1.000  O
  N17      1.0000 0.77374  0.41430  0.07475  Biso   1.000  N
  O39      1.0000 0.92186  0.44520  0.36963  Biso   1.000  O
  O40      1.0000 0.92193  0.35102  0.28886  Biso   1.000  O
  O41      1.0000 0.90277  0.55280  0.99287  Biso   1.000  O
  O42      1.0000 0.54830  0.16074  0.98358  Biso   1.000  O
  N18      1.0000 0.78779  0.45620  0.21296  Biso   1.000  N
  C97      1.0000 0.81749  0.45440  0.07962  Biso   1.000  C
  H57      1.0000 0.83380  0.46880  0.11800  Biso   1.000  H
  C98      1.0000 0.83980  0.47570  0.03103  Biso   1.000  C
  C99      1.0000 0.70269  0.34320  0.01830  Biso   1.000  C
  O43      1.0000 0.60156  0.63950  0.01445  Biso   1.000  O
  C100     1.0000 0.75030  0.39110  0.01928  Biso   1.000  C
  C101     1.0000 0.81547  0.45230  0.97375  Biso   1.000  C
  H58      1.0000 0.82920  0.46590  0.93970  Biso   1.000  H
  O44      1.0000 0.59350  0.76399  0.07578  Biso   1.000  O
  N19      1.0000 0.68926  0.33040  0.07288  Biso   1.000  N
  C102     1.0000 0.63164  0.26270  0.96907  Biso   1.000  C
  H59      1.0000 0.61180  0.24170  0.93420  Biso   1.000  H
  C103     1.0000 0.57485  0.18610  0.03204  Biso   1.000  C
  C104     1.0000 0.67445  0.56290  0.10366  Biso   1.000  C
  H60      1.0000 0.65850  0.52050  0.07500  Biso   1.000  H
  C105     1.0000 0.67444  0.31170  0.96540  Biso   1.000  C
  H61      1.0000 0.68390  0.32300  0.92820  Biso   1.000  H
  N20      1.0000 0.71236  0.52980  0.14223  Biso   1.000  N
  C106     1.0000 0.88944  0.52040  0.04010  Biso   1.000  C
  C107     1.0000 0.61899  0.24560  0.02526  Biso   1.000  C
  C108     1.0000 0.82788  0.41540  0.24371  Biso   1.000  C
  H62      1.0000 0.83450  0.35110  0.23590  Biso   1.000  H
  C109     1.0000 0.64836  0.28130  0.07541  Biso   1.000  C
  H63      1.0000 0.63950  0.27080  0.11300  Biso   1.000  H
  C110     1.0000 0.90485  0.41590  0.31770  Biso   1.000  C
  C111     1.0000 0.77055  0.40850  0.96796  Biso   1.000  C
  H64      1.0000 0.75420  0.39100  0.93010  Biso   1.000  H
  C112     1.0000 0.61407  0.68840  0.06079  Biso   1.000  C
  C113     1.0000 0.68321  0.72030  0.14560  Biso   1.000  C
  H65      1.0000 0.67320  0.78420  0.14710  Biso   1.000  H
  C114     1.0000 0.73686  0.59260  0.18226  Biso   1.000  C
  C115     1.0000 0.72310  0.68910  0.18428  Biso   1.000  C
  H66      1.0000 0.74070  0.73180  0.21140  Biso   1.000  H
  C116     1.0000 0.65782  0.65710  0.10442  Biso   1.000  C
  O45      1.0000 0.56847  0.16634  0.08423  Biso   1.000  O
  C117     1.0000 0.85977  0.46550  0.28671  Biso   1.000  C
  C118     1.0000 0.77926  0.55070  0.22246  Biso   1.000  C
  C119     1.0000 0.84925  0.56080  0.29914  Biso   1.000  C
  H67      1.0000 0.86870  0.59470  0.32960  Biso   1.000  H
  C120     1.0000 0.80904  0.60510  0.26519  Biso   1.000  C
  H68      1.0000 0.80230  0.67000  0.27120  Biso   1.000  H
  H69      1.0000 0.98010  0.42500  0.92720  Biso   1.000  H
  H70      1.0000 0.02050  0.45800  0.91800  Biso   1.000  H
  Tb6      1.0000 0.46680  0.12443  0.95756  Biso   1.000  Tb
  Co6      1.0000 0.23739  0.88318  0.14813  Biso   1.000  Co
  Cl6      1.0000 0.27433  0.72787  0.16585  Biso   1.000  Cl
  O46      1.0000 0.50103  0.96316  0.94259  Biso   1.000  O
  O47      1.0000 0.41315  0.02251  0.09201  Biso   1.000  O
  N21      1.0000 0.27374  0.91430  0.07475  Biso   1.000  N
  O48      1.0000 0.42186  0.94520  0.36963  Biso   1.000  O
  O49      1.0000 0.42193  0.85102  0.28886  Biso   1.000  O
  O50      1.0000 0.40277  0.05280  0.99287  Biso   1.000  O
  O51      1.0000 0.04830  0.66074  0.98358  Biso   1.000  O
  N22      1.0000 0.28779  0.95620  0.21296  Biso   1.000  N
  C121     1.0000 0.31749  0.95440  0.07962  Biso   1.000  C
  H71      1.0000 0.33380  0.96880  0.11800  Biso   1.000  H
  C122     1.0000 0.33980  0.97570  0.03103  Biso   1.000  C
  C123     1.0000 0.20269  0.84320  0.01830  Biso   1.000  C
  O52      1.0000 0.10156  0.13950  0.01445  Biso   1.000  O
  C124     1.0000 0.25030  0.89110  0.01928  Biso   1.000  C
  C125     1.0000 0.31547  0.95230  0.97375  Biso   1.000  C
  H72      1.0000 0.32920  0.96590  0.93970  Biso   1.000  H
  O53      1.0000 0.09350  0.26399  0.07578  Biso   1.000  O
  N23      1.0000 0.18926  0.83040  0.07288  Biso   1.000  N
  C126     1.0000 0.13164  0.76270  0.96907  Biso   1.000  C
  H73      1.0000 0.11180  0.74170  0.93420  Biso   1.000  H
  C127     1.0000 0.07485  0.68610  0.03204  Biso   1.000  C
  C128     1.0000 0.17445  0.06290  0.10366  Biso   1.000  C
  H74      1.0000 0.15850  0.02050  0.07500  Biso   1.000  H
  C129     1.0000 0.17444  0.81170  0.96540  Biso   1.000  C
  H75      1.0000 0.18390  0.82300  0.92820  Biso   1.000  H
  N24      1.0000 0.21236  0.02980  0.14223  Biso   1.000  N
  C130     1.0000 0.38944  0.02040  0.04010  Biso   1.000  C
  C131     1.0000 0.11899  0.74560  0.02526  Biso   1.000  C
  C132     1.0000 0.32788  0.91540  0.24371  Biso   1.000  C
  H76      1.0000 0.33450  0.85110  0.23590  Biso   1.000  H
  C133     1.0000 0.14836  0.78130  0.07541  Biso   1.000  C
  H77      1.0000 0.13950  0.77080  0.11300  Biso   1.000  H
  C134     1.0000 0.40485  0.91590  0.31770  Biso   1.000  C
  C135     1.0000 0.27055  0.90850  0.96796  Biso   1.000  C
  H78      1.0000 0.25420  0.89100  0.93010  Biso   1.000  H
  C136     1.0000 0.11407  0.18840  0.06079  Biso   1.000  C
  C137     1.0000 0.18321  0.22030  0.14560  Biso   1.000  C
  H79      1.0000 0.17320  0.28420  0.14710  Biso   1.000  H
  C138     1.0000 0.23686  0.09260  0.18226  Biso   1.000  C
  C139     1.0000 0.22310  0.18910  0.18428  Biso   1.000  C
  H80      1.0000 0.24070  0.23180  0.21140  Biso   1.000  H
  C140     1.0000 0.15782  0.15710  0.10442  Biso   1.000  C
  O54      1.0000 0.06847  0.66634  0.08423  Biso   1.000  O
  C141     1.0000 0.35977  0.96550  0.28671  Biso   1.000  C
  C142     1.0000 0.27926  0.05070  0.22246  Biso   1.000  C
  C143     1.0000 0.34925  0.06080  0.29914  Biso   1.000  C
  H81      1.0000 0.36870  0.09470  0.32960  Biso   1.000  H
  C144     1.0000 0.30904  0.10510  0.26519  Biso   1.000  C
  H82      1.0000 0.30230  0.17000  0.27120  Biso   1.000  H
  H83      1.0000 0.48010  0.92500  0.92720  Biso   1.000  H
  H84      1.0000 0.52050  0.95800  0.91800  Biso   1.000  H
  Tb7      1.0000 0.03320  0.62443  0.54244  Biso   1.000  Tb
  Co7      1.0000 0.26261  0.38318  0.35187  Biso   1.000  Co
  Cl7      1.0000 0.22567  0.22787  0.33415  Biso   1.000  Cl
  O55      1.0000 0.99897  0.46316  0.55741  Biso   1.000  O
  O56      1.0000 0.08685  0.52251  0.40799  Biso   1.000  O
  N25      1.0000 0.22626  0.41430  0.42525  Biso   1.000  N
  O57      1.0000 0.07814  0.44520  0.13037  Biso   1.000  O
  O58      1.0000 0.07807  0.35102  0.21114  Biso   1.000  O
  O59      1.0000 0.09723  0.55280  0.50713  Biso   1.000  O
  O60      1.0000 0.45170  0.16074  0.51642  Biso   1.000  O
  N26      1.0000 0.21221  0.45620  0.28704  Biso   1.000  N
  C145     1.0000 0.18251  0.45440  0.42038  Biso   1.000  C
  H85      1.0000 0.16620  0.46880  0.38200  Biso   1.000  H
  C146     1.0000 0.16020  0.47570  0.46897  Biso   1.000  C
  C147     1.0000 0.29731  0.34320  0.48170  Biso   1.000  C
  O61      1.0000 0.39844  0.63950  0.48555  Biso   1.000  O
  C148     1.0000 0.24970  0.39110  0.48072  Biso   1.000  C
  C149     1.0000 0.18453  0.45230  0.52625  Biso   1.000  C
  H86      1.0000 0.17080  0.46590  0.56030  Biso   1.000  H
  O62      1.0000 0.40650  0.76399  0.42422  Biso   1.000  O
  N27      1.0000 0.31074  0.33040  0.42712  Biso   1.000  N
  C150     1.0000 0.36836  0.26270  0.53093  Biso   1.000  C
  H87      1.0000 0.38820  0.24170  0.56580  Biso   1.000  H
  C151     1.0000 0.42515  0.18610  0.46796  Biso   1.000  C
  C152     1.0000 0.32555  0.56290  0.39634  Biso   1.000  C
  H88      1.0000 0.34150  0.52050  0.42500  Biso   1.000  H
  C153     1.0000 0.32556  0.31170  0.53460  Biso   1.000  C
  H89      1.0000 0.31610  0.32300  0.57180  Biso   1.000  H
  N28      1.0000 0.28764  0.52980  0.35777  Biso   1.000  N
  C154     1.0000 0.11056  0.52040  0.45990  Biso   1.000  C
  C155     1.0000 0.38101  0.24560  0.47474  Biso   1.000  C
  C156     1.0000 0.17212  0.41540  0.25629  Biso   1.000  C
  H90      1.0000 0.16550  0.35110  0.26410  Biso   1.000  H
  C157     1.0000 0.35164  0.28130  0.42459  Biso   1.000  C
  H91      1.0000 0.36050  0.27080  0.38700  Biso   1.000  H
  C158     1.0000 0.09515  0.41590  0.18230  Biso   1.000  C
  C159     1.0000 0.22945  0.40850  0.53204  Biso   1.000  C
  H92      1.0000 0.24580  0.39100  0.56990  Biso   1.000  H
  C160     1.0000 0.38593  0.68840  0.43921  Biso   1.000  C
  C161     1.0000 0.31679  0.72030  0.35440  Biso   1.000  C
  H93      1.0000 0.32680  0.78420  0.35290  Biso   1.000  H
  C162     1.0000 0.26314  0.59260  0.31774  Biso   1.000  C
  C163     1.0000 0.27690  0.68910  0.31572  Biso   1.000  C
  H94      1.0000 0.25930  0.73180  0.28860  Biso   1.000  H
  C164     1.0000 0.34218  0.65710  0.39558  Biso   1.000  C
  O63      1.0000 0.43153  0.16634  0.41577  Biso   1.000  O
  C165     1.0000 0.14023  0.46550  0.21329  Biso   1.000  C
  C166     1.0000 0.22074  0.55070  0.27754  Biso   1.000  C
  C167     1.0000 0.15075  0.56080  0.20086  Biso   1.000  C
  H95      1.0000 0.13130  0.59470  0.17040  Biso   1.000  H
  C168     1.0000 0.19096  0.60510  0.23481  Biso   1.000  C
  H96      1.0000 0.19770  0.67000  0.22880  Biso   1.000  H
  H97      1.0000 0.01990  0.42500  0.57280  Biso   1.000  H
  H98      1.0000 0.97950  0.45800  0.58200  Biso   1.000  H
  Tb8      1.0000 0.53320  0.12443  0.54244  Biso   1.000  Tb
  Co8      1.0000 0.76261  0.88318  0.35187  Biso   1.000  Co
  Cl8      1.0000 0.72567  0.72787  0.33415  Biso   1.000  Cl
  O64      1.0000 0.49897  0.96316  0.55741  Biso   1.000  O
  O65      1.0000 0.58685  0.02251  0.40799  Biso   1.000  O
  N29      1.0000 0.72626  0.91430  0.42525  Biso   1.000  N
  O66      1.0000 0.57814  0.94520  0.13037  Biso   1.000  O
  O67      1.0000 0.57807  0.85102  0.21114  Biso   1.000  O
  O68      1.0000 0.59723  0.05280  0.50713  Biso   1.000  O
  O69      1.0000 0.95170  0.66074  0.51642  Biso   1.000  O
  N30      1.0000 0.71221  0.95620  0.28704  Biso   1.000  N
  C169     1.0000 0.68251  0.95440  0.42038  Biso   1.000  C
  H99      1.0000 0.66620  0.96880  0.38200  Biso   1.000  H
  C170     1.0000 0.66020  0.97570  0.46897  Biso   1.000  C
  C171     1.0000 0.79731  0.84320  0.48170  Biso   1.000  C
  O70      1.0000 0.89844  0.13950  0.48555  Biso   1.000  O
  C172     1.0000 0.74970  0.89110  0.48072  Biso   1.000  C
  C173     1.0000 0.68453  0.95230  0.52625  Biso   1.000  C
  H100     1.0000 0.67080  0.96590  0.56030  Biso   1.000  H
  O71      1.0000 0.90650  0.26399  0.42422  Biso   1.000  O
  N31      1.0000 0.81074  0.83040  0.42712  Biso   1.000  N
  C174     1.0000 0.86836  0.76270  0.53093  Biso   1.000  C
  H101     1.0000 0.88820  0.74170  0.56580  Biso   1.000  H
  C175     1.0000 0.92515  0.68610  0.46796  Biso   1.000  C
  C176     1.0000 0.82555  0.06290  0.39634  Biso   1.000  C
  H102     1.0000 0.84150  0.02050  0.42500  Biso   1.000  H
  C177     1.0000 0.82556  0.81170  0.53460  Biso   1.000  C
  H103     1.0000 0.81610  0.82300  0.57180  Biso   1.000  H
  N32      1.0000 0.78764  0.02980  0.35777  Biso   1.000  N
  C178     1.0000 0.61056  0.02040  0.45990  Biso   1.000  C
  C179     1.0000 0.88101  0.74560  0.47474  Biso   1.000  C
  C180     1.0000 0.67212  0.91540  0.25629  Biso   1.000  C
  H104     1.0000 0.66550  0.85110  0.26410  Biso   1.000  H
  C181     1.0000 0.85164  0.78130  0.42459  Biso   1.000  C
  H105     1.0000 0.86050  0.77080  0.38700  Biso   1.000  H
  C182     1.0000 0.59515  0.91590  0.18230  Biso   1.000  C
  C183     1.0000 0.72945  0.90850  0.53204  Biso   1.000  C
  H106     1.0000 0.74580  0.89100  0.56990  Biso   1.000  H
  C184     1.0000 0.88593  0.18840  0.43921  Biso   1.000  C
  C185     1.0000 0.81679  0.22030  0.35440  Biso   1.000  C
  H107     1.0000 0.82680  0.28420  0.35290  Biso   1.000  H
  C186     1.0000 0.76314  0.09260  0.31774  Biso   1.000  C
  C187     1.0000 0.77690  0.18910  0.31572  Biso   1.000  C
  H108     1.0000 0.75930  0.23180  0.28860  Biso   1.000  H
  C188     1.0000 0.84218  0.15710  0.39558  Biso   1.000  C
  O72      1.0000 0.93153  0.66634  0.41577  Biso   1.000  O
  C189     1.0000 0.64023  0.96550  0.21329  Biso   1.000  C
  C190     1.0000 0.72074  0.05070  0.27754  Biso   1.000  C
  C191     1.0000 0.65075  0.06080  0.20086  Biso   1.000  C
  H109     1.0000 0.63130  0.09470  0.17040  Biso   1.000  H
  C192     1.0000 0.69096  0.10510  0.23481  Biso   1.000  C
  H110     1.0000 0.69770  0.17000  0.22880  Biso   1.000  H
  H111     1.0000 0.51990  0.92500  0.57280  Biso   1.000  H
  H112     1.0000 0.47950  0.95800  0.58200  Biso   1.000  H
