data_MATTUX_clean
_audit_creation_date              2014-07-02
_audit_creation_method            'Materials Studio'
_symmetry_space_group_name_H-M    'P1'
_symmetry_Int_Tables_number       1
_symmetry_cell_setting            triclinic
loop_
_symmetry_equiv_pos_as_xyz
  x,y,z
_cell_length_a                    12.9758
_cell_length_b                    13.1095
_cell_length_c                    13.9258
_cell_angle_alpha                 85.3100
_cell_angle_beta                  70.7100
_cell_angle_gamma                 84.1930
loop_
_atom_site_label
_atom_site_type_symbol
_atom_site_fract_x
_atom_site_fract_y
_atom_site_fract_z
_atom_site_U_iso_or_equiv
_atom_site_adp_type
_atom_site_occupancy
Zn1    Zn    0.19248   0.31891   0.66323   0.01267  Uiso   1.00
Zn2    Zn    0.12893   0.32562   0.88645   0.01267  Uiso   1.00
H1     H     0.76000   0.34740   0.97070   0.01267  Uiso   1.00
H2     H     0.58200   0.34980   0.97210   0.01267  Uiso   1.00
H3     H     0.87210   0.30510   0.66830   0.01267  Uiso   1.00
H4     H     0.44900   0.32940   0.88050   0.01267  Uiso   1.00
H5     H     0.56060   0.28640   0.57850   0.01267  Uiso   1.00
H6     H     0.73720   0.28790   0.57650   0.01267  Uiso   1.00
H7     H     0.20100   0.98860   0.65080   0.01267  Uiso   1.00
H8     H     0.10560   0.82340   0.97650   0.01267  Uiso   1.00
H9     H     0.11710   0.99890   0.95720   0.01267  Uiso   1.00
H10    H     0.12470   0.65550   0.89840   0.01267  Uiso   1.00
H11    H     0.17040   0.64970   0.60100   0.01267  Uiso   1.00
H12    H     0.18410   0.82000   0.57340   0.01267  Uiso   1.00
H13    H     0.11960   0.17490   0.05830   0.01267  Uiso   1.00
H14    H     0.13530   0.16720   0.21750   0.01267  Uiso   1.00
H15    H     0.09900   0.46760   0.21630   0.01267  Uiso   1.00
H16    H     0.08160   0.46630   0.06040   0.01267  Uiso   1.00
H17    H     0.19620   0.16800   0.34260   0.01267  Uiso   1.00
H18    H     0.20900   0.17060   0.50410   0.01267  Uiso   1.00
H19    H     0.09090   0.44830   0.52860   0.01267  Uiso   1.00
H20    H     0.06520   0.45020   0.37310   0.01267  Uiso   1.00
C1     C     0.94839   0.32832   0.81527   0.01267  Uiso   1.00
C2     C     0.83298   0.32694   0.81709   0.01267  Uiso   1.00
C3     C     0.74539   0.33922   0.90934   0.01267  Uiso   1.00
C4     C     0.64024   0.33928   0.91016   0.01267  Uiso   1.00
C5     C     0.61571   0.32408   0.82133   0.01267  Uiso   1.00
C6     C     0.70435   0.31094   0.72831   0.01267  Uiso   1.00
C7     C     0.81252   0.31327   0.72971   0.01267  Uiso   1.00
C8     C     0.50866   0.32175   0.81899   0.01267  Uiso   1.00
C9     C     0.48739   0.30886   0.73100   0.01267  Uiso   1.00
C10    C     0.57488   0.29586   0.63969   0.01267  Uiso   1.00
C11    C     0.67907   0.29686   0.63879   0.01267  Uiso   1.00
C12    C     0.37024   0.31186   0.73314   0.01267  Uiso   1.00
C13    C     0.16280   0.12564   0.79067   0.01267  Uiso   1.00
C14    C     0.15991   0.01121   0.80109   0.01267  Uiso   1.00
C15    C     0.18166   0.95484   0.71665   0.01267  Uiso   1.00
C16    C     0.17558   0.84751   0.72662   0.01267  Uiso   1.00
C17    C     0.14766   0.79746   0.82417   0.01267  Uiso   1.00
C18    C     0.12525   0.85621   0.91027   0.01267  Uiso   1.00
C19    C     0.13174   0.96021   0.89872   0.01267  Uiso   1.00
C20    C     0.14218   0.68976   0.83284   0.01267  Uiso   1.00
C21    C     0.16133   0.63410   0.74972   0.01267  Uiso   1.00
C22    C     0.17000   0.68825   0.65604   0.01267  Uiso   1.00
C23    C     0.17760   0.78769   0.63848   0.01267  Uiso   1.00
C24    C     0.15746   0.51922   0.76033   0.01267  Uiso   1.00
C25    C     0.12950   0.23595   0.08545   0.01267  Uiso   1.00
C26    C     0.13860   0.23120   0.17975   0.01267  Uiso   1.00
C27    C     0.15326   0.32222   0.22350   0.01267  Uiso   1.00
C28    C     0.16399   0.32067   0.32588   0.01267  Uiso   1.00
C29    C     0.11798   0.40591   0.18094   0.01267  Uiso   1.00
C30    C     0.10862   0.40440   0.08729   0.01267  Uiso   1.00
C31    C     0.18660   0.23133   0.37423   0.01267  Uiso   1.00
C32    C     0.19540   0.23400   0.47046   0.01267  Uiso   1.00
C33    C     0.12580   0.39399   0.48513   0.01267  Uiso   1.00
C34    C     0.11110   0.39680   0.39198   0.01267  Uiso   1.00
N1     N     0.13399   0.32378   0.02964   0.01267  Uiso   1.00
N2     N     0.18601   0.32008   0.51920   0.01267  Uiso   1.00
O1     O     0.96610   0.33485   0.89823   0.01267  Uiso   1.00
O2     O     0.02260   0.32630   0.72878   0.01267  Uiso   1.00
O3     O     0.29685   0.31456   0.81760   0.01267  Uiso   1.00
O4     O     0.35438   0.31195   0.64860   0.01267  Uiso   1.00
O5     O     0.19199   0.16632   0.70096   0.01267  Uiso   1.00
O6     O     0.13347   0.17274   0.87144   0.01267  Uiso   1.00
O7     O     0.18100   0.47280   0.67859   0.01267  Uiso   1.00
O8     O     0.13121   0.47804   0.84895   0.01267  Uiso   1.00
Zn3    Zn    0.80752   0.68109   0.33677   0.01267  Uiso   1.00
Zn4    Zn    0.87107   0.67438   0.11355   0.01267  Uiso   1.00
H21    H     0.24000   0.65260   0.02930   0.01267  Uiso   1.00
H22    H     0.41800   0.65020   0.02790   0.01267  Uiso   1.00
H23    H     0.12790   0.69490   0.33170   0.01267  Uiso   1.00
H24    H     0.55100   0.67060   0.11950   0.01267  Uiso   1.00
H25    H     0.43940   0.71360   0.42150   0.01267  Uiso   1.00
H26    H     0.26280   0.71210   0.42350   0.01267  Uiso   1.00
H27    H     0.79900   0.01140   0.34920   0.01267  Uiso   1.00
H28    H     0.89440   0.17660   0.02350   0.01267  Uiso   1.00
H29    H     0.88290   0.00110   0.04280   0.01267  Uiso   1.00
H30    H     0.87530   0.34450   0.10160   0.01267  Uiso   1.00
H31    H     0.82960   0.35030   0.39900   0.01267  Uiso   1.00
H32    H     0.81590   0.18000   0.42660   0.01267  Uiso   1.00
H33    H     0.88040   0.82510   0.94170   0.01267  Uiso   1.00
H34    H     0.86470   0.83280   0.78250   0.01267  Uiso   1.00
H35    H     0.90100   0.53240   0.78370   0.01267  Uiso   1.00
H36    H     0.91840   0.53370   0.93960   0.01267  Uiso   1.00
H37    H     0.80380   0.83200   0.65740   0.01267  Uiso   1.00
H38    H     0.79100   0.82940   0.49590   0.01267  Uiso   1.00
H39    H     0.90910   0.55170   0.47140   0.01267  Uiso   1.00
H40    H     0.93480   0.54980   0.62690   0.01267  Uiso   1.00
C35    C     0.05161   0.67168   0.18473   0.01267  Uiso   1.00
C36    C     0.16702   0.67306   0.18291   0.01267  Uiso   1.00
C37    C     0.25461   0.66078   0.09066   0.01267  Uiso   1.00
C38    C     0.35976   0.66072   0.08984   0.01267  Uiso   1.00
C39    C     0.38429   0.67592   0.17867   0.01267  Uiso   1.00
C40    C     0.29565   0.68906   0.27169   0.01267  Uiso   1.00
C41    C     0.18748   0.68673   0.27029   0.01267  Uiso   1.00
C42    C     0.49134   0.67825   0.18101   0.01267  Uiso   1.00
C43    C     0.51261   0.69114   0.26900   0.01267  Uiso   1.00
C44    C     0.42512   0.70414   0.36031   0.01267  Uiso   1.00
C45    C     0.32093   0.70314   0.36121   0.01267  Uiso   1.00
C46    C     0.62976   0.68814   0.26686   0.01267  Uiso   1.00
C47    C     0.83720   0.87436   0.20933   0.01267  Uiso   1.00
C48    C     0.84009   0.98879   0.19891   0.01267  Uiso   1.00
C49    C     0.81834   0.04516   0.28335   0.01267  Uiso   1.00
C50    C     0.82442   0.15249   0.27338   0.01267  Uiso   1.00
C51    C     0.85234   0.20254   0.17583   0.01267  Uiso   1.00
C52    C     0.87475   0.14379   0.08973   0.01267  Uiso   1.00
C53    C     0.86826   0.03979   0.10128   0.01267  Uiso   1.00
C54    C     0.85782   0.31024   0.16716   0.01267  Uiso   1.00
C55    C     0.83867   0.36590   0.25028   0.01267  Uiso   1.00
C56    C     0.83000   0.31175   0.34396   0.01267  Uiso   1.00
C57    C     0.82240   0.21231   0.36152   0.01267  Uiso   1.00
C58    C     0.84254   0.48078   0.23967   0.01267  Uiso   1.00
C59    C     0.87050   0.76405   0.91455   0.01267  Uiso   1.00
C60    C     0.86140   0.76880   0.82025   0.01267  Uiso   1.00
C61    C     0.84674   0.67778   0.77650   0.01267  Uiso   1.00
C62    C     0.83601   0.67933   0.67412   0.01267  Uiso   1.00
C63    C     0.88202   0.59409   0.81906   0.01267  Uiso   1.00
C64    C     0.89138   0.59560   0.91271   0.01267  Uiso   1.00
C65    C     0.81340   0.76867   0.62577   0.01267  Uiso   1.00
C66    C     0.80460   0.76600   0.52954   0.01267  Uiso   1.00
C67    C     0.87420   0.60601   0.51487   0.01267  Uiso   1.00
C68    C     0.88890   0.60320   0.60802   0.01267  Uiso   1.00
N3     N     0.86601   0.67622   0.97036   0.01267  Uiso   1.00
N4     N     0.81399   0.67992   0.48080   0.01267  Uiso   1.00
O9     O     0.03390   0.66515   0.10177   0.01267  Uiso   1.00
O10    O     0.97740   0.67370   0.27122   0.01267  Uiso   1.00
O11    O     0.70315   0.68544   0.18240   0.01267  Uiso   1.00
O12    O     0.64562   0.68805   0.35140   0.01267  Uiso   1.00
O13    O     0.80801   0.83368   0.29904   0.01267  Uiso   1.00
O14    O     0.86653   0.82726   0.12856   0.01267  Uiso   1.00
O15    O     0.81900   0.52720   0.32141   0.01267  Uiso   1.00
O16    O     0.86879   0.52196   0.15105   0.01267  Uiso   1.00
