data_MATTOR_clean
_audit_creation_date              2014-07-02
_audit_creation_method            'Materials Studio'
_symmetry_space_group_name_H-M    'P1'
_symmetry_Int_Tables_number       1
_symmetry_cell_setting            triclinic
loop_
_symmetry_equiv_pos_as_xyz
  x,y,z
_cell_length_a                    10.8860
_cell_length_b                    10.9190
_cell_length_c                    14.0910
_cell_angle_alpha                 89.2940
_cell_angle_beta                  89.0810
_cell_angle_gamma                 79.6910
loop_
_atom_site_label
_atom_site_type_symbol
_atom_site_fract_x
_atom_site_fract_y
_atom_site_fract_z
_atom_site_U_iso_or_equiv
_atom_site_adp_type
_atom_site_occupancy
Zn1    Zn    0.72348   0.83591   0.80074   0.01267  Uiso   1.00
Zn2    Zn    0.72772   0.83920   0.59123   0.01267  Uiso   1.00
H1     H     0.62970   0.25480   0.57270   0.01267  Uiso   1.00
H2     H     0.62800   0.47470   0.57990   0.01267  Uiso   1.00
H3     H     0.82410   0.41660   0.82180   0.01267  Uiso   1.00
H4     H     0.79400   0.21290   0.82960   0.01267  Uiso   1.00
H5     H     0.33090   0.87390   0.54970   0.01267  Uiso   1.00
H6     H     0.11440   0.87650   0.55260   0.01267  Uiso   1.00
H7     H     0.12200   0.79650   0.83220   0.01267  Uiso   1.00
H8     H     0.33660   0.81070   0.83680   0.01267  Uiso   1.00
H9     H     0.91170   0.80830   0.42870   0.01267  Uiso   1.00
H10    H     0.92060   0.80700   0.26610   0.01267  Uiso   1.00
H11    H     0.54270   0.85730   0.26870   0.01267  Uiso   1.00
H12    H     0.54770   0.86240   0.43370   0.01267  Uiso   1.00
H13    H     0.88340   0.70340   0.11910   0.01267  Uiso   1.00
H14    H     0.85830   0.69070   0.95730   0.01267  Uiso   1.00
H15    H     0.59240   0.97800   0.96310   0.01267  Uiso   1.00
H16    H     0.57950   0.97220   0.12590   0.01267  Uiso   1.00
C1     C     0.71000   0.07690   0.69980   0.01267  Uiso   1.00
C2     C     0.72200   0.20960   0.70060   0.01267  Uiso   1.00
C3     C     0.66720   0.28900   0.62410   0.01267  Uiso   1.00
C4     C     0.66970   0.41900   0.62620   0.01267  Uiso   1.00
C5     C     0.73940   0.46250   0.70310   0.01267  Uiso   1.00
C6     C     0.78190   0.38580   0.77130   0.01267  Uiso   1.00
C7     C     0.76920   0.26170   0.77460   0.01267  Uiso   1.00
C8     C     0.74300   0.60030   0.70200   0.01267  Uiso   1.00
C9     C     0.48770   0.84730   0.69290   0.01267  Uiso   1.00
C10    C     0.35280   0.84250   0.69310   0.01267  Uiso   1.00
C11    C     0.28870   0.86090   0.60750   0.01267  Uiso   1.00
C12    C     0.16030   0.85940   0.60941   0.01267  Uiso   1.00
C13    C     0.09840   0.83360   0.69210   0.01267  Uiso   1.00
C14    C     0.16410   0.81440   0.77550   0.01267  Uiso   1.00
C15    C     0.29260   0.82080   0.77870   0.01267  Uiso   1.00
C16    C     0.96180   0.82930   0.69170   0.01267  Uiso   1.00
C17    C     0.83570   0.81860   0.39490   0.01267  Uiso   1.00
C18    C     0.84250   0.81740   0.29870   0.01267  Uiso   1.00
C19    C     0.72770   0.83260   0.24820   0.01267  Uiso   1.00
C20    C     0.62060   0.84770   0.29980   0.01267  Uiso   1.00
C21    C     0.62400   0.84930   0.39840   0.01267  Uiso   1.00
C22    C     0.72700   0.83340   0.14230   0.01267  Uiso   1.00
C23    C     0.81570   0.75540   0.08880   0.01267  Uiso   1.00
C24    C     0.80520   0.75360   0.99210   0.01267  Uiso   1.00
C25    C     0.64810   0.91530   0.99580   0.01267  Uiso   1.00
C26    C     0.64200   0.91560   0.09330   0.01267  Uiso   1.00
N1     N     0.73060   0.83300   0.44430   0.01267  Uiso   1.00
N2     N     0.72360   0.83660   0.94527   0.01267  Uiso   1.00
O1     O     0.70670   0.02500   0.62112   0.01267  Uiso   1.00
O2     O     0.70510   0.02210   0.77751   0.01267  Uiso   1.00
O3     O     0.74520   0.65400   0.62483   0.01267  Uiso   1.00
O4     O     0.74280   0.64998   0.78135   0.01267  Uiso   1.00
O5     O     0.54470   0.85230   0.61301   0.01267  Uiso   1.00
O6     O     0.54100   0.84680   0.77096   0.01267  Uiso   1.00
O7     O     0.91313   0.82830   0.60988   0.01267  Uiso   1.00
O8     O     0.90770   0.82480   0.77018   0.01267  Uiso   1.00
Zn3    Zn    0.27652   0.16409   0.19926   0.01267  Uiso   1.00
Zn4    Zn    0.27228   0.16080   0.40877   0.01267  Uiso   1.00
H17    H     0.37030   0.74520   0.42730   0.01267  Uiso   1.00
H18    H     0.37200   0.52530   0.42010   0.01267  Uiso   1.00
H19    H     0.17590   0.58340   0.17820   0.01267  Uiso   1.00
H20    H     0.20600   0.78710   0.17040   0.01267  Uiso   1.00
H21    H     0.66910   0.12610   0.45030   0.01267  Uiso   1.00
H22    H     0.88560   0.12350   0.44740   0.01267  Uiso   1.00
H23    H     0.87800   0.20350   0.16780   0.01267  Uiso   1.00
H24    H     0.66340   0.18930   0.16320   0.01267  Uiso   1.00
H25    H     0.08830   0.19170   0.57130   0.01267  Uiso   1.00
H26    H     0.07940   0.19300   0.73390   0.01267  Uiso   1.00
H27    H     0.45730   0.14270   0.73130   0.01267  Uiso   1.00
H28    H     0.45230   0.13760   0.56630   0.01267  Uiso   1.00
H29    H     0.11660   0.29660   0.88090   0.01267  Uiso   1.00
H30    H     0.14170   0.30930   0.04270   0.01267  Uiso   1.00
H31    H     0.40760   0.02200   0.03690   0.01267  Uiso   1.00
H32    H     0.42050   0.02780   0.87410   0.01267  Uiso   1.00
C27    C     0.29000   0.92310   0.30020   0.01267  Uiso   1.00
C28    C     0.27800   0.79040   0.29940   0.01267  Uiso   1.00
C29    C     0.33280   0.71100   0.37590   0.01267  Uiso   1.00
C30    C     0.33030   0.58100   0.37380   0.01267  Uiso   1.00
C31    C     0.26060   0.53750   0.29690   0.01267  Uiso   1.00
C32    C     0.21810   0.61420   0.22870   0.01267  Uiso   1.00
C33    C     0.23080   0.73830   0.22540   0.01267  Uiso   1.00
C34    C     0.25700   0.39970   0.29800   0.01267  Uiso   1.00
C35    C     0.51230   0.15270   0.30710   0.01267  Uiso   1.00
C36    C     0.64720   0.15750   0.30690   0.01267  Uiso   1.00
C37    C     0.71130   0.13910   0.39250   0.01267  Uiso   1.00
C38    C     0.83970   0.14060   0.39059   0.01267  Uiso   1.00
C39    C     0.90160   0.16640   0.30790   0.01267  Uiso   1.00
C40    C     0.83590   0.18560   0.22450   0.01267  Uiso   1.00
C41    C     0.70740   0.17920   0.22130   0.01267  Uiso   1.00
C42    C     0.03820   0.17070   0.30830   0.01267  Uiso   1.00
C43    C     0.16430   0.18140   0.60510   0.01267  Uiso   1.00
C44    C     0.15750   0.18260   0.70130   0.01267  Uiso   1.00
C45    C     0.27230   0.16740   0.75180   0.01267  Uiso   1.00
C46    C     0.37940   0.15230   0.70020   0.01267  Uiso   1.00
C47    C     0.37600   0.15070   0.60160   0.01267  Uiso   1.00
C48    C     0.27300   0.16660   0.85770   0.01267  Uiso   1.00
C49    C     0.18430   0.24460   0.91120   0.01267  Uiso   1.00
C50    C     0.19480   0.24640   0.00790   0.01267  Uiso   1.00
C51    C     0.35190   0.08470   0.00420   0.01267  Uiso   1.00
C52    C     0.35800   0.08440   0.90670   0.01267  Uiso   1.00
N3     N     0.26940   0.16700   0.55570   0.01267  Uiso   1.00
N4     N     0.27640   0.16340   0.05473   0.01267  Uiso   1.00
O9     O     0.29330   0.97500   0.37888   0.01267  Uiso   1.00
O10    O     0.29490   0.97790   0.22249   0.01267  Uiso   1.00
O11    O     0.25480   0.34600   0.37517   0.01267  Uiso   1.00
O12    O     0.25720   0.35002   0.21865   0.01267  Uiso   1.00
O13    O     0.45530   0.14770   0.38699   0.01267  Uiso   1.00
O14    O     0.45900   0.15320   0.22904   0.01267  Uiso   1.00
O15    O     0.08687   0.17170   0.39012   0.01267  Uiso   1.00
O16    O     0.09230   0.17520   0.22982   0.01267  Uiso   1.00
