data_MATVIN_clean
_audit_creation_date              2014-07-02
_audit_creation_method            'Materials Studio'
_symmetry_space_group_name_H-M    'P1'
_symmetry_Int_Tables_number       1
_symmetry_cell_setting            triclinic
loop_
_symmetry_equiv_pos_as_xyz
  x,y,z
_cell_length_a                    8.8737
_cell_length_b                    8.8737
_cell_length_c                    14.0404
_cell_angle_alpha                 78.3882
_cell_angle_beta                  78.3882
_cell_angle_gamma                 81.4905
loop_
_atom_site_label
_atom_site_type_symbol
_atom_site_fract_x
_atom_site_fract_y
_atom_site_fract_z
_atom_site_U_iso_or_equiv
_atom_site_adp_type
_atom_site_occupancy
Zn1    Zn    0.76154   0.76154   0.58264   0.01267  Uiso   1.00
Zn2    Zn    0.73108   0.73108   0.79925   0.01267  Uiso   1.00
H1     H     0.22140   0.73440   0.79320   0.01267  Uiso   1.00
H2     H     0.26830   0.76810   0.58980   0.01267  Uiso   1.00
H3     H     0.92550   0.58670   0.42460   0.01267  Uiso   1.00
H4     H     0.92000   0.57440   0.26170   0.01267  Uiso   1.00
H5     H     0.89910   0.56810   0.12260   0.01267  Uiso   1.00
H6     H     0.88280   0.56800   0.96110   0.01267  Uiso   1.00
H7     H     0.73440   0.22140   0.79320   0.01267  Uiso   1.00
H8     H     0.76810   0.26830   0.58980   0.01267  Uiso   1.00
H9     H     0.58670   0.92550   0.42460   0.01267  Uiso   1.00
H10    H     0.57440   0.92000   0.26170   0.01267  Uiso   1.00
H11    H     0.56810   0.89910   0.12260   0.01267  Uiso   1.00
H12    H     0.56800   0.88280   0.96110   0.01267  Uiso   1.00
C1     C     0.44960   0.75620   0.71640   0.01267  Uiso   1.00
C2     C     0.28060   0.74640   0.72830   0.01267  Uiso   1.00
C3     C     0.20940   0.75340   0.65470   0.01267  Uiso   1.00
C4     C     0.04060   0.73980   0.66630   0.01267  Uiso   1.00
C5     C     0.85330   0.65630   0.39110   0.01267  Uiso   1.00
C6     C     0.84920   0.64700   0.29430   0.01267  Uiso   1.00
C7     C     0.82430   0.63950   0.09230   0.01267  Uiso   1.00
C8     C     0.81280   0.64120   0.99370   0.01267  Uiso   1.00
C9     C     0.75620   0.44960   0.71640   0.01267  Uiso   1.00
C10    C     0.74640   0.28060   0.72830   0.01267  Uiso   1.00
C11    C     0.75340   0.20940   0.65470   0.01267  Uiso   1.00
C12    C     0.73980   0.04060   0.66630   0.01267  Uiso   1.00
C13    C     0.65630   0.85330   0.39110   0.01267  Uiso   1.00
C14    C     0.64700   0.84920   0.29430   0.01267  Uiso   1.00
C15    C     0.63950   0.82430   0.09230   0.01267  Uiso   1.00
C16    C     0.64120   0.81280   0.99370   0.01267  Uiso   1.00
C17    C     0.74300   0.74300   0.24600   0.01267  Uiso   1.00
C18    C     0.73430   0.73430   0.14110   0.01267  Uiso   1.00
N1     N     0.75940   0.75940   0.43880   0.01267  Uiso   1.00
N2     N     0.72450   0.72450   0.94540   0.01267  Uiso   1.00
O1     O     0.52790   0.77210   0.63220   0.01267  Uiso   1.00
O2     O     0.50190   0.74430   0.79580   0.01267  Uiso   1.00
O3     O     0.96460   0.72180   0.75260   0.01267  Uiso   1.00
O4     O     0.99000   0.74700   0.58840   0.01267  Uiso   1.00
O5     O     0.77210   0.52790   0.63220   0.01267  Uiso   1.00
O6     O     0.74430   0.50190   0.79580   0.01267  Uiso   1.00
O7     O     0.72180   0.96460   0.75260   0.01267  Uiso   1.00
O8     O     0.74700   0.99000   0.58840   0.01267  Uiso   1.00
Zn3    Zn    0.23846   0.23846   0.41736   0.01267  Uiso   1.00
Zn4    Zn    0.26892   0.26892   0.20075   0.01267  Uiso   1.00
H13    H     0.26560   0.77860   0.20680   0.01267  Uiso   1.00
H14    H     0.23190   0.73170   0.41020   0.01267  Uiso   1.00
H15    H     0.41330   0.07450   0.57540   0.01267  Uiso   1.00
H16    H     0.42560   0.08000   0.73830   0.01267  Uiso   1.00
H17    H     0.43190   0.10090   0.87740   0.01267  Uiso   1.00
H18    H     0.43200   0.11720   0.03890   0.01267  Uiso   1.00
H19    H     0.77860   0.26560   0.20680   0.01267  Uiso   1.00
H20    H     0.73170   0.23190   0.41020   0.01267  Uiso   1.00
H21    H     0.07450   0.41330   0.57540   0.01267  Uiso   1.00
H22    H     0.08000   0.42560   0.73830   0.01267  Uiso   1.00
H23    H     0.10090   0.43190   0.87740   0.01267  Uiso   1.00
H24    H     0.11720   0.43200   0.03890   0.01267  Uiso   1.00
C19    C     0.24380   0.55040   0.28360   0.01267  Uiso   1.00
C20    C     0.25360   0.71940   0.27170   0.01267  Uiso   1.00
C21    C     0.24660   0.79060   0.34530   0.01267  Uiso   1.00
C22    C     0.26020   0.95940   0.33370   0.01267  Uiso   1.00
C23    C     0.34370   0.14670   0.60890   0.01267  Uiso   1.00
C24    C     0.35300   0.15080   0.70570   0.01267  Uiso   1.00
C25    C     0.36050   0.17570   0.90770   0.01267  Uiso   1.00
C26    C     0.35880   0.18720   0.00630   0.01267  Uiso   1.00
C27    C     0.55040   0.24380   0.28360   0.01267  Uiso   1.00
C28    C     0.71940   0.25360   0.27170   0.01267  Uiso   1.00
C29    C     0.79060   0.24660   0.34530   0.01267  Uiso   1.00
C30    C     0.95940   0.26020   0.33370   0.01267  Uiso   1.00
C31    C     0.14670   0.34370   0.60890   0.01267  Uiso   1.00
C32    C     0.15080   0.35300   0.70570   0.01267  Uiso   1.00
C33    C     0.17570   0.36050   0.90770   0.01267  Uiso   1.00
C34    C     0.18720   0.35880   0.00630   0.01267  Uiso   1.00
C35    C     0.25700   0.25700   0.75400   0.01267  Uiso   1.00
C36    C     0.26570   0.26570   0.85890   0.01267  Uiso   1.00
N3     N     0.24060   0.24060   0.56120   0.01267  Uiso   1.00
N4     N     0.27550   0.27550   0.05460   0.01267  Uiso   1.00
O9     O     0.22790   0.47210   0.36780   0.01267  Uiso   1.00
O10    O     0.25570   0.49810   0.20420   0.01267  Uiso   1.00
O11    O     0.27820   0.03540   0.24740   0.01267  Uiso   1.00
O12    O     0.25300   0.01000   0.41160   0.01267  Uiso   1.00
O13    O     0.47210   0.22790   0.36780   0.01267  Uiso   1.00
O14    O     0.49810   0.25570   0.20420   0.01267  Uiso   1.00
O15    O     0.03540   0.27820   0.24740   0.01267  Uiso   1.00
O16    O     0.01000   0.25300   0.41160   0.01267  Uiso   1.00
