data_image0
_cell_length_a       18.8984
_cell_length_b       17.7031
_cell_length_c       14.4754
_cell_angle_alpha    90
_cell_angle_beta     96.602
_cell_angle_gamma    90

_symmetry_space_group_name_H-M    "P 1"
_symmetry_int_tables_number       1

loop_
  _symmetry_equiv_pos_as_xyz
  'x, y, z'

loop_
  _atom_site_label
  _atom_site_occupancy
  _atom_site_fract_x
  _atom_site_fract_y
  _atom_site_fract_z
  _atom_site_thermal_displace_type
  _atom_site_B_iso_or_equiv
  _atom_site_type_symbol
  Zn1      1.0000 0.29021  0.24716  0.07397  Biso   1.000  Zn
  Zn2      1.0000 0.16559  0.31171  0.88314  Biso   1.000  Zn
  O1       1.0000 0.90150  0.33440  0.22970  Biso   1.000  O
  O2       1.0000 0.96530  0.32300  0.11570  Biso   1.000  O
  O3       1.0000 0.25392  0.31140  0.81970  Biso   1.000  O
  O4       1.0000 0.32350  0.30640  0.95560  Biso   1.000  O
  O5       1.0000 0.62690  0.27700  0.84360  Biso   1.000  O
  O6       1.0000 0.57060  0.19290  0.92080  Biso   1.000  O
  O7       1.0000 0.18220  0.40240  0.96300  Biso   1.000  O
  O8       1.0000 0.21228  0.32210  0.07870  Biso   1.000  O
  O9       1.0000 0.24350  0.66620  0.00860  Biso   1.000  O
  O10      1.0000 0.34120  0.70020  0.09730  Biso   1.000  O
  N1       1.0000 0.41260  0.41740  0.45030  Biso   1.000  N
  N2       1.0000 0.32250  0.36230  0.53260  Biso   1.000  N
  N3       1.0000 0.29270  0.41280  0.37840  Biso   1.000  N
  N4       1.0000 0.44140  0.37200  0.59600  Biso   1.000  N
  N5       1.0000 0.38090  0.46970  0.30990  Biso   1.000  N
  N6       1.0000 0.20840  0.35340  0.46350  Biso   1.000  N
  C1       1.0000 0.14990  0.35250  0.39430  Biso   1.000  C
  C2       1.0000 0.15410  0.35020  0.30060  Biso   1.000  C
  H1       1.0000 0.19830  0.35060  0.27840  Biso   1.000  H
  C3       1.0000 0.09330  0.34740  0.23930  Biso   1.000  C
  H2       1.0000 0.09780  0.34900  0.17610  Biso   1.000  H
  C4       1.0000 0.02760  0.34250  0.26530  Biso   1.000  C
  C5       1.0000 0.02130  0.35550  0.36340  Biso   1.000  C
  H3       1.0000 0.97730  0.36190  0.38520  Biso   1.000  H
  C6       1.0000 0.08340  0.35770  0.42150  Biso   1.000  C
  H4       1.0000 0.08010  0.36310  0.48480  Biso   1.000  H
  C7       1.0000 0.96210  0.33360  0.20030  Biso   1.000  C
  C8       1.0000 0.43780  0.33820  0.68340  Biso   1.000  C
  C9       1.0000 0.37720  0.33690  0.72820  Biso   1.000  C
  H5       1.0000 0.33480  0.35650  0.69880  Biso   1.000  H
  C10      1.0000 0.37920  0.30590  0.81900  Biso   1.000  C
  C11      1.0000 0.44120  0.27380  0.86040  Biso   1.000  C
  H6       1.0000 0.44200  0.25030  0.91800  Biso   1.000  H
  C12      1.0000 0.50170  0.27640  0.81680  Biso   1.000  C
  C13      1.0000 0.50090  0.31020  0.72740  Biso   1.000  C
  H7       1.0000 0.54250  0.31340  0.69900  Biso   1.000  H
  C14      1.0000 0.31400  0.30630  0.86840  Biso   1.000  C
  C15      1.0000 0.57100  0.24660  0.86370  Biso   1.000  C
  C16      1.0000 0.33690  0.48790  0.22430  Biso   1.000  C
  C17      1.0000 0.29510  0.43110  0.17880  Biso   1.000  C
  H8       1.0000 0.29450  0.38270  0.20390  Biso   1.000  H
  C18      1.0000 0.25430  0.44820  0.09540  Biso   1.000  C
  C19      1.0000 0.25420  0.52020  0.05850  Biso   1.000  C
  H9       1.0000 0.22600  0.53150  0.00330  Biso   1.000  H
  C20      1.0000 0.29730  0.57620  0.10580  Biso   1.000  C
  C21      1.0000 0.33840  0.55850  0.18880  Biso   1.000  C
  H10      1.0000 0.36700  0.59530  0.22010  Biso   1.000  H
  C22      1.0000 0.21300  0.38740  0.04410  Biso   1.000  C
  C23      1.0000 0.29430  0.65380  0.06650  Biso   1.000  C
  C24      1.0000 0.27800  0.37660  0.45510  Biso   1.000  C
  C25      1.0000 0.38810  0.38570  0.52490  Biso   1.000  C
  C26      1.0000 0.35970  0.43150  0.38070  Biso   1.000  C
  Zn3      1.0000 0.79021  0.74716  0.07397  Biso   1.000  Zn
  Zn4      1.0000 0.66559  0.81171  0.88314  Biso   1.000  Zn
  O11      1.0000 0.40150  0.83440  0.22970  Biso   1.000  O
  O12      1.0000 0.46530  0.82300  0.11570  Biso   1.000  O
  O13      1.0000 0.75392  0.81140  0.81970  Biso   1.000  O
  O14      1.0000 0.82350  0.80640  0.95560  Biso   1.000  O
  O15      1.0000 0.12690  0.77700  0.84360  Biso   1.000  O
  O16      1.0000 0.07060  0.69290  0.92080  Biso   1.000  O
  O17      1.0000 0.68220  0.90240  0.96300  Biso   1.000  O
  O18      1.0000 0.71228  0.82210  0.07870  Biso   1.000  O
  O19      1.0000 0.74350  0.16620  0.00860  Biso   1.000  O
  O20      1.0000 0.84120  0.20020  0.09730  Biso   1.000  O
  N7       1.0000 0.91260  0.91740  0.45030  Biso   1.000  N
  N8       1.0000 0.82250  0.86230  0.53260  Biso   1.000  N
  N9       1.0000 0.79270  0.91280  0.37840  Biso   1.000  N
  N10      1.0000 0.94140  0.87200  0.59600  Biso   1.000  N
  N11      1.0000 0.88090  0.96970  0.30990  Biso   1.000  N
  N12      1.0000 0.70840  0.85340  0.46350  Biso   1.000  N
  C27      1.0000 0.64990  0.85250  0.39430  Biso   1.000  C
  C28      1.0000 0.65410  0.85020  0.30060  Biso   1.000  C
  H11      1.0000 0.69830  0.85060  0.27840  Biso   1.000  H
  C29      1.0000 0.59330  0.84740  0.23930  Biso   1.000  C
  H12      1.0000 0.59780  0.84900  0.17610  Biso   1.000  H
  C30      1.0000 0.52760  0.84250  0.26530  Biso   1.000  C
  C31      1.0000 0.52130  0.85550  0.36340  Biso   1.000  C
  H13      1.0000 0.47730  0.86190  0.38520  Biso   1.000  H
  C32      1.0000 0.58340  0.85770  0.42150  Biso   1.000  C
  H14      1.0000 0.58010  0.86310  0.48480  Biso   1.000  H
  C33      1.0000 0.46210  0.83360  0.20030  Biso   1.000  C
  C34      1.0000 0.93780  0.83820  0.68340  Biso   1.000  C
  C35      1.0000 0.87720  0.83690  0.72820  Biso   1.000  C
  H15      1.0000 0.83480  0.85650  0.69880  Biso   1.000  H
  C36      1.0000 0.87920  0.80590  0.81900  Biso   1.000  C
  C37      1.0000 0.94120  0.77380  0.86040  Biso   1.000  C
  H16      1.0000 0.94200  0.75030  0.91800  Biso   1.000  H
  C38      1.0000 0.00170  0.77640  0.81680  Biso   1.000  C
  C39      1.0000 0.00090  0.81020  0.72740  Biso   1.000  C
  H17      1.0000 0.04250  0.81340  0.69900  Biso   1.000  H
  C40      1.0000 0.81400  0.80630  0.86840  Biso   1.000  C
  C41      1.0000 0.07100  0.74660  0.86370  Biso   1.000  C
  C42      1.0000 0.83690  0.98790  0.22430  Biso   1.000  C
  C43      1.0000 0.79510  0.93110  0.17880  Biso   1.000  C
  H18      1.0000 0.79450  0.88270  0.20390  Biso   1.000  H
  C44      1.0000 0.75430  0.94820  0.09540  Biso   1.000  C
  C45      1.0000 0.75420  0.02020  0.05850  Biso   1.000  C
  H19      1.0000 0.72600  0.03150  0.00330  Biso   1.000  H
  C46      1.0000 0.79730  0.07620  0.10580  Biso   1.000  C
  C47      1.0000 0.83840  0.05850  0.18880  Biso   1.000  C
  H20      1.0000 0.86700  0.09530  0.22010  Biso   1.000  H
  C48      1.0000 0.71300  0.88740  0.04410  Biso   1.000  C
  C49      1.0000 0.79430  0.15380  0.06650  Biso   1.000  C
  C50      1.0000 0.77800  0.87660  0.45510  Biso   1.000  C
  C51      1.0000 0.88810  0.88570  0.52490  Biso   1.000  C
  C52      1.0000 0.85970  0.93150  0.38070  Biso   1.000  C
  Zn5      1.0000 0.70979  0.24716  0.92603  Biso   1.000  Zn
  Zn6      1.0000 0.83441  0.31171  0.11686  Biso   1.000  Zn
  O21      1.0000 0.09850  0.33440  0.77030  Biso   1.000  O
  O22      1.0000 0.03470  0.32300  0.88430  Biso   1.000  O
  O23      1.0000 0.74608  0.31140  0.18030  Biso   1.000  O
  O24      1.0000 0.67650  0.30640  0.04440  Biso   1.000  O
  O25      1.0000 0.37310  0.27700  0.15640  Biso   1.000  O
  O26      1.0000 0.42940  0.19290  0.07920  Biso   1.000  O
  O27      1.0000 0.81780  0.40240  0.03700  Biso   1.000  O
  O28      1.0000 0.78772  0.32210  0.92130  Biso   1.000  O
  O29      1.0000 0.75650  0.66620  0.99140  Biso   1.000  O
  O30      1.0000 0.65880  0.70020  0.90270  Biso   1.000  O
  N13      1.0000 0.58740  0.41740  0.54970  Biso   1.000  N
  N14      1.0000 0.67750  0.36230  0.46740  Biso   1.000  N
  N15      1.0000 0.70730  0.41280  0.62160  Biso   1.000  N
  N16      1.0000 0.55860  0.37200  0.40400  Biso   1.000  N
  N17      1.0000 0.61910  0.46970  0.69010  Biso   1.000  N
  N18      1.0000 0.79160  0.35340  0.53650  Biso   1.000  N
  C53      1.0000 0.85010  0.35250  0.60570  Biso   1.000  C
  C54      1.0000 0.84590  0.35020  0.69940  Biso   1.000  C
  H21      1.0000 0.80170  0.35060  0.72160  Biso   1.000  H
  C55      1.0000 0.90670  0.34740  0.76070  Biso   1.000  C
  H22      1.0000 0.90220  0.34900  0.82390  Biso   1.000  H
  C56      1.0000 0.97240  0.34250  0.73470  Biso   1.000  C
  C57      1.0000 0.97870  0.35550  0.63660  Biso   1.000  C
  H23      1.0000 0.02270  0.36190  0.61480  Biso   1.000  H
  C58      1.0000 0.91660  0.35770  0.57850  Biso   1.000  C
  H24      1.0000 0.91990  0.36310  0.51520  Biso   1.000  H
  C59      1.0000 0.03790  0.33360  0.79970  Biso   1.000  C
  C60      1.0000 0.56220  0.33820  0.31660  Biso   1.000  C
  C61      1.0000 0.62280  0.33690  0.27180  Biso   1.000  C
  H25      1.0000 0.66520  0.35650  0.30120  Biso   1.000  H
  C62      1.0000 0.62080  0.30590  0.18100  Biso   1.000  C
  C63      1.0000 0.55880  0.27380  0.13960  Biso   1.000  C
  H26      1.0000 0.55800  0.25030  0.08200  Biso   1.000  H
  C64      1.0000 0.49830  0.27640  0.18320  Biso   1.000  C
  C65      1.0000 0.49910  0.31020  0.27260  Biso   1.000  C
  H27      1.0000 0.45750  0.31340  0.30100  Biso   1.000  H
  C66      1.0000 0.68600  0.30630  0.13160  Biso   1.000  C
  C67      1.0000 0.42900  0.24660  0.13630  Biso   1.000  C
  C68      1.0000 0.66310  0.48790  0.77570  Biso   1.000  C
  C69      1.0000 0.70490  0.43110  0.82120  Biso   1.000  C
  H28      1.0000 0.70550  0.38270  0.79610  Biso   1.000  H
  C70      1.0000 0.74570  0.44820  0.90460  Biso   1.000  C
  C71      1.0000 0.74580  0.52020  0.94150  Biso   1.000  C
  H29      1.0000 0.77400  0.53150  0.99670  Biso   1.000  H
  C72      1.0000 0.70270  0.57620  0.89420  Biso   1.000  C
  C73      1.0000 0.66160  0.55850  0.81120  Biso   1.000  C
  H30      1.0000 0.63300  0.59530  0.77990  Biso   1.000  H
  C74      1.0000 0.78700  0.38740  0.95590  Biso   1.000  C
  C75      1.0000 0.70570  0.65380  0.93350  Biso   1.000  C
  C76      1.0000 0.72200  0.37660  0.54490  Biso   1.000  C
  C77      1.0000 0.61190  0.38570  0.47510  Biso   1.000  C
  C78      1.0000 0.64030  0.43150  0.61930  Biso   1.000  C
  Zn7      1.0000 0.20979  0.74716  0.92603  Biso   1.000  Zn
  Zn8      1.0000 0.33441  0.81171  0.11686  Biso   1.000  Zn
  O31      1.0000 0.59850  0.83440  0.77030  Biso   1.000  O
  O32      1.0000 0.53470  0.82300  0.88430  Biso   1.000  O
  O33      1.0000 0.24608  0.81140  0.18030  Biso   1.000  O
  O34      1.0000 0.17650  0.80640  0.04440  Biso   1.000  O
  O35      1.0000 0.87310  0.77700  0.15640  Biso   1.000  O
  O36      1.0000 0.92940  0.69290  0.07920  Biso   1.000  O
  O37      1.0000 0.31780  0.90240  0.03700  Biso   1.000  O
  O38      1.0000 0.28772  0.82210  0.92130  Biso   1.000  O
  O39      1.0000 0.25650  0.16620  0.99140  Biso   1.000  O
  O40      1.0000 0.15880  0.20020  0.90270  Biso   1.000  O
  N19      1.0000 0.08740  0.91740  0.54970  Biso   1.000  N
  N20      1.0000 0.17750  0.86230  0.46740  Biso   1.000  N
  N21      1.0000 0.20730  0.91280  0.62160  Biso   1.000  N
  N22      1.0000 0.05860  0.87200  0.40400  Biso   1.000  N
  N23      1.0000 0.11910  0.96970  0.69010  Biso   1.000  N
  N24      1.0000 0.29160  0.85340  0.53650  Biso   1.000  N
  C79      1.0000 0.35010  0.85250  0.60570  Biso   1.000  C
  C80      1.0000 0.34590  0.85020  0.69940  Biso   1.000  C
  H31      1.0000 0.30170  0.85060  0.72160  Biso   1.000  H
  C81      1.0000 0.40670  0.84740  0.76070  Biso   1.000  C
  H32      1.0000 0.40220  0.84900  0.82390  Biso   1.000  H
  C82      1.0000 0.47240  0.84250  0.73470  Biso   1.000  C
  C83      1.0000 0.47870  0.85550  0.63660  Biso   1.000  C
  H33      1.0000 0.52270  0.86190  0.61480  Biso   1.000  H
  C84      1.0000 0.41660  0.85770  0.57850  Biso   1.000  C
  H34      1.0000 0.41990  0.86310  0.51520  Biso   1.000  H
  C85      1.0000 0.53790  0.83360  0.79970  Biso   1.000  C
  C86      1.0000 0.06220  0.83820  0.31660  Biso   1.000  C
  C87      1.0000 0.12280  0.83690  0.27180  Biso   1.000  C
  H35      1.0000 0.16520  0.85650  0.30120  Biso   1.000  H
  C88      1.0000 0.12080  0.80590  0.18100  Biso   1.000  C
  C89      1.0000 0.05880  0.77380  0.13960  Biso   1.000  C
  H36      1.0000 0.05800  0.75030  0.08200  Biso   1.000  H
  C90      1.0000 0.99830  0.77640  0.18320  Biso   1.000  C
  C91      1.0000 0.99910  0.81020  0.27260  Biso   1.000  C
  H37      1.0000 0.95750  0.81340  0.30100  Biso   1.000  H
  C92      1.0000 0.18600  0.80630  0.13160  Biso   1.000  C
  C93      1.0000 0.92900  0.74660  0.13630  Biso   1.000  C
  C94      1.0000 0.16310  0.98790  0.77570  Biso   1.000  C
  C95      1.0000 0.20490  0.93110  0.82120  Biso   1.000  C
  H38      1.0000 0.20550  0.88270  0.79610  Biso   1.000  H
  C96      1.0000 0.24570  0.94820  0.90460  Biso   1.000  C
  C97      1.0000 0.24580  0.02020  0.94150  Biso   1.000  C
  H39      1.0000 0.27400  0.03150  0.99670  Biso   1.000  H
  C98      1.0000 0.20270  0.07620  0.89420  Biso   1.000  C
  C99      1.0000 0.16160  0.05850  0.81120  Biso   1.000  C
  H40      1.0000 0.13300  0.09530  0.77990  Biso   1.000  H
  C100     1.0000 0.28700  0.88740  0.95590  Biso   1.000  C
  C101     1.0000 0.20570  0.15380  0.93350  Biso   1.000  C
  C102     1.0000 0.22200  0.87660  0.54490  Biso   1.000  C
  C103     1.0000 0.11190  0.88570  0.47510  Biso   1.000  C
  C104     1.0000 0.14030  0.93150  0.61930  Biso   1.000  C
