data_image0
_cell_length_a       31.855
_cell_length_b       17.268
_cell_length_c       30.293
_cell_angle_alpha    90
_cell_angle_beta     116.25
_cell_angle_gamma    90

_symmetry_space_group_name_H-M    "P 1"
_symmetry_int_tables_number       1

loop_
  _symmetry_equiv_pos_as_xyz
  'x, y, z'

loop_
  _atom_site_label
  _atom_site_occupancy
  _atom_site_fract_x
  _atom_site_fract_y
  _atom_site_fract_z
  _atom_site_thermal_displace_type
  _atom_site_B_iso_or_equiv
  _atom_site_type_symbol
  Zn1      1.0000 0.89642  0.49896  0.01722  Biso   1.000  Zn
  Zn2      1.0000 0.86615  0.34363  0.06906  Biso   1.000  Zn
  O1       1.0000 0.42390  0.10980  0.54620  Biso   1.000  O
  O2       1.0000 0.43468  0.18980  0.60282  Biso   1.000  O
  O3       1.0000 0.61280  0.10150  0.53000  Biso   1.000  O
  O4       1.0000 0.55960  0.01380  0.51910  Biso   1.000  O
  O5       1.0000 0.63520  0.22130  0.83953  Biso   1.000  O
  O6       1.0000 0.67340  0.23150  0.92160  Biso   1.000  O
  O7       1.0000 0.82230  0.35830  0.99982  Biso   1.000  O
  O8       1.0000 0.84710  0.44250  0.95872  Biso   1.000  O
  O9       1.0000 0.86020  0.55960  0.60051  Biso   1.000  O
  O10      1.0000 0.85040  0.47250  0.54310  Biso   1.000  O
  N1       1.0000 0.66200  0.29000  0.64670  Biso   1.000  N
  N2       1.0000 0.67160  0.32290  0.72682  Biso   1.000  N
  N3       1.0000 0.72870  0.36160  0.70206  Biso   1.000  N
  N4       1.0000 0.60690  0.25990  0.67399  Biso   1.000  N
  H1       1.0000 0.59750  0.27030  0.69590  Biso   1.000  H
  N5       1.0000 0.74030  0.38020  0.78107  Biso   1.000  N
  H2       1.0000 0.76120  0.41340  0.78300  Biso   1.000  H
  N6       1.0000 0.71450  0.32920  0.62090  Biso   1.000  N
  H3       1.0000 0.69780  0.30080  0.59590  Biso   1.000  H
  C1       1.0000 0.64710  0.28950  0.68180  Biso   1.000  C
  C2       1.0000 0.70150  0.32490  0.65810  Biso   1.000  C
  C3       1.0000 0.71030  0.35250  0.73490  Biso   1.000  C
  C4       1.0000 0.57600  0.21230  0.63420  Biso   1.000  C
  C5       1.0000 0.53150  0.20260  0.62750  Biso   1.000  C
  H4       1.0000 0.52120  0.22900  0.64770  Biso   1.000  H
  C6       1.0000 0.50040  0.15310  0.59050  Biso   1.000  C
  C7       1.0000 0.51750  0.11520  0.56100  Biso   1.000  C
  H5       1.0000 0.49780  0.08280  0.53580  Biso   1.000  H
  C8       1.0000 0.56090  0.12490  0.56840  Biso   1.000  C
  C9       1.0000 0.59320  0.17490  0.60500  Biso   1.000  C
  H6       1.0000 0.62370  0.18190  0.60900  Biso   1.000  H
  C10      1.0000 0.57920  0.07520  0.53760  Biso   1.000  C
  C11      1.0000 0.45020  0.13940  0.58060  Biso   1.000  C
  C12      1.0000 0.73880  0.35750  0.82540  Biso   1.000  C
  C13      1.0000 0.70370  0.31610  0.82950  Biso   1.000  C
  H7       1.0000 0.67790  0.30070  0.80100  Biso   1.000  H
  C14      1.0000 0.70570  0.29670  0.87500  Biso   1.000  C
  C15      1.0000 0.66970  0.24710  0.87820  Biso   1.000  C
  C16      1.0000 0.74280  0.32190  0.91750  Biso   1.000  C
  H8       1.0000 0.74440  0.30990  0.94810  Biso   1.000  H
  C17      1.0000 0.77810  0.36610  0.91380  Biso   1.000  C
  C18      1.0000 0.82060  0.39150  0.96070  Biso   1.000  C
  C19      1.0000 0.77720  0.38290  0.86890  Biso   1.000  C
  H9       1.0000 0.80150  0.41070  0.86730  Biso   1.000  H
  C20      1.0000 0.74850  0.36940  0.61550  Biso   1.000  C
  C21      1.0000 0.77420  0.43280  0.64400  Biso   1.000  C
  H10      1.0000 0.76970  0.44920  0.67090  Biso   1.000  H
  C22      1.0000 0.80520  0.46980  0.63230  Biso   1.000  C
  H11      1.0000 0.82250  0.51050  0.65210  Biso   1.000  H
  C23      1.0000 0.81220  0.44870  0.59120  Biso   1.000  C
  C24      1.0000 0.79010  0.38490  0.56590  Biso   1.000  C
  H12      1.0000 0.79630  0.36770  0.54030  Biso   1.000  H
  C25      1.0000 0.75950  0.34540  0.57660  Biso   1.000  C
  H13      1.0000 0.74500  0.30160  0.55840  Biso   1.000  H
  C26      1.0000 0.84340  0.50230  0.57670  Biso   1.000  C
  Zn3      1.0000 0.39642  0.99896  0.01722  Biso   1.000  Zn
  Zn4      1.0000 0.36615  0.84363  0.06906  Biso   1.000  Zn
  O11      1.0000 0.92390  0.60980  0.54620  Biso   1.000  O
  O12      1.0000 0.93468  0.68980  0.60282  Biso   1.000  O
  O13      1.0000 0.11280  0.60150  0.53000  Biso   1.000  O
  O14      1.0000 0.05960  0.51380  0.51910  Biso   1.000  O
  O15      1.0000 0.13520  0.72130  0.83953  Biso   1.000  O
  O16      1.0000 0.17340  0.73150  0.92160  Biso   1.000  O
  O17      1.0000 0.32230  0.85830  0.99982  Biso   1.000  O
  O18      1.0000 0.34710  0.94250  0.95872  Biso   1.000  O
  O19      1.0000 0.36020  0.05960  0.60051  Biso   1.000  O
  O20      1.0000 0.35040  0.97250  0.54310  Biso   1.000  O
  N7       1.0000 0.16200  0.79000  0.64670  Biso   1.000  N
  N8       1.0000 0.17160  0.82290  0.72682  Biso   1.000  N
  N9       1.0000 0.22870  0.86160  0.70206  Biso   1.000  N
  N10      1.0000 0.10690  0.75990  0.67399  Biso   1.000  N
  H14      1.0000 0.09750  0.77030  0.69590  Biso   1.000  H
  N11      1.0000 0.24030  0.88020  0.78107  Biso   1.000  N
  H15      1.0000 0.26120  0.91340  0.78300  Biso   1.000  H
  N12      1.0000 0.21450  0.82920  0.62090  Biso   1.000  N
  H16      1.0000 0.19780  0.80080  0.59590  Biso   1.000  H
  C27      1.0000 0.14710  0.78950  0.68180  Biso   1.000  C
  C28      1.0000 0.20150  0.82490  0.65810  Biso   1.000  C
  C29      1.0000 0.21030  0.85250  0.73490  Biso   1.000  C
  C30      1.0000 0.07600  0.71230  0.63420  Biso   1.000  C
  C31      1.0000 0.03150  0.70260  0.62750  Biso   1.000  C
  H17      1.0000 0.02120  0.72900  0.64770  Biso   1.000  H
  C32      1.0000 0.00040  0.65310  0.59050  Biso   1.000  C
  C33      1.0000 0.01750  0.61520  0.56100  Biso   1.000  C
  H18      1.0000 0.99780  0.58280  0.53580  Biso   1.000  H
  C34      1.0000 0.06090  0.62490  0.56840  Biso   1.000  C
  C35      1.0000 0.09320  0.67490  0.60500  Biso   1.000  C
  H19      1.0000 0.12370  0.68190  0.60900  Biso   1.000  H
  C36      1.0000 0.07920  0.57520  0.53760  Biso   1.000  C
  C37      1.0000 0.95020  0.63940  0.58060  Biso   1.000  C
  C38      1.0000 0.23880  0.85750  0.82540  Biso   1.000  C
  C39      1.0000 0.20370  0.81610  0.82950  Biso   1.000  C
  H20      1.0000 0.17790  0.80070  0.80100  Biso   1.000  H
  C40      1.0000 0.20570  0.79670  0.87500  Biso   1.000  C
  C41      1.0000 0.16970  0.74710  0.87820  Biso   1.000  C
  C42      1.0000 0.24280  0.82190  0.91750  Biso   1.000  C
  H21      1.0000 0.24440  0.80990  0.94810  Biso   1.000  H
  C43      1.0000 0.27810  0.86610  0.91380  Biso   1.000  C
  C44      1.0000 0.32060  0.89150  0.96070  Biso   1.000  C
  C45      1.0000 0.27720  0.88290  0.86890  Biso   1.000  C
  H22      1.0000 0.30150  0.91070  0.86730  Biso   1.000  H
  C46      1.0000 0.24850  0.86940  0.61550  Biso   1.000  C
  C47      1.0000 0.27420  0.93280  0.64400  Biso   1.000  C
  H23      1.0000 0.26970  0.94920  0.67090  Biso   1.000  H
  C48      1.0000 0.30520  0.96980  0.63230  Biso   1.000  C
  H24      1.0000 0.32250  0.01050  0.65210  Biso   1.000  H
  C49      1.0000 0.31220  0.94870  0.59120  Biso   1.000  C
  C50      1.0000 0.29010  0.88490  0.56590  Biso   1.000  C
  H25      1.0000 0.29630  0.86770  0.54030  Biso   1.000  H
  C51      1.0000 0.25950  0.84540  0.57660  Biso   1.000  C
  H26      1.0000 0.24500  0.80160  0.55840  Biso   1.000  H
  C52      1.0000 0.34340  0.00230  0.57670  Biso   1.000  C
  Zn5      1.0000 0.10358  0.49896  0.48278  Biso   1.000  Zn
  Zn6      1.0000 0.13385  0.34363  0.43094  Biso   1.000  Zn
  O21      1.0000 0.57610  0.10980  0.95380  Biso   1.000  O
  O22      1.0000 0.56532  0.18980  0.89718  Biso   1.000  O
  O23      1.0000 0.38720  0.10150  0.97000  Biso   1.000  O
  O24      1.0000 0.44040  0.01380  0.98090  Biso   1.000  O
  O25      1.0000 0.36480  0.22130  0.66047  Biso   1.000  O
  O26      1.0000 0.32660  0.23150  0.57840  Biso   1.000  O
  O27      1.0000 0.17770  0.35830  0.50018  Biso   1.000  O
  O28      1.0000 0.15290  0.44250  0.54128  Biso   1.000  O
  O29      1.0000 0.13980  0.55960  0.89949  Biso   1.000  O
  O30      1.0000 0.14960  0.47250  0.95690  Biso   1.000  O
  N13      1.0000 0.33800  0.29000  0.85330  Biso   1.000  N
  N14      1.0000 0.32840  0.32290  0.77318  Biso   1.000  N
  N15      1.0000 0.27130  0.36160  0.79794  Biso   1.000  N
  N16      1.0000 0.39310  0.25990  0.82601  Biso   1.000  N
  H27      1.0000 0.40250  0.27030  0.80410  Biso   1.000  H
  N17      1.0000 0.25970  0.38020  0.71893  Biso   1.000  N
  H28      1.0000 0.23880  0.41340  0.71700  Biso   1.000  H
  N18      1.0000 0.28550  0.32920  0.87910  Biso   1.000  N
  H29      1.0000 0.30220  0.30080  0.90410  Biso   1.000  H
  C53      1.0000 0.35290  0.28950  0.81820  Biso   1.000  C
  C54      1.0000 0.29850  0.32490  0.84190  Biso   1.000  C
  C55      1.0000 0.28970  0.35250  0.76510  Biso   1.000  C
  C56      1.0000 0.42400  0.21230  0.86580  Biso   1.000  C
  C57      1.0000 0.46850  0.20260  0.87250  Biso   1.000  C
  H30      1.0000 0.47880  0.22900  0.85230  Biso   1.000  H
  C58      1.0000 0.49960  0.15310  0.90950  Biso   1.000  C
  C59      1.0000 0.48250  0.11520  0.93900  Biso   1.000  C
  H31      1.0000 0.50220  0.08280  0.96420  Biso   1.000  H
  C60      1.0000 0.43910  0.12490  0.93160  Biso   1.000  C
  C61      1.0000 0.40680  0.17490  0.89500  Biso   1.000  C
  H32      1.0000 0.37630  0.18190  0.89100  Biso   1.000  H
  C62      1.0000 0.42080  0.07520  0.96240  Biso   1.000  C
  C63      1.0000 0.54980  0.13940  0.91940  Biso   1.000  C
  C64      1.0000 0.26120  0.35750  0.67460  Biso   1.000  C
  C65      1.0000 0.29630  0.31610  0.67050  Biso   1.000  C
  H33      1.0000 0.32210  0.30070  0.69900  Biso   1.000  H
  C66      1.0000 0.29430  0.29670  0.62500  Biso   1.000  C
  C67      1.0000 0.33030  0.24710  0.62180  Biso   1.000  C
  C68      1.0000 0.25720  0.32190  0.58250  Biso   1.000  C
  H34      1.0000 0.25560  0.30990  0.55190  Biso   1.000  H
  C69      1.0000 0.22190  0.36610  0.58620  Biso   1.000  C
  C70      1.0000 0.17940  0.39150  0.53930  Biso   1.000  C
  C71      1.0000 0.22280  0.38290  0.63110  Biso   1.000  C
  H35      1.0000 0.19850  0.41070  0.63270  Biso   1.000  H
  C72      1.0000 0.25150  0.36940  0.88450  Biso   1.000  C
  C73      1.0000 0.22580  0.43280  0.85600  Biso   1.000  C
  H36      1.0000 0.23030  0.44920  0.82910  Biso   1.000  H
  C74      1.0000 0.19480  0.46980  0.86770  Biso   1.000  C
  H37      1.0000 0.17750  0.51050  0.84790  Biso   1.000  H
  C75      1.0000 0.18780  0.44870  0.90880  Biso   1.000  C
  C76      1.0000 0.20990  0.38490  0.93410  Biso   1.000  C
  H38      1.0000 0.20370  0.36770  0.95970  Biso   1.000  H
  C77      1.0000 0.24050  0.34540  0.92340  Biso   1.000  C
  H39      1.0000 0.25500  0.30160  0.94160  Biso   1.000  H
  C78      1.0000 0.15660  0.50230  0.92330  Biso   1.000  C
  Zn7      1.0000 0.60358  0.99896  0.48278  Biso   1.000  Zn
  Zn8      1.0000 0.63385  0.84363  0.43094  Biso   1.000  Zn
  O31      1.0000 0.07610  0.60980  0.95380  Biso   1.000  O
  O32      1.0000 0.06532  0.68980  0.89718  Biso   1.000  O
  O33      1.0000 0.88720  0.60150  0.97000  Biso   1.000  O
  O34      1.0000 0.94040  0.51380  0.98090  Biso   1.000  O
  O35      1.0000 0.86480  0.72130  0.66047  Biso   1.000  O
  O36      1.0000 0.82660  0.73150  0.57840  Biso   1.000  O
  O37      1.0000 0.67770  0.85830  0.50018  Biso   1.000  O
  O38      1.0000 0.65290  0.94250  0.54128  Biso   1.000  O
  O39      1.0000 0.63980  0.05960  0.89949  Biso   1.000  O
  O40      1.0000 0.64960  0.97250  0.95690  Biso   1.000  O
  N19      1.0000 0.83800  0.79000  0.85330  Biso   1.000  N
  N20      1.0000 0.82840  0.82290  0.77318  Biso   1.000  N
  N21      1.0000 0.77130  0.86160  0.79794  Biso   1.000  N
  N22      1.0000 0.89310  0.75990  0.82601  Biso   1.000  N
  H40      1.0000 0.90250  0.77030  0.80410  Biso   1.000  H
  N23      1.0000 0.75970  0.88020  0.71893  Biso   1.000  N
  H41      1.0000 0.73880  0.91340  0.71700  Biso   1.000  H
  N24      1.0000 0.78550  0.82920  0.87910  Biso   1.000  N
  H42      1.0000 0.80220  0.80080  0.90410  Biso   1.000  H
  C79      1.0000 0.85290  0.78950  0.81820  Biso   1.000  C
  C80      1.0000 0.79850  0.82490  0.84190  Biso   1.000  C
  C81      1.0000 0.78970  0.85250  0.76510  Biso   1.000  C
  C82      1.0000 0.92400  0.71230  0.86580  Biso   1.000  C
  C83      1.0000 0.96850  0.70260  0.87250  Biso   1.000  C
  H43      1.0000 0.97880  0.72900  0.85230  Biso   1.000  H
  C84      1.0000 0.99960  0.65310  0.90950  Biso   1.000  C
  C85      1.0000 0.98250  0.61520  0.93900  Biso   1.000  C
  H44      1.0000 0.00220  0.58280  0.96420  Biso   1.000  H
  C86      1.0000 0.93910  0.62490  0.93160  Biso   1.000  C
  C87      1.0000 0.90680  0.67490  0.89500  Biso   1.000  C
  H45      1.0000 0.87630  0.68190  0.89100  Biso   1.000  H
  C88      1.0000 0.92080  0.57520  0.96240  Biso   1.000  C
  C89      1.0000 0.04980  0.63940  0.91940  Biso   1.000  C
  C90      1.0000 0.76120  0.85750  0.67460  Biso   1.000  C
  C91      1.0000 0.79630  0.81610  0.67050  Biso   1.000  C
  H46      1.0000 0.82210  0.80070  0.69900  Biso   1.000  H
  C92      1.0000 0.79430  0.79670  0.62500  Biso   1.000  C
  C93      1.0000 0.83030  0.74710  0.62180  Biso   1.000  C
  C94      1.0000 0.75720  0.82190  0.58250  Biso   1.000  C
  H47      1.0000 0.75560  0.80990  0.55190  Biso   1.000  H
  C95      1.0000 0.72190  0.86610  0.58620  Biso   1.000  C
  C96      1.0000 0.67940  0.89150  0.53930  Biso   1.000  C
  C97      1.0000 0.72280  0.88290  0.63110  Biso   1.000  C
  H48      1.0000 0.69850  0.91070  0.63270  Biso   1.000  H
  C98      1.0000 0.75150  0.86940  0.88450  Biso   1.000  C
  C99      1.0000 0.72580  0.93280  0.85600  Biso   1.000  C
  H49      1.0000 0.73030  0.94920  0.82910  Biso   1.000  H
  C100     1.0000 0.69480  0.96980  0.86770  Biso   1.000  C
  H50      1.0000 0.67750  0.01050  0.84790  Biso   1.000  H
  C101     1.0000 0.68780  0.94870  0.90880  Biso   1.000  C
  C102     1.0000 0.70990  0.88490  0.93410  Biso   1.000  C
  H51      1.0000 0.70370  0.86770  0.95970  Biso   1.000  H
  C103     1.0000 0.74050  0.84540  0.92340  Biso   1.000  C
  H52      1.0000 0.75500  0.80160  0.94160  Biso   1.000  H
  C104     1.0000 0.65660  0.00230  0.92330  Biso   1.000  C
  Zn9      1.0000 0.10358  0.50104  0.98278  Biso   1.000  Zn
  Zn10     1.0000 0.13385  0.65637  0.93094  Biso   1.000  Zn
  O41      1.0000 0.57610  0.89020  0.45380  Biso   1.000  O
  O42      1.0000 0.56532  0.81020  0.39718  Biso   1.000  O
  O43      1.0000 0.38720  0.89850  0.47000  Biso   1.000  O
  O44      1.0000 0.44040  0.98620  0.48090  Biso   1.000  O
  O45      1.0000 0.36480  0.77870  0.16047  Biso   1.000  O
  O46      1.0000 0.32660  0.76850  0.07840  Biso   1.000  O
  O47      1.0000 0.17770  0.64170  0.00018  Biso   1.000  O
  O48      1.0000 0.15290  0.55750  0.04128  Biso   1.000  O
  O49      1.0000 0.13980  0.44040  0.39949  Biso   1.000  O
  O50      1.0000 0.14960  0.52750  0.45690  Biso   1.000  O
  N25      1.0000 0.33800  0.71000  0.35330  Biso   1.000  N
  N26      1.0000 0.32840  0.67710  0.27318  Biso   1.000  N
  N27      1.0000 0.27130  0.63840  0.29794  Biso   1.000  N
  N28      1.0000 0.39310  0.74010  0.32601  Biso   1.000  N
  H53      1.0000 0.40250  0.72970  0.30410  Biso   1.000  H
  N29      1.0000 0.25970  0.61980  0.21893  Biso   1.000  N
  H54      1.0000 0.23880  0.58660  0.21700  Biso   1.000  H
  N30      1.0000 0.28550  0.67080  0.37910  Biso   1.000  N
  H55      1.0000 0.30220  0.69920  0.40410  Biso   1.000  H
  C105     1.0000 0.35290  0.71050  0.31820  Biso   1.000  C
  C106     1.0000 0.29850  0.67510  0.34190  Biso   1.000  C
  C107     1.0000 0.28970  0.64750  0.26510  Biso   1.000  C
  C108     1.0000 0.42400  0.78770  0.36580  Biso   1.000  C
  C109     1.0000 0.46850  0.79740  0.37250  Biso   1.000  C
  H56      1.0000 0.47880  0.77100  0.35230  Biso   1.000  H
  C110     1.0000 0.49960  0.84690  0.40950  Biso   1.000  C
  C111     1.0000 0.48250  0.88480  0.43900  Biso   1.000  C
  H57      1.0000 0.50220  0.91720  0.46420  Biso   1.000  H
  C112     1.0000 0.43910  0.87510  0.43160  Biso   1.000  C
  C113     1.0000 0.40680  0.82510  0.39500  Biso   1.000  C
  H58      1.0000 0.37630  0.81810  0.39100  Biso   1.000  H
  C114     1.0000 0.42080  0.92480  0.46240  Biso   1.000  C
  C115     1.0000 0.54980  0.86060  0.41940  Biso   1.000  C
  C116     1.0000 0.26120  0.64250  0.17460  Biso   1.000  C
  C117     1.0000 0.29630  0.68390  0.17050  Biso   1.000  C
  H59      1.0000 0.32210  0.69930  0.19900  Biso   1.000  H
  C118     1.0000 0.29430  0.70330  0.12500  Biso   1.000  C
  C119     1.0000 0.33030  0.75290  0.12180  Biso   1.000  C
  C120     1.0000 0.25720  0.67810  0.08250  Biso   1.000  C
  H60      1.0000 0.25560  0.69010  0.05190  Biso   1.000  H
  C121     1.0000 0.22190  0.63390  0.08620  Biso   1.000  C
  C122     1.0000 0.17940  0.60850  0.03930  Biso   1.000  C
  C123     1.0000 0.22280  0.61710  0.13110  Biso   1.000  C
  H61      1.0000 0.19850  0.58930  0.13270  Biso   1.000  H
  C124     1.0000 0.25150  0.63060  0.38450  Biso   1.000  C
  C125     1.0000 0.22580  0.56720  0.35600  Biso   1.000  C
  H62      1.0000 0.23030  0.55080  0.32910  Biso   1.000  H
  C126     1.0000 0.19480  0.53020  0.36770  Biso   1.000  C
  H63      1.0000 0.17750  0.48950  0.34790  Biso   1.000  H
  C127     1.0000 0.18780  0.55130  0.40880  Biso   1.000  C
  C128     1.0000 0.20990  0.61510  0.43410  Biso   1.000  C
  H64      1.0000 0.20370  0.63230  0.45970  Biso   1.000  H
  C129     1.0000 0.24050  0.65460  0.42340  Biso   1.000  C
  H65      1.0000 0.25500  0.69840  0.44160  Biso   1.000  H
  C130     1.0000 0.15660  0.49770  0.42330  Biso   1.000  C
  Zn11     1.0000 0.60358  0.00104  0.98278  Biso   1.000  Zn
  Zn12     1.0000 0.63385  0.15637  0.93094  Biso   1.000  Zn
  O51      1.0000 0.07610  0.39020  0.45380  Biso   1.000  O
  O52      1.0000 0.06532  0.31020  0.39718  Biso   1.000  O
  O53      1.0000 0.88720  0.39850  0.47000  Biso   1.000  O
  O54      1.0000 0.94040  0.48620  0.48090  Biso   1.000  O
  O55      1.0000 0.86480  0.27870  0.16047  Biso   1.000  O
  O56      1.0000 0.82660  0.26850  0.07840  Biso   1.000  O
  O57      1.0000 0.67770  0.14170  0.00018  Biso   1.000  O
  O58      1.0000 0.65290  0.05750  0.04128  Biso   1.000  O
  O59      1.0000 0.63980  0.94040  0.39949  Biso   1.000  O
  O60      1.0000 0.64960  0.02750  0.45690  Biso   1.000  O
  N31      1.0000 0.83800  0.21000  0.35330  Biso   1.000  N
  N32      1.0000 0.82840  0.17710  0.27318  Biso   1.000  N
  N33      1.0000 0.77130  0.13840  0.29794  Biso   1.000  N
  N34      1.0000 0.89310  0.24010  0.32601  Biso   1.000  N
  H66      1.0000 0.90250  0.22970  0.30410  Biso   1.000  H
  N35      1.0000 0.75970  0.11980  0.21893  Biso   1.000  N
  H67      1.0000 0.73880  0.08660  0.21700  Biso   1.000  H
  N36      1.0000 0.78550  0.17080  0.37910  Biso   1.000  N
  H68      1.0000 0.80220  0.19920  0.40410  Biso   1.000  H
  C131     1.0000 0.85290  0.21050  0.31820  Biso   1.000  C
  C132     1.0000 0.79850  0.17510  0.34190  Biso   1.000  C
  C133     1.0000 0.78970  0.14750  0.26510  Biso   1.000  C
  C134     1.0000 0.92400  0.28770  0.36580  Biso   1.000  C
  C135     1.0000 0.96850  0.29740  0.37250  Biso   1.000  C
  H69      1.0000 0.97880  0.27100  0.35230  Biso   1.000  H
  C136     1.0000 0.99960  0.34690  0.40950  Biso   1.000  C
  C137     1.0000 0.98250  0.38480  0.43900  Biso   1.000  C
  H70      1.0000 0.00220  0.41720  0.46420  Biso   1.000  H
  C138     1.0000 0.93910  0.37510  0.43160  Biso   1.000  C
  C139     1.0000 0.90680  0.32510  0.39500  Biso   1.000  C
  H71      1.0000 0.87630  0.31810  0.39100  Biso   1.000  H
  C140     1.0000 0.92080  0.42480  0.46240  Biso   1.000  C
  C141     1.0000 0.04980  0.36060  0.41940  Biso   1.000  C
  C142     1.0000 0.76120  0.14250  0.17460  Biso   1.000  C
  C143     1.0000 0.79630  0.18390  0.17050  Biso   1.000  C
  H72      1.0000 0.82210  0.19930  0.19900  Biso   1.000  H
  C144     1.0000 0.79430  0.20330  0.12500  Biso   1.000  C
  C145     1.0000 0.83030  0.25290  0.12180  Biso   1.000  C
  C146     1.0000 0.75720  0.17810  0.08250  Biso   1.000  C
  H73      1.0000 0.75560  0.19010  0.05190  Biso   1.000  H
  C147     1.0000 0.72190  0.13390  0.08620  Biso   1.000  C
  C148     1.0000 0.67940  0.10850  0.03930  Biso   1.000  C
  C149     1.0000 0.72280  0.11710  0.13110  Biso   1.000  C
  H74      1.0000 0.69850  0.08930  0.13270  Biso   1.000  H
  C150     1.0000 0.75150  0.13060  0.38450  Biso   1.000  C
  C151     1.0000 0.72580  0.06720  0.35600  Biso   1.000  C
  H75      1.0000 0.73030  0.05080  0.32910  Biso   1.000  H
  C152     1.0000 0.69480  0.03020  0.36770  Biso   1.000  C
  H76      1.0000 0.67750  0.98950  0.34790  Biso   1.000  H
  C153     1.0000 0.68780  0.05130  0.40880  Biso   1.000  C
  C154     1.0000 0.70990  0.11510  0.43410  Biso   1.000  C
  H77      1.0000 0.70370  0.13230  0.45970  Biso   1.000  H
  C155     1.0000 0.74050  0.15460  0.42340  Biso   1.000  C
  H78      1.0000 0.75500  0.19840  0.44160  Biso   1.000  H
  C156     1.0000 0.65660  0.99770  0.42330  Biso   1.000  C
  Zn13     1.0000 0.89642  0.50104  0.51722  Biso   1.000  Zn
  Zn14     1.0000 0.86615  0.65637  0.56906  Biso   1.000  Zn
  O61      1.0000 0.42390  0.89020  0.04620  Biso   1.000  O
  O62      1.0000 0.43468  0.81020  0.10282  Biso   1.000  O
  O63      1.0000 0.61280  0.89850  0.03000  Biso   1.000  O
  O64      1.0000 0.55960  0.98620  0.01910  Biso   1.000  O
  O65      1.0000 0.63520  0.77870  0.33953  Biso   1.000  O
  O66      1.0000 0.67340  0.76850  0.42160  Biso   1.000  O
  O67      1.0000 0.82230  0.64170  0.49982  Biso   1.000  O
  O68      1.0000 0.84710  0.55750  0.45872  Biso   1.000  O
  O69      1.0000 0.86020  0.44040  0.10051  Biso   1.000  O
  O70      1.0000 0.85040  0.52750  0.04310  Biso   1.000  O
  N37      1.0000 0.66200  0.71000  0.14670  Biso   1.000  N
  N38      1.0000 0.67160  0.67710  0.22682  Biso   1.000  N
  N39      1.0000 0.72870  0.63840  0.20206  Biso   1.000  N
  N40      1.0000 0.60690  0.74010  0.17399  Biso   1.000  N
  H79      1.0000 0.59750  0.72970  0.19590  Biso   1.000  H
  N41      1.0000 0.74030  0.61980  0.28107  Biso   1.000  N
  H80      1.0000 0.76120  0.58660  0.28300  Biso   1.000  H
  N42      1.0000 0.71450  0.67080  0.12090  Biso   1.000  N
  H81      1.0000 0.69780  0.69920  0.09590  Biso   1.000  H
  C157     1.0000 0.64710  0.71050  0.18180  Biso   1.000  C
  C158     1.0000 0.70150  0.67510  0.15810  Biso   1.000  C
  C159     1.0000 0.71030  0.64750  0.23490  Biso   1.000  C
  C160     1.0000 0.57600  0.78770  0.13420  Biso   1.000  C
  C161     1.0000 0.53150  0.79740  0.12750  Biso   1.000  C
  H82      1.0000 0.52120  0.77100  0.14770  Biso   1.000  H
  C162     1.0000 0.50040  0.84690  0.09050  Biso   1.000  C
  C163     1.0000 0.51750  0.88480  0.06100  Biso   1.000  C
  H83      1.0000 0.49780  0.91720  0.03580  Biso   1.000  H
  C164     1.0000 0.56090  0.87510  0.06840  Biso   1.000  C
  C165     1.0000 0.59320  0.82510  0.10500  Biso   1.000  C
  H84      1.0000 0.62370  0.81810  0.10900  Biso   1.000  H
  C166     1.0000 0.57920  0.92480  0.03760  Biso   1.000  C
  C167     1.0000 0.45020  0.86060  0.08060  Biso   1.000  C
  C168     1.0000 0.73880  0.64250  0.32540  Biso   1.000  C
  C169     1.0000 0.70370  0.68390  0.32950  Biso   1.000  C
  H85      1.0000 0.67790  0.69930  0.30100  Biso   1.000  H
  C170     1.0000 0.70570  0.70330  0.37500  Biso   1.000  C
  C171     1.0000 0.66970  0.75290  0.37820  Biso   1.000  C
  C172     1.0000 0.74280  0.67810  0.41750  Biso   1.000  C
  H86      1.0000 0.74440  0.69010  0.44810  Biso   1.000  H
  C173     1.0000 0.77810  0.63390  0.41380  Biso   1.000  C
  C174     1.0000 0.82060  0.60850  0.46070  Biso   1.000  C
  C175     1.0000 0.77720  0.61710  0.36890  Biso   1.000  C
  H87      1.0000 0.80150  0.58930  0.36730  Biso   1.000  H
  C176     1.0000 0.74850  0.63060  0.11550  Biso   1.000  C
  C177     1.0000 0.77420  0.56720  0.14400  Biso   1.000  C
  H88      1.0000 0.76970  0.55080  0.17090  Biso   1.000  H
  C178     1.0000 0.80520  0.53020  0.13230  Biso   1.000  C
  H89      1.0000 0.82250  0.48950  0.15210  Biso   1.000  H
  C179     1.0000 0.81220  0.55130  0.09120  Biso   1.000  C
  C180     1.0000 0.79010  0.61510  0.06590  Biso   1.000  C
  H90      1.0000 0.79630  0.63230  0.04030  Biso   1.000  H
  C181     1.0000 0.75950  0.65460  0.07660  Biso   1.000  C
  H91      1.0000 0.74500  0.69840  0.05840  Biso   1.000  H
  C182     1.0000 0.84340  0.49770  0.07670  Biso   1.000  C
  Zn15     1.0000 0.39642  0.00104  0.51722  Biso   1.000  Zn
  Zn16     1.0000 0.36615  0.15637  0.56906  Biso   1.000  Zn
  O71      1.0000 0.92390  0.39020  0.04620  Biso   1.000  O
  O72      1.0000 0.93468  0.31020  0.10282  Biso   1.000  O
  O73      1.0000 0.11280  0.39850  0.03000  Biso   1.000  O
  O74      1.0000 0.05960  0.48620  0.01910  Biso   1.000  O
  O75      1.0000 0.13520  0.27870  0.33953  Biso   1.000  O
  O76      1.0000 0.17340  0.26850  0.42160  Biso   1.000  O
  O77      1.0000 0.32230  0.14170  0.49982  Biso   1.000  O
  O78      1.0000 0.34710  0.05750  0.45872  Biso   1.000  O
  O79      1.0000 0.36020  0.94040  0.10051  Biso   1.000  O
  O80      1.0000 0.35040  0.02750  0.04310  Biso   1.000  O
  N43      1.0000 0.16200  0.21000  0.14670  Biso   1.000  N
  N44      1.0000 0.17160  0.17710  0.22682  Biso   1.000  N
  N45      1.0000 0.22870  0.13840  0.20206  Biso   1.000  N
  N46      1.0000 0.10690  0.24010  0.17399  Biso   1.000  N
  H92      1.0000 0.09750  0.22970  0.19590  Biso   1.000  H
  N47      1.0000 0.24030  0.11980  0.28107  Biso   1.000  N
  H93      1.0000 0.26120  0.08660  0.28300  Biso   1.000  H
  N48      1.0000 0.21450  0.17080  0.12090  Biso   1.000  N
  H94      1.0000 0.19780  0.19920  0.09590  Biso   1.000  H
  C183     1.0000 0.14710  0.21050  0.18180  Biso   1.000  C
  C184     1.0000 0.20150  0.17510  0.15810  Biso   1.000  C
  C185     1.0000 0.21030  0.14750  0.23490  Biso   1.000  C
  C186     1.0000 0.07600  0.28770  0.13420  Biso   1.000  C
  C187     1.0000 0.03150  0.29740  0.12750  Biso   1.000  C
  H95      1.0000 0.02120  0.27100  0.14770  Biso   1.000  H
  C188     1.0000 0.00040  0.34690  0.09050  Biso   1.000  C
  C189     1.0000 0.01750  0.38480  0.06100  Biso   1.000  C
  H96      1.0000 0.99780  0.41720  0.03580  Biso   1.000  H
  C190     1.0000 0.06090  0.37510  0.06840  Biso   1.000  C
  C191     1.0000 0.09320  0.32510  0.10500  Biso   1.000  C
  H97      1.0000 0.12370  0.31810  0.10900  Biso   1.000  H
  C192     1.0000 0.07920  0.42480  0.03760  Biso   1.000  C
  C193     1.0000 0.95020  0.36060  0.08060  Biso   1.000  C
  C194     1.0000 0.23880  0.14250  0.32540  Biso   1.000  C
  C195     1.0000 0.20370  0.18390  0.32950  Biso   1.000  C
  H98      1.0000 0.17790  0.19930  0.30100  Biso   1.000  H
  C196     1.0000 0.20570  0.20330  0.37500  Biso   1.000  C
  C197     1.0000 0.16970  0.25290  0.37820  Biso   1.000  C
  C198     1.0000 0.24280  0.17810  0.41750  Biso   1.000  C
  H99      1.0000 0.24440  0.19010  0.44810  Biso   1.000  H
  C199     1.0000 0.27810  0.13390  0.41380  Biso   1.000  C
  C200     1.0000 0.32060  0.10850  0.46070  Biso   1.000  C
  C201     1.0000 0.27720  0.11710  0.36890  Biso   1.000  C
  H100     1.0000 0.30150  0.08930  0.36730  Biso   1.000  H
  C202     1.0000 0.24850  0.13060  0.11550  Biso   1.000  C
  C203     1.0000 0.27420  0.06720  0.14400  Biso   1.000  C
  H101     1.0000 0.26970  0.05080  0.17090  Biso   1.000  H
  C204     1.0000 0.30520  0.03020  0.13230  Biso   1.000  C
  H102     1.0000 0.32250  0.98950  0.15210  Biso   1.000  H
  C205     1.0000 0.31220  0.05130  0.09120  Biso   1.000  C
  C206     1.0000 0.29010  0.11510  0.06590  Biso   1.000  C
  H103     1.0000 0.29630  0.13230  0.04030  Biso   1.000  H
  C207     1.0000 0.25950  0.15460  0.07660  Biso   1.000  C
  H104     1.0000 0.24500  0.19840  0.05840  Biso   1.000  H
  C208     1.0000 0.34340  0.99770  0.07670  Biso   1.000  C
