data_image0
_cell_length_a       9.674
_cell_length_b       11.761
_cell_length_c       12.315
_cell_angle_alpha    90
_cell_angle_beta     99.285
_cell_angle_gamma    90

_symmetry_space_group_name_H-M    "P 1"
_symmetry_int_tables_number       1

loop_
  _symmetry_equiv_pos_as_xyz
  'x, y, z'

loop_
  _atom_site_label
  _atom_site_occupancy
  _atom_site_fract_x
  _atom_site_fract_y
  _atom_site_fract_z
  _atom_site_thermal_displace_type
  _atom_site_B_iso_or_equiv
  _atom_site_type_symbol
  Eu1      1.0000 0.71368  0.51552  0.33081  Biso   1.000  Eu
  O1       1.0000 0.80700  0.64090  0.20550  Biso   1.000  O
  O2       1.0000 0.86600  0.81940  0.17260  Biso   1.000  O
  O3       1.0000 0.63960  0.71590  0.34350  Biso   1.000  O
  O4       1.0000 0.68510  0.89500  0.30060  Biso   1.000  O
  O5       1.0000 0.68130  0.51150  0.52240  Biso   1.000  O
  O6       1.0000 0.53350  0.48540  0.64280  Biso   1.000  O
  O7       1.0000 0.91600  0.61820  0.43410  Biso   1.000  O
  O8       1.0000 0.10060  0.60880  0.56730  Biso   1.000  O
  C1       1.0000 0.80020  0.74550  0.21750  Biso   1.000  C
  C2       1.0000 0.69900  0.78970  0.29460  Biso   1.000  C
  C3       1.0000 0.56250  0.49920  0.54740  Biso   1.000  C
  C4       1.0000 0.00460  0.56570  0.49970  Biso   1.000  C
  Eu2      1.0000 0.78632  0.01552  0.16919  Biso   1.000  Eu
  O9       1.0000 0.69300  0.14090  0.29450  Biso   1.000  O
  O10      1.0000 0.63400  0.31940  0.32740  Biso   1.000  O
  O11      1.0000 0.86040  0.21590  0.15650  Biso   1.000  O
  O12      1.0000 0.81490  0.39500  0.19940  Biso   1.000  O
  O13      1.0000 0.81870  0.01150  0.97760  Biso   1.000  O
  O14      1.0000 0.96650  0.98540  0.85720  Biso   1.000  O
  O15      1.0000 0.58400  0.11820  0.06590  Biso   1.000  O
  O16      1.0000 0.39940  0.10880  0.93270  Biso   1.000  O
  C5       1.0000 0.69980  0.24550  0.28250  Biso   1.000  C
  C6       1.0000 0.80100  0.28970  0.20540  Biso   1.000  C
  C7       1.0000 0.93750  0.99920  0.95260  Biso   1.000  C
  C8       1.0000 0.49540  0.06570  0.00030  Biso   1.000  C
  Eu3      1.0000 0.28632  0.48448  0.66919  Biso   1.000  Eu
  O17      1.0000 0.19300  0.35910  0.79450  Biso   1.000  O
  O18      1.0000 0.13400  0.18060  0.82740  Biso   1.000  O
  O19      1.0000 0.36040  0.28410  0.65650  Biso   1.000  O
  O20      1.0000 0.31490  0.10500  0.69940  Biso   1.000  O
  O21      1.0000 0.31870  0.48850  0.47760  Biso   1.000  O
  O22      1.0000 0.46650  0.51460  0.35720  Biso   1.000  O
  O23      1.0000 0.08400  0.38180  0.56590  Biso   1.000  O
  O24      1.0000 0.89940  0.39120  0.43270  Biso   1.000  O
  C9       1.0000 0.19980  0.25450  0.78250  Biso   1.000  C
  C10      1.0000 0.30100  0.21030  0.70540  Biso   1.000  C
  C11      1.0000 0.43750  0.50080  0.45260  Biso   1.000  C
  C12      1.0000 0.99540  0.43430  0.50030  Biso   1.000  C
  Eu4      1.0000 0.21368  0.98448  0.83081  Biso   1.000  Eu
  O25      1.0000 0.30700  0.85910  0.70550  Biso   1.000  O
  O26      1.0000 0.36600  0.68060  0.67260  Biso   1.000  O
  O27      1.0000 0.13960  0.78410  0.84350  Biso   1.000  O
  O28      1.0000 0.18510  0.60500  0.80060  Biso   1.000  O
  O29      1.0000 0.18130  0.98850  0.02240  Biso   1.000  O
  O30      1.0000 0.03350  0.01460  0.14280  Biso   1.000  O
  O31      1.0000 0.41600  0.88180  0.93410  Biso   1.000  O
  O32      1.0000 0.60060  0.89120  0.06730  Biso   1.000  O
  C13      1.0000 0.30020  0.75450  0.71750  Biso   1.000  C
  C14      1.0000 0.19900  0.71030  0.79460  Biso   1.000  C
  C15      1.0000 0.06250  0.00080  0.04740  Biso   1.000  C
  C16      1.0000 0.50460  0.93430  0.99970  Biso   1.000  C
