data_image0
_cell_length_a       25.686
_cell_length_b       31.77
_cell_length_c       25.129
_cell_angle_alpha    90
_cell_angle_beta     90
_cell_angle_gamma    90

_symmetry_space_group_name_H-M    "P 1"
_symmetry_int_tables_number       1

loop_
  _symmetry_equiv_pos_as_xyz
  'x, y, z'

loop_
  _atom_site_label
  _atom_site_occupancy
  _atom_site_fract_x
  _atom_site_fract_y
  _atom_site_fract_z
  _atom_site_thermal_displace_type
  _atom_site_B_iso_or_equiv
  _atom_site_type_symbol
  Mo1      1.0000 0.19570  0.02305  0.40609  Biso   1.000  Mo
  Mo2      1.0000 0.33500  0.17227  0.33934  Biso   1.000  Mo
  Mo3      1.0000 0.20759  0.19747  0.36732  Biso   1.000  Mo
  Mo4      1.0000 0.16164  0.07993  0.52642  Biso   1.000  Mo
  Mo5      1.0000 0.29985  0.22884  0.45956  Biso   1.000  Mo
  Mo6      1.0000 0.39511  0.04403  0.46300  Biso   1.000  Mo
  Mo7      1.0000 0.29508  0.01112  0.38190  Biso   1.000  Mo
  Mo8      1.0000 0.31215  0.19319  0.55378  Biso   1.000  Mo
  Mo9      1.0000 0.36471  0.09447  0.56939  Biso   1.000  Mo
  Mo10     1.0000 0.37327  0.09513  0.34472  Biso   1.000  Mo
  Mo11     1.0000 0.23416  0.10919  0.59101  Biso   1.000  Mo
  Mo12     1.0000 0.13532  0.12010  0.40217  Biso   1.000  Mo
  Zn1      1.0000 0.23562  0.09949  0.31447  Biso   1.000  Zn
  Zn2      1.0000 0.27970  0.01695  0.52239  Biso   1.000  Zn
  Zn3      1.0000 0.40608  0.15316  0.46173  Biso   1.000  Zn
  Zn4      1.0000 0.18201  0.18692  0.50137  Biso   1.000  Zn
  C1       1.0000 0.25170  0.10630  0.19880  Biso   1.000  C
  H1       1.0000 0.27460  0.12760  0.20880  Biso   1.000  H
  C2       1.0000 0.25200  0.09400  0.14780  Biso   1.000  C
  H2       1.0000 0.27400  0.10700  0.12350  Biso   1.000  H
  C3       1.0000 0.21890  0.06130  0.13130  Biso   1.000  C
  C4       1.0000 0.18340  0.04490  0.17000  Biso   1.000  C
  H3       1.0000 0.15950  0.02420  0.16090  Biso   1.000  H
  C5       1.0000 0.18560  0.06060  0.22110  Biso   1.000  C
  H4       1.0000 0.16170  0.05040  0.24570  Biso   1.000  H
  C6       1.0000 0.22190  0.04160  0.07750  Biso   1.000  C
  C7       1.0000 0.08170  0.19980  0.55020  Biso   1.000  C
  H5       1.0000 0.08590  0.17180  0.56030  Biso   1.000  H
  C8       1.0000 0.03530  0.22100  0.56020  Biso   1.000  C
  H6       1.0000 0.00820  0.20660  0.57670  Biso   1.000  H
  C9       1.0000 0.02830  0.26140  0.54690  Biso   1.000  C
  C10      1.0000 0.06870  0.28240  0.52340  Biso   1.000  C
  H7       1.0000 0.06620  0.31050  0.51340  Biso   1.000  H
  C11      1.0000 0.11330  0.25930  0.51530  Biso   1.000  C
  H8       1.0000 0.14160  0.27350  0.50080  Biso   1.000  H
  C12      1.0000 0.97700  0.28300  0.55760  Biso   1.000  C
  N1       1.0000 0.21990  0.08960  0.23740  Biso   1.000  N
  N2       1.0000 0.11960  0.22030  0.52590  Biso   1.000  N
  O1       1.0000 0.34840  0.04160  0.52680  Biso   1.000  O
  O2       1.0000 0.30560  0.08560  0.60740  Biso   1.000  O
  O3       1.0000 0.36690  0.15160  0.57780  Biso   1.000  O
  O4       1.0000 0.24930  0.21150  0.51320  Biso   1.000  O
  O5       1.0000 0.41840  0.06950  0.40160  Biso   1.000  O
  O6       1.0000 0.34080  0.22490  0.38910  Biso   1.000  O
  O7       1.0000 0.11630  0.10850  0.47040  Biso   1.000  O
  O8       1.0000 0.26560  0.16370  0.60150  Biso   1.000  O
  O9       1.0000 0.35560  0.00360  0.43340  Biso   1.000  O
  O10      1.0000 0.14400  0.06530  0.37960  Biso   1.000  O
  O11      1.0000 0.26310  0.19190  0.32200  Biso   1.000  O
  O12      1.0000 0.23560  0.23550  0.41300  Biso   1.000  O
  O13      1.0000 0.25620  0.00610  0.44930  Biso   1.000  O
  O14      1.0000 0.22670  0.05600  0.55210  Biso   1.000  O
  O15      1.0000 0.40130  0.10090  0.49890  Biso   1.000  O
  O16      1.0000 0.38650  0.14630  0.38640  Biso   1.000  O
  O17      1.0000 0.30850  0.11730  0.31570  Biso   1.000  O
  O18      1.0000 0.35550  0.19440  0.49020  Biso   1.000  O
  O19      1.0000 0.15790  0.02570  0.47940  Biso   1.000  O
  O20      1.0000 0.18890  0.13820  0.34700  Biso   1.000  O
  O21      1.0000 0.16400  0.17470  0.42740  Biso   1.000  O
  O22      1.0000 0.34290  0.03930  0.33750  Biso   1.000  O
  O23      1.0000 0.23970  0.04450  0.34800  Biso   1.000  O
  O24      1.0000 0.18130  0.13720  0.54560  Biso   1.000  O
  O25      1.0000 0.26920  0.03380  0.06340  Biso   1.000  O
  O26      1.0000 0.18120  0.03340  0.05370  Biso   1.000  O
  O27      1.0000 0.94350  0.26410  0.58250  Biso   1.000  O
  O28      1.0000 0.97420  0.32010  0.53740  Biso   1.000  O
  Mo13     1.0000 0.69570  0.47695  0.59391  Biso   1.000  Mo
  Mo14     1.0000 0.83500  0.32773  0.66066  Biso   1.000  Mo
  Mo15     1.0000 0.70759  0.30253  0.63268  Biso   1.000  Mo
  Mo16     1.0000 0.66164  0.42007  0.47358  Biso   1.000  Mo
  Mo17     1.0000 0.79985  0.27116  0.54044  Biso   1.000  Mo
  Mo18     1.0000 0.89511  0.45597  0.53700  Biso   1.000  Mo
  Mo19     1.0000 0.79508  0.48888  0.61810  Biso   1.000  Mo
  Mo20     1.0000 0.81215  0.30681  0.44622  Biso   1.000  Mo
  Mo21     1.0000 0.86471  0.40553  0.43061  Biso   1.000  Mo
  Mo22     1.0000 0.87327  0.40487  0.65528  Biso   1.000  Mo
  Mo23     1.0000 0.73416  0.39081  0.40899  Biso   1.000  Mo
  Mo24     1.0000 0.63532  0.37990  0.59783  Biso   1.000  Mo
  Zn5      1.0000 0.73562  0.40051  0.68553  Biso   1.000  Zn
  Zn6      1.0000 0.77970  0.48305  0.47761  Biso   1.000  Zn
  Zn7      1.0000 0.90608  0.34684  0.53827  Biso   1.000  Zn
  Zn8      1.0000 0.68201  0.31308  0.49863  Biso   1.000  Zn
  C13      1.0000 0.75170  0.39370  0.80120  Biso   1.000  C
  H9       1.0000 0.77460  0.37240  0.79120  Biso   1.000  H
  C14      1.0000 0.75200  0.40600  0.85220  Biso   1.000  C
  H10      1.0000 0.77400  0.39300  0.87650  Biso   1.000  H
  C15      1.0000 0.71890  0.43870  0.86870  Biso   1.000  C
  C16      1.0000 0.68340  0.45510  0.83000  Biso   1.000  C
  H11      1.0000 0.65950  0.47580  0.83910  Biso   1.000  H
  C17      1.0000 0.68560  0.43940  0.77890  Biso   1.000  C
  H12      1.0000 0.66170  0.44960  0.75430  Biso   1.000  H
  C18      1.0000 0.72190  0.45840  0.92250  Biso   1.000  C
  C19      1.0000 0.58170  0.30020  0.44980  Biso   1.000  C
  H13      1.0000 0.58590  0.32820  0.43970  Biso   1.000  H
  C20      1.0000 0.53530  0.27900  0.43980  Biso   1.000  C
  H14      1.0000 0.50820  0.29340  0.42330  Biso   1.000  H
  C21      1.0000 0.52830  0.23860  0.45310  Biso   1.000  C
  C22      1.0000 0.56870  0.21760  0.47660  Biso   1.000  C
  H15      1.0000 0.56620  0.18950  0.48660  Biso   1.000  H
  C23      1.0000 0.61330  0.24070  0.48470  Biso   1.000  C
  H16      1.0000 0.64160  0.22650  0.49920  Biso   1.000  H
  C24      1.0000 0.47700  0.21700  0.44240  Biso   1.000  C
  N3       1.0000 0.71990  0.41040  0.76260  Biso   1.000  N
  N4       1.0000 0.61960  0.27970  0.47410  Biso   1.000  N
  O29      1.0000 0.84840  0.45840  0.47320  Biso   1.000  O
  O30      1.0000 0.80560  0.41440  0.39260  Biso   1.000  O
  O31      1.0000 0.86690  0.34840  0.42220  Biso   1.000  O
  O32      1.0000 0.74930  0.28850  0.48680  Biso   1.000  O
  O33      1.0000 0.91840  0.43050  0.59840  Biso   1.000  O
  O34      1.0000 0.84080  0.27510  0.61090  Biso   1.000  O
  O35      1.0000 0.61630  0.39150  0.52960  Biso   1.000  O
  O36      1.0000 0.76560  0.33630  0.39850  Biso   1.000  O
  O37      1.0000 0.85560  0.49640  0.56660  Biso   1.000  O
  O38      1.0000 0.64400  0.43470  0.62040  Biso   1.000  O
  O39      1.0000 0.76310  0.30810  0.67800  Biso   1.000  O
  O40      1.0000 0.73560  0.26450  0.58700  Biso   1.000  O
  O41      1.0000 0.75620  0.49390  0.55070  Biso   1.000  O
  O42      1.0000 0.72670  0.44400  0.44790  Biso   1.000  O
  O43      1.0000 0.90130  0.39910  0.50110  Biso   1.000  O
  O44      1.0000 0.88650  0.35370  0.61360  Biso   1.000  O
  O45      1.0000 0.80850  0.38270  0.68430  Biso   1.000  O
  O46      1.0000 0.85550  0.30560  0.50980  Biso   1.000  O
  O47      1.0000 0.65790  0.47430  0.52060  Biso   1.000  O
  O48      1.0000 0.68890  0.36180  0.65300  Biso   1.000  O
  O49      1.0000 0.66400  0.32530  0.57260  Biso   1.000  O
  O50      1.0000 0.84290  0.46070  0.66250  Biso   1.000  O
  O51      1.0000 0.73970  0.45550  0.65200  Biso   1.000  O
  O52      1.0000 0.68130  0.36280  0.45440  Biso   1.000  O
  O53      1.0000 0.76920  0.46620  0.93660  Biso   1.000  O
  O54      1.0000 0.68120  0.46660  0.94630  Biso   1.000  O
  O55      1.0000 0.44350  0.23590  0.41750  Biso   1.000  O
  O56      1.0000 0.47420  0.17990  0.46260  Biso   1.000  O
  Mo25     1.0000 0.69570  0.52305  0.09391  Biso   1.000  Mo
  Mo26     1.0000 0.83500  0.67227  0.16066  Biso   1.000  Mo
  Mo27     1.0000 0.70759  0.69747  0.13268  Biso   1.000  Mo
  Mo28     1.0000 0.66164  0.57993  0.97358  Biso   1.000  Mo
  Mo29     1.0000 0.79985  0.72884  0.04044  Biso   1.000  Mo
  Mo30     1.0000 0.89511  0.54403  0.03700  Biso   1.000  Mo
  Mo31     1.0000 0.79508  0.51112  0.11810  Biso   1.000  Mo
  Mo32     1.0000 0.81215  0.69319  0.94622  Biso   1.000  Mo
  Mo33     1.0000 0.86471  0.59447  0.93061  Biso   1.000  Mo
  Mo34     1.0000 0.87327  0.59513  0.15528  Biso   1.000  Mo
  Mo35     1.0000 0.73416  0.60919  0.90899  Biso   1.000  Mo
  Mo36     1.0000 0.63532  0.62010  0.09783  Biso   1.000  Mo
  Zn9      1.0000 0.73562  0.59949  0.18553  Biso   1.000  Zn
  Zn10     1.0000 0.77970  0.51695  0.97761  Biso   1.000  Zn
  Zn11     1.0000 0.90608  0.65316  0.03827  Biso   1.000  Zn
  Zn12     1.0000 0.68201  0.68692  0.99863  Biso   1.000  Zn
  C25      1.0000 0.75170  0.60630  0.30120  Biso   1.000  C
  H17      1.0000 0.77460  0.62760  0.29120  Biso   1.000  H
  C26      1.0000 0.75200  0.59400  0.35220  Biso   1.000  C
  H18      1.0000 0.77400  0.60700  0.37650  Biso   1.000  H
  C27      1.0000 0.71890  0.56130  0.36870  Biso   1.000  C
  C28      1.0000 0.68340  0.54490  0.33000  Biso   1.000  C
  H19      1.0000 0.65950  0.52420  0.33910  Biso   1.000  H
  C29      1.0000 0.68560  0.56060  0.27890  Biso   1.000  C
  H20      1.0000 0.66170  0.55040  0.25430  Biso   1.000  H
  C30      1.0000 0.72190  0.54160  0.42250  Biso   1.000  C
  C31      1.0000 0.58170  0.69980  0.94980  Biso   1.000  C
  H21      1.0000 0.58590  0.67180  0.93970  Biso   1.000  H
  C32      1.0000 0.53530  0.72100  0.93980  Biso   1.000  C
  H22      1.0000 0.50820  0.70660  0.92330  Biso   1.000  H
  C33      1.0000 0.52830  0.76140  0.95310  Biso   1.000  C
  C34      1.0000 0.56870  0.78240  0.97660  Biso   1.000  C
  H23      1.0000 0.56620  0.81050  0.98660  Biso   1.000  H
  C35      1.0000 0.61330  0.75930  0.98470  Biso   1.000  C
  H24      1.0000 0.64160  0.77350  0.99920  Biso   1.000  H
  C36      1.0000 0.47700  0.78300  0.94240  Biso   1.000  C
  N5       1.0000 0.71990  0.58960  0.26260  Biso   1.000  N
  N6       1.0000 0.61960  0.72030  0.97410  Biso   1.000  N
  O57      1.0000 0.84840  0.54160  0.97320  Biso   1.000  O
  O58      1.0000 0.80560  0.58560  0.89260  Biso   1.000  O
  O59      1.0000 0.86690  0.65160  0.92220  Biso   1.000  O
  O60      1.0000 0.74930  0.71150  0.98680  Biso   1.000  O
  O61      1.0000 0.91840  0.56950  0.09840  Biso   1.000  O
  O62      1.0000 0.84080  0.72490  0.11090  Biso   1.000  O
  O63      1.0000 0.61630  0.60850  0.02960  Biso   1.000  O
  O64      1.0000 0.76560  0.66370  0.89850  Biso   1.000  O
  O65      1.0000 0.85560  0.50360  0.06660  Biso   1.000  O
  O66      1.0000 0.64400  0.56530  0.12040  Biso   1.000  O
  O67      1.0000 0.76310  0.69190  0.17800  Biso   1.000  O
  O68      1.0000 0.73560  0.73550  0.08700  Biso   1.000  O
  O69      1.0000 0.75620  0.50610  0.05070  Biso   1.000  O
  O70      1.0000 0.72670  0.55600  0.94790  Biso   1.000  O
  O71      1.0000 0.90130  0.60090  0.00110  Biso   1.000  O
  O72      1.0000 0.88650  0.64630  0.11360  Biso   1.000  O
  O73      1.0000 0.80850  0.61730  0.18430  Biso   1.000  O
  O74      1.0000 0.85550  0.69440  0.00980  Biso   1.000  O
  O75      1.0000 0.65790  0.52570  0.02060  Biso   1.000  O
  O76      1.0000 0.68890  0.63820  0.15300  Biso   1.000  O
  O77      1.0000 0.66400  0.67470  0.07260  Biso   1.000  O
  O78      1.0000 0.84290  0.53930  0.16250  Biso   1.000  O
  O79      1.0000 0.73970  0.54450  0.15200  Biso   1.000  O
  O80      1.0000 0.68130  0.63720  0.95440  Biso   1.000  O
  O81      1.0000 0.76920  0.53380  0.43660  Biso   1.000  O
  O82      1.0000 0.68120  0.53340  0.44630  Biso   1.000  O
  O83      1.0000 0.44350  0.76410  0.91750  Biso   1.000  O
  O84      1.0000 0.47420  0.82010  0.96260  Biso   1.000  O
  Mo37     1.0000 0.19570  0.97695  0.90609  Biso   1.000  Mo
  Mo38     1.0000 0.33500  0.82773  0.83934  Biso   1.000  Mo
  Mo39     1.0000 0.20759  0.80253  0.86732  Biso   1.000  Mo
  Mo40     1.0000 0.16164  0.92007  0.02642  Biso   1.000  Mo
  Mo41     1.0000 0.29985  0.77116  0.95956  Biso   1.000  Mo
  Mo42     1.0000 0.39511  0.95597  0.96300  Biso   1.000  Mo
  Mo43     1.0000 0.29508  0.98888  0.88190  Biso   1.000  Mo
  Mo44     1.0000 0.31215  0.80681  0.05378  Biso   1.000  Mo
  Mo45     1.0000 0.36471  0.90553  0.06939  Biso   1.000  Mo
  Mo46     1.0000 0.37327  0.90487  0.84472  Biso   1.000  Mo
  Mo47     1.0000 0.23416  0.89081  0.09101  Biso   1.000  Mo
  Mo48     1.0000 0.13532  0.87990  0.90217  Biso   1.000  Mo
  Zn13     1.0000 0.23562  0.90051  0.81447  Biso   1.000  Zn
  Zn14     1.0000 0.27970  0.98305  0.02239  Biso   1.000  Zn
  Zn15     1.0000 0.40608  0.84684  0.96173  Biso   1.000  Zn
  Zn16     1.0000 0.18201  0.81308  0.00137  Biso   1.000  Zn
  C37      1.0000 0.25170  0.89370  0.69880  Biso   1.000  C
  H25      1.0000 0.27460  0.87240  0.70880  Biso   1.000  H
  C38      1.0000 0.25200  0.90600  0.64780  Biso   1.000  C
  H26      1.0000 0.27400  0.89300  0.62350  Biso   1.000  H
  C39      1.0000 0.21890  0.93870  0.63130  Biso   1.000  C
  C40      1.0000 0.18340  0.95510  0.67000  Biso   1.000  C
  H27      1.0000 0.15950  0.97580  0.66090  Biso   1.000  H
  C41      1.0000 0.18560  0.93940  0.72110  Biso   1.000  C
  H28      1.0000 0.16170  0.94960  0.74570  Biso   1.000  H
  C42      1.0000 0.22190  0.95840  0.57750  Biso   1.000  C
  C43      1.0000 0.08170  0.80020  0.05020  Biso   1.000  C
  H29      1.0000 0.08590  0.82820  0.06030  Biso   1.000  H
  C44      1.0000 0.03530  0.77900  0.06020  Biso   1.000  C
  H30      1.0000 0.00820  0.79340  0.07670  Biso   1.000  H
  C45      1.0000 0.02830  0.73860  0.04690  Biso   1.000  C
  C46      1.0000 0.06870  0.71760  0.02340  Biso   1.000  C
  H31      1.0000 0.06620  0.68950  0.01340  Biso   1.000  H
  C47      1.0000 0.11330  0.74070  0.01530  Biso   1.000  C
  H32      1.0000 0.14160  0.72650  0.00080  Biso   1.000  H
  C48      1.0000 0.97700  0.71700  0.05760  Biso   1.000  C
  N7       1.0000 0.21990  0.91040  0.73740  Biso   1.000  N
  N8       1.0000 0.11960  0.77970  0.02590  Biso   1.000  N
  O85      1.0000 0.34840  0.95840  0.02680  Biso   1.000  O
  O86      1.0000 0.30560  0.91440  0.10740  Biso   1.000  O
  O87      1.0000 0.36690  0.84840  0.07780  Biso   1.000  O
  O88      1.0000 0.24930  0.78850  0.01320  Biso   1.000  O
  O89      1.0000 0.41840  0.93050  0.90160  Biso   1.000  O
  O90      1.0000 0.34080  0.77510  0.88910  Biso   1.000  O
  O91      1.0000 0.11630  0.89150  0.97040  Biso   1.000  O
  O92      1.0000 0.26560  0.83630  0.10150  Biso   1.000  O
  O93      1.0000 0.35560  0.99640  0.93340  Biso   1.000  O
  O94      1.0000 0.14400  0.93470  0.87960  Biso   1.000  O
  O95      1.0000 0.26310  0.80810  0.82200  Biso   1.000  O
  O96      1.0000 0.23560  0.76450  0.91300  Biso   1.000  O
  O97      1.0000 0.25620  0.99390  0.94930  Biso   1.000  O
  O98      1.0000 0.22670  0.94400  0.05210  Biso   1.000  O
  O99      1.0000 0.40130  0.89910  0.99890  Biso   1.000  O
  O100     1.0000 0.38650  0.85370  0.88640  Biso   1.000  O
  O101     1.0000 0.30850  0.88270  0.81570  Biso   1.000  O
  O102     1.0000 0.35550  0.80560  0.99020  Biso   1.000  O
  O103     1.0000 0.15790  0.97430  0.97940  Biso   1.000  O
  O104     1.0000 0.18890  0.86180  0.84700  Biso   1.000  O
  O105     1.0000 0.16400  0.82530  0.92740  Biso   1.000  O
  O106     1.0000 0.34290  0.96070  0.83750  Biso   1.000  O
  O107     1.0000 0.23970  0.95550  0.84800  Biso   1.000  O
  O108     1.0000 0.18130  0.86280  0.04560  Biso   1.000  O
  O109     1.0000 0.26920  0.96620  0.56340  Biso   1.000  O
  O110     1.0000 0.18120  0.96660  0.55370  Biso   1.000  O
  O111     1.0000 0.94350  0.73590  0.08250  Biso   1.000  O
  O112     1.0000 0.97420  0.67990  0.03740  Biso   1.000  O
  Mo49     1.0000 0.30430  0.47695  0.90609  Biso   1.000  Mo
  Mo50     1.0000 0.16500  0.32773  0.83934  Biso   1.000  Mo
  Mo51     1.0000 0.29241  0.30253  0.86732  Biso   1.000  Mo
  Mo52     1.0000 0.33836  0.42007  0.02642  Biso   1.000  Mo
  Mo53     1.0000 0.20015  0.27116  0.95956  Biso   1.000  Mo
  Mo54     1.0000 0.10489  0.45597  0.96300  Biso   1.000  Mo
  Mo55     1.0000 0.20492  0.48888  0.88190  Biso   1.000  Mo
  Mo56     1.0000 0.18785  0.30681  0.05378  Biso   1.000  Mo
  Mo57     1.0000 0.13529  0.40553  0.06939  Biso   1.000  Mo
  Mo58     1.0000 0.12673  0.40487  0.84472  Biso   1.000  Mo
  Mo59     1.0000 0.26584  0.39081  0.09101  Biso   1.000  Mo
  Mo60     1.0000 0.36468  0.37990  0.90217  Biso   1.000  Mo
  Zn17     1.0000 0.26438  0.40051  0.81447  Biso   1.000  Zn
  Zn18     1.0000 0.22030  0.48305  0.02239  Biso   1.000  Zn
  Zn19     1.0000 0.09392  0.34684  0.96173  Biso   1.000  Zn
  Zn20     1.0000 0.31799  0.31308  0.00137  Biso   1.000  Zn
  C49      1.0000 0.24830  0.39370  0.69880  Biso   1.000  C
  H33      1.0000 0.22540  0.37240  0.70880  Biso   1.000  H
  C50      1.0000 0.24800  0.40600  0.64780  Biso   1.000  C
  H34      1.0000 0.22600  0.39300  0.62350  Biso   1.000  H
  C51      1.0000 0.28110  0.43870  0.63130  Biso   1.000  C
  C52      1.0000 0.31660  0.45510  0.67000  Biso   1.000  C
  H35      1.0000 0.34050  0.47580  0.66090  Biso   1.000  H
  C53      1.0000 0.31440  0.43940  0.72110  Biso   1.000  C
  H36      1.0000 0.33830  0.44960  0.74570  Biso   1.000  H
  C54      1.0000 0.27810  0.45840  0.57750  Biso   1.000  C
  C55      1.0000 0.41830  0.30020  0.05020  Biso   1.000  C
  H37      1.0000 0.41410  0.32820  0.06030  Biso   1.000  H
  C56      1.0000 0.46470  0.27900  0.06020  Biso   1.000  C
  H38      1.0000 0.49180  0.29340  0.07670  Biso   1.000  H
  C57      1.0000 0.47170  0.23860  0.04690  Biso   1.000  C
  C58      1.0000 0.43130  0.21760  0.02340  Biso   1.000  C
  H39      1.0000 0.43380  0.18950  0.01340  Biso   1.000  H
  C59      1.0000 0.38670  0.24070  0.01530  Biso   1.000  C
  H40      1.0000 0.35840  0.22650  0.00080  Biso   1.000  H
  C60      1.0000 0.52300  0.21700  0.05760  Biso   1.000  C
  N9       1.0000 0.28010  0.41040  0.73740  Biso   1.000  N
  N10      1.0000 0.38040  0.27970  0.02590  Biso   1.000  N
  O113     1.0000 0.15160  0.45840  0.02680  Biso   1.000  O
  O114     1.0000 0.19440  0.41440  0.10740  Biso   1.000  O
  O115     1.0000 0.13310  0.34840  0.07780  Biso   1.000  O
  O116     1.0000 0.25070  0.28850  0.01320  Biso   1.000  O
  O117     1.0000 0.08160  0.43050  0.90160  Biso   1.000  O
  O118     1.0000 0.15920  0.27510  0.88910  Biso   1.000  O
  O119     1.0000 0.38370  0.39150  0.97040  Biso   1.000  O
  O120     1.0000 0.23440  0.33630  0.10150  Biso   1.000  O
  O121     1.0000 0.14440  0.49640  0.93340  Biso   1.000  O
  O122     1.0000 0.35600  0.43470  0.87960  Biso   1.000  O
  O123     1.0000 0.23690  0.30810  0.82200  Biso   1.000  O
  O124     1.0000 0.26440  0.26450  0.91300  Biso   1.000  O
  O125     1.0000 0.24380  0.49390  0.94930  Biso   1.000  O
  O126     1.0000 0.27330  0.44400  0.05210  Biso   1.000  O
  O127     1.0000 0.09870  0.39910  0.99890  Biso   1.000  O
  O128     1.0000 0.11350  0.35370  0.88640  Biso   1.000  O
  O129     1.0000 0.19150  0.38270  0.81570  Biso   1.000  O
  O130     1.0000 0.14450  0.30560  0.99020  Biso   1.000  O
  O131     1.0000 0.34210  0.47430  0.97940  Biso   1.000  O
  O132     1.0000 0.31110  0.36180  0.84700  Biso   1.000  O
  O133     1.0000 0.33600  0.32530  0.92740  Biso   1.000  O
  O134     1.0000 0.15710  0.46070  0.83750  Biso   1.000  O
  O135     1.0000 0.26030  0.45550  0.84800  Biso   1.000  O
  O136     1.0000 0.31870  0.36280  0.04560  Biso   1.000  O
  O137     1.0000 0.23080  0.46620  0.56340  Biso   1.000  O
  O138     1.0000 0.31880  0.46660  0.55370  Biso   1.000  O
  O139     1.0000 0.55650  0.23590  0.08250  Biso   1.000  O
  O140     1.0000 0.52580  0.17990  0.03740  Biso   1.000  O
  Mo61     1.0000 0.80430  0.02305  0.09391  Biso   1.000  Mo
  Mo62     1.0000 0.66500  0.17227  0.16066  Biso   1.000  Mo
  Mo63     1.0000 0.79241  0.19747  0.13268  Biso   1.000  Mo
  Mo64     1.0000 0.83836  0.07993  0.97358  Biso   1.000  Mo
  Mo65     1.0000 0.70015  0.22884  0.04044  Biso   1.000  Mo
  Mo66     1.0000 0.60489  0.04403  0.03700  Biso   1.000  Mo
  Mo67     1.0000 0.70492  0.01112  0.11810  Biso   1.000  Mo
  Mo68     1.0000 0.68785  0.19319  0.94622  Biso   1.000  Mo
  Mo69     1.0000 0.63529  0.09447  0.93061  Biso   1.000  Mo
  Mo70     1.0000 0.62673  0.09513  0.15528  Biso   1.000  Mo
  Mo71     1.0000 0.76584  0.10919  0.90899  Biso   1.000  Mo
  Mo72     1.0000 0.86468  0.12010  0.09783  Biso   1.000  Mo
  Zn21     1.0000 0.76438  0.09949  0.18553  Biso   1.000  Zn
  Zn22     1.0000 0.72030  0.01695  0.97761  Biso   1.000  Zn
  Zn23     1.0000 0.59392  0.15316  0.03827  Biso   1.000  Zn
  Zn24     1.0000 0.81799  0.18692  0.99863  Biso   1.000  Zn
  C61      1.0000 0.74830  0.10630  0.30120  Biso   1.000  C
  H41      1.0000 0.72540  0.12760  0.29120  Biso   1.000  H
  C62      1.0000 0.74800  0.09400  0.35220  Biso   1.000  C
  H42      1.0000 0.72600  0.10700  0.37650  Biso   1.000  H
  C63      1.0000 0.78110  0.06130  0.36870  Biso   1.000  C
  C64      1.0000 0.81660  0.04490  0.33000  Biso   1.000  C
  H43      1.0000 0.84050  0.02420  0.33910  Biso   1.000  H
  C65      1.0000 0.81440  0.06060  0.27890  Biso   1.000  C
  H44      1.0000 0.83830  0.05040  0.25430  Biso   1.000  H
  C66      1.0000 0.77810  0.04160  0.42250  Biso   1.000  C
  C67      1.0000 0.91830  0.19980  0.94980  Biso   1.000  C
  H45      1.0000 0.91410  0.17180  0.93970  Biso   1.000  H
  C68      1.0000 0.96470  0.22100  0.93980  Biso   1.000  C
  H46      1.0000 0.99180  0.20660  0.92330  Biso   1.000  H
  C69      1.0000 0.97170  0.26140  0.95310  Biso   1.000  C
  C70      1.0000 0.93130  0.28240  0.97660  Biso   1.000  C
  H47      1.0000 0.93380  0.31050  0.98660  Biso   1.000  H
  C71      1.0000 0.88670  0.25930  0.98470  Biso   1.000  C
  H48      1.0000 0.85840  0.27350  0.99920  Biso   1.000  H
  C72      1.0000 0.02300  0.28300  0.94240  Biso   1.000  C
  N11      1.0000 0.78010  0.08960  0.26260  Biso   1.000  N
  N12      1.0000 0.88040  0.22030  0.97410  Biso   1.000  N
  O141     1.0000 0.65160  0.04160  0.97320  Biso   1.000  O
  O142     1.0000 0.69440  0.08560  0.89260  Biso   1.000  O
  O143     1.0000 0.63310  0.15160  0.92220  Biso   1.000  O
  O144     1.0000 0.75070  0.21150  0.98680  Biso   1.000  O
  O145     1.0000 0.58160  0.06950  0.09840  Biso   1.000  O
  O146     1.0000 0.65920  0.22490  0.11090  Biso   1.000  O
  O147     1.0000 0.88370  0.10850  0.02960  Biso   1.000  O
  O148     1.0000 0.73440  0.16370  0.89850  Biso   1.000  O
  O149     1.0000 0.64440  0.00360  0.06660  Biso   1.000  O
  O150     1.0000 0.85600  0.06530  0.12040  Biso   1.000  O
  O151     1.0000 0.73690  0.19190  0.17800  Biso   1.000  O
  O152     1.0000 0.76440  0.23550  0.08700  Biso   1.000  O
  O153     1.0000 0.74380  0.00610  0.05070  Biso   1.000  O
  O154     1.0000 0.77330  0.05600  0.94790  Biso   1.000  O
  O155     1.0000 0.59870  0.10090  0.00110  Biso   1.000  O
  O156     1.0000 0.61350  0.14630  0.11360  Biso   1.000  O
  O157     1.0000 0.69150  0.11730  0.18430  Biso   1.000  O
  O158     1.0000 0.64450  0.19440  0.00980  Biso   1.000  O
  O159     1.0000 0.84210  0.02570  0.02060  Biso   1.000  O
  O160     1.0000 0.81110  0.13820  0.15300  Biso   1.000  O
  O161     1.0000 0.83600  0.17470  0.07260  Biso   1.000  O
  O162     1.0000 0.65710  0.03930  0.16250  Biso   1.000  O
  O163     1.0000 0.76030  0.04450  0.15200  Biso   1.000  O
  O164     1.0000 0.81870  0.13720  0.95440  Biso   1.000  O
  O165     1.0000 0.73080  0.03380  0.43660  Biso   1.000  O
  O166     1.0000 0.81880  0.03340  0.44630  Biso   1.000  O
  O167     1.0000 0.05650  0.26410  0.91750  Biso   1.000  O
  O168     1.0000 0.02580  0.32010  0.96260  Biso   1.000  O
  Mo73     1.0000 0.80430  0.97695  0.59391  Biso   1.000  Mo
  Mo74     1.0000 0.66500  0.82773  0.66066  Biso   1.000  Mo
  Mo75     1.0000 0.79241  0.80253  0.63268  Biso   1.000  Mo
  Mo76     1.0000 0.83836  0.92007  0.47358  Biso   1.000  Mo
  Mo77     1.0000 0.70015  0.77116  0.54044  Biso   1.000  Mo
  Mo78     1.0000 0.60489  0.95597  0.53700  Biso   1.000  Mo
  Mo79     1.0000 0.70492  0.98888  0.61810  Biso   1.000  Mo
  Mo80     1.0000 0.68785  0.80681  0.44622  Biso   1.000  Mo
  Mo81     1.0000 0.63529  0.90553  0.43061  Biso   1.000  Mo
  Mo82     1.0000 0.62673  0.90487  0.65528  Biso   1.000  Mo
  Mo83     1.0000 0.76584  0.89081  0.40899  Biso   1.000  Mo
  Mo84     1.0000 0.86468  0.87990  0.59783  Biso   1.000  Mo
  Zn25     1.0000 0.76438  0.90051  0.68553  Biso   1.000  Zn
  Zn26     1.0000 0.72030  0.98305  0.47761  Biso   1.000  Zn
  Zn27     1.0000 0.59392  0.84684  0.53827  Biso   1.000  Zn
  Zn28     1.0000 0.81799  0.81308  0.49863  Biso   1.000  Zn
  C73      1.0000 0.74830  0.89370  0.80120  Biso   1.000  C
  H49      1.0000 0.72540  0.87240  0.79120  Biso   1.000  H
  C74      1.0000 0.74800  0.90600  0.85220  Biso   1.000  C
  H50      1.0000 0.72600  0.89300  0.87650  Biso   1.000  H
  C75      1.0000 0.78110  0.93870  0.86870  Biso   1.000  C
  C76      1.0000 0.81660  0.95510  0.83000  Biso   1.000  C
  H51      1.0000 0.84050  0.97580  0.83910  Biso   1.000  H
  C77      1.0000 0.81440  0.93940  0.77890  Biso   1.000  C
  H52      1.0000 0.83830  0.94960  0.75430  Biso   1.000  H
  C78      1.0000 0.77810  0.95840  0.92250  Biso   1.000  C
  C79      1.0000 0.91830  0.80020  0.44980  Biso   1.000  C
  H53      1.0000 0.91410  0.82820  0.43970  Biso   1.000  H
  C80      1.0000 0.96470  0.77900  0.43980  Biso   1.000  C
  H54      1.0000 0.99180  0.79340  0.42330  Biso   1.000  H
  C81      1.0000 0.97170  0.73860  0.45310  Biso   1.000  C
  C82      1.0000 0.93130  0.71760  0.47660  Biso   1.000  C
  H55      1.0000 0.93380  0.68950  0.48660  Biso   1.000  H
  C83      1.0000 0.88670  0.74070  0.48470  Biso   1.000  C
  H56      1.0000 0.85840  0.72650  0.49920  Biso   1.000  H
  C84      1.0000 0.02300  0.71700  0.44240  Biso   1.000  C
  N13      1.0000 0.78010  0.91040  0.76260  Biso   1.000  N
  N14      1.0000 0.88040  0.77970  0.47410  Biso   1.000  N
  O169     1.0000 0.65160  0.95840  0.47320  Biso   1.000  O
  O170     1.0000 0.69440  0.91440  0.39260  Biso   1.000  O
  O171     1.0000 0.63310  0.84840  0.42220  Biso   1.000  O
  O172     1.0000 0.75070  0.78850  0.48680  Biso   1.000  O
  O173     1.0000 0.58160  0.93050  0.59840  Biso   1.000  O
  O174     1.0000 0.65920  0.77510  0.61090  Biso   1.000  O
  O175     1.0000 0.88370  0.89150  0.52960  Biso   1.000  O
  O176     1.0000 0.73440  0.83630  0.39850  Biso   1.000  O
  O177     1.0000 0.64440  0.99640  0.56660  Biso   1.000  O
  O178     1.0000 0.85600  0.93470  0.62040  Biso   1.000  O
  O179     1.0000 0.73690  0.80810  0.67800  Biso   1.000  O
  O180     1.0000 0.76440  0.76450  0.58700  Biso   1.000  O
  O181     1.0000 0.74380  0.99390  0.55070  Biso   1.000  O
  O182     1.0000 0.77330  0.94400  0.44790  Biso   1.000  O
  O183     1.0000 0.59870  0.89910  0.50110  Biso   1.000  O
  O184     1.0000 0.61350  0.85370  0.61360  Biso   1.000  O
  O185     1.0000 0.69150  0.88270  0.68430  Biso   1.000  O
  O186     1.0000 0.64450  0.80560  0.50980  Biso   1.000  O
  O187     1.0000 0.84210  0.97430  0.52060  Biso   1.000  O
  O188     1.0000 0.81110  0.86180  0.65300  Biso   1.000  O
  O189     1.0000 0.83600  0.82530  0.57260  Biso   1.000  O
  O190     1.0000 0.65710  0.96070  0.66250  Biso   1.000  O
  O191     1.0000 0.76030  0.95550  0.65200  Biso   1.000  O
  O192     1.0000 0.81870  0.86280  0.45440  Biso   1.000  O
  O193     1.0000 0.73080  0.96620  0.93660  Biso   1.000  O
  O194     1.0000 0.81880  0.96660  0.94630  Biso   1.000  O
  O195     1.0000 0.05650  0.73590  0.41750  Biso   1.000  O
  O196     1.0000 0.02580  0.67990  0.46260  Biso   1.000  O
  Mo85     1.0000 0.30430  0.52305  0.40609  Biso   1.000  Mo
  Mo86     1.0000 0.16500  0.67227  0.33934  Biso   1.000  Mo
  Mo87     1.0000 0.29241  0.69747  0.36732  Biso   1.000  Mo
  Mo88     1.0000 0.33836  0.57993  0.52642  Biso   1.000  Mo
  Mo89     1.0000 0.20015  0.72884  0.45956  Biso   1.000  Mo
  Mo90     1.0000 0.10489  0.54403  0.46300  Biso   1.000  Mo
  Mo91     1.0000 0.20492  0.51112  0.38190  Biso   1.000  Mo
  Mo92     1.0000 0.18785  0.69319  0.55378  Biso   1.000  Mo
  Mo93     1.0000 0.13529  0.59447  0.56939  Biso   1.000  Mo
  Mo94     1.0000 0.12673  0.59513  0.34472  Biso   1.000  Mo
  Mo95     1.0000 0.26584  0.60919  0.59101  Biso   1.000  Mo
  Mo96     1.0000 0.36468  0.62010  0.40217  Biso   1.000  Mo
  Zn29     1.0000 0.26438  0.59949  0.31447  Biso   1.000  Zn
  Zn30     1.0000 0.22030  0.51695  0.52239  Biso   1.000  Zn
  Zn31     1.0000 0.09392  0.65316  0.46173  Biso   1.000  Zn
  Zn32     1.0000 0.31799  0.68692  0.50137  Biso   1.000  Zn
  C85      1.0000 0.24830  0.60630  0.19880  Biso   1.000  C
  H57      1.0000 0.22540  0.62760  0.20880  Biso   1.000  H
  C86      1.0000 0.24800  0.59400  0.14780  Biso   1.000  C
  H58      1.0000 0.22600  0.60700  0.12350  Biso   1.000  H
  C87      1.0000 0.28110  0.56130  0.13130  Biso   1.000  C
  C88      1.0000 0.31660  0.54490  0.17000  Biso   1.000  C
  H59      1.0000 0.34050  0.52420  0.16090  Biso   1.000  H
  C89      1.0000 0.31440  0.56060  0.22110  Biso   1.000  C
  H60      1.0000 0.33830  0.55040  0.24570  Biso   1.000  H
  C90      1.0000 0.27810  0.54160  0.07750  Biso   1.000  C
  C91      1.0000 0.41830  0.69980  0.55020  Biso   1.000  C
  H61      1.0000 0.41410  0.67180  0.56030  Biso   1.000  H
  C92      1.0000 0.46470  0.72100  0.56020  Biso   1.000  C
  H62      1.0000 0.49180  0.70660  0.57670  Biso   1.000  H
  C93      1.0000 0.47170  0.76140  0.54690  Biso   1.000  C
  C94      1.0000 0.43130  0.78240  0.52340  Biso   1.000  C
  H63      1.0000 0.43380  0.81050  0.51340  Biso   1.000  H
  C95      1.0000 0.38670  0.75930  0.51530  Biso   1.000  C
  H64      1.0000 0.35840  0.77350  0.50080  Biso   1.000  H
  C96      1.0000 0.52300  0.78300  0.55760  Biso   1.000  C
  N15      1.0000 0.28010  0.58960  0.23740  Biso   1.000  N
  N16      1.0000 0.38040  0.72030  0.52590  Biso   1.000  N
  O197     1.0000 0.15160  0.54160  0.52680  Biso   1.000  O
  O198     1.0000 0.19440  0.58560  0.60740  Biso   1.000  O
  O199     1.0000 0.13310  0.65160  0.57780  Biso   1.000  O
  O200     1.0000 0.25070  0.71150  0.51320  Biso   1.000  O
  O201     1.0000 0.08160  0.56950  0.40160  Biso   1.000  O
  O202     1.0000 0.15920  0.72490  0.38910  Biso   1.000  O
  O203     1.0000 0.38370  0.60850  0.47040  Biso   1.000  O
  O204     1.0000 0.23440  0.66370  0.60150  Biso   1.000  O
  O205     1.0000 0.14440  0.50360  0.43340  Biso   1.000  O
  O206     1.0000 0.35600  0.56530  0.37960  Biso   1.000  O
  O207     1.0000 0.23690  0.69190  0.32200  Biso   1.000  O
  O208     1.0000 0.26440  0.73550  0.41300  Biso   1.000  O
  O209     1.0000 0.24380  0.50610  0.44930  Biso   1.000  O
  O210     1.0000 0.27330  0.55600  0.55210  Biso   1.000  O
  O211     1.0000 0.09870  0.60090  0.49890  Biso   1.000  O
  O212     1.0000 0.11350  0.64630  0.38640  Biso   1.000  O
  O213     1.0000 0.19150  0.61730  0.31570  Biso   1.000  O
  O214     1.0000 0.14450  0.69440  0.49020  Biso   1.000  O
  O215     1.0000 0.34210  0.52570  0.47940  Biso   1.000  O
  O216     1.0000 0.31110  0.63820  0.34700  Biso   1.000  O
  O217     1.0000 0.33600  0.67470  0.42740  Biso   1.000  O
  O218     1.0000 0.15710  0.53930  0.33750  Biso   1.000  O
  O219     1.0000 0.26030  0.54450  0.34800  Biso   1.000  O
  O220     1.0000 0.31870  0.63720  0.54560  Biso   1.000  O
  O221     1.0000 0.23080  0.53380  0.06340  Biso   1.000  O
  O222     1.0000 0.31880  0.53340  0.05370  Biso   1.000  O
  O223     1.0000 0.55650  0.76410  0.58250  Biso   1.000  O
  O224     1.0000 0.52580  0.82010  0.53740  Biso   1.000  O
