data_image0
_cell_length_a       12.487
_cell_length_b       12.487
_cell_length_c       9.776
_cell_angle_alpha    90
_cell_angle_beta     90
_cell_angle_gamma    90

_symmetry_space_group_name_H-M    "P 1"
_symmetry_int_tables_number       1

loop_
  _symmetry_equiv_pos_as_xyz
  'x, y, z'

loop_
  _atom_site_label
  _atom_site_occupancy
  _atom_site_fract_x
  _atom_site_fract_y
  _atom_site_fract_z
  _atom_site_thermal_displace_type
  _atom_site_B_iso_or_equiv
  _atom_site_type_symbol
  N1       1.0000 0.94100  0.56310  0.25100  Biso   1.000  N
  H1       1.0000 0.97240  0.57930  0.16260  Biso   1.000  H
  N2       1.0000 0.67060  0.85640  0.10100  Biso   1.000  N
  C1       1.0000 0.75230  0.80820  0.02600  Biso   1.000  C
  H2       1.0000 0.77460  0.83790  0.94390  Biso   1.000  H
  C2       1.0000 0.80070  0.71560  0.07500  Biso   1.000  C
  H3       1.0000 0.85540  0.68330  0.02560  Biso   1.000  H
  C3       1.0000 0.76740  0.67120  0.19900  Biso   1.000  C
  C4       1.0000 0.68570  0.71940  0.27300  Biso   1.000  C
  H4       1.0000 0.66340  0.68970  0.35530  Biso   1.000  H
  C5       1.0000 0.63730  0.81200  0.22400  Biso   1.000  C
  H5       1.0000 0.58260  0.84430  0.27360  Biso   1.000  H
  C6       1.0000 0.81200  0.57600  0.24200  Biso   1.000  C
  H6       1.0000 0.78690  0.51980  0.18100  Biso   1.000  H
  H7       1.0000 0.78380  0.56010  0.33180  Biso   1.000  H
  C7       1.0000 0.98500  0.64000  0.35800  Biso   1.000  C
  H8       1.0000 0.93010  0.69100  0.38730  Biso   1.000  H
  C8       1.0000 0.07900  0.69700  0.30500  Biso   1.000  C
  H9       1.0000 0.10320  0.74030  0.36190  Biso   1.000  H
  H10      1.0000 0.06060  0.73370  0.22210  Biso   1.000  H
  H11      1.0000 0.13540  0.64620  0.28610  Biso   1.000  H
  C9       1.0000 0.01700  0.56600  0.47600  Biso   1.000  C
  O1       1.0000 0.05250  0.62690  0.57700  Biso   1.000  O
  O2       1.0000 0.02070  0.47470  0.46900  Biso   1.000  O
  Zn1      1.0000 0.59020  0.98420  0.02790  Biso   1.000  Zn
  N3       1.0000 0.05900  0.43690  0.75100  Biso   1.000  N
  H12      1.0000 0.02760  0.42070  0.66260  Biso   1.000  H
  N4       1.0000 0.32940  0.14360  0.60100  Biso   1.000  N
  C10      1.0000 0.24770  0.19180  0.52600  Biso   1.000  C
  H13      1.0000 0.22540  0.16210  0.44390  Biso   1.000  H
  C11      1.0000 0.19930  0.28440  0.57500  Biso   1.000  C
  H14      1.0000 0.14460  0.31670  0.52560  Biso   1.000  H
  C12      1.0000 0.23260  0.32880  0.69900  Biso   1.000  C
  C13      1.0000 0.31430  0.28060  0.77300  Biso   1.000  C
  H15      1.0000 0.33660  0.31030  0.85530  Biso   1.000  H
  C14      1.0000 0.36270  0.18800  0.72400  Biso   1.000  C
  H16      1.0000 0.41740  0.15570  0.77360  Biso   1.000  H
  C15      1.0000 0.18800  0.42400  0.74200  Biso   1.000  C
  H17      1.0000 0.21310  0.48020  0.68100  Biso   1.000  H
  H18      1.0000 0.21620  0.43990  0.83180  Biso   1.000  H
  C16      1.0000 0.01500  0.36000  0.85800  Biso   1.000  C
  H19      1.0000 0.06990  0.30900  0.88730  Biso   1.000  H
  C17      1.0000 0.92100  0.30300  0.80500  Biso   1.000  C
  H20      1.0000 0.89680  0.25970  0.86190  Biso   1.000  H
  H21      1.0000 0.93940  0.26630  0.72210  Biso   1.000  H
  H22      1.0000 0.86460  0.35380  0.78610  Biso   1.000  H
  C18      1.0000 0.98300  0.43400  0.97600  Biso   1.000  C
  O3       1.0000 0.94750  0.37310  0.07700  Biso   1.000  O
  O4       1.0000 0.97930  0.52530  0.96900  Biso   1.000  O
  Zn2      1.0000 0.40980  0.01580  0.52790  Biso   1.000  Zn
  N5       1.0000 0.43690  0.94100  0.00100  Biso   1.000  N
  H23      1.0000 0.42070  0.97240  0.91260  Biso   1.000  H
  N6       1.0000 0.14360  0.67060  0.85100  Biso   1.000  N
  C19      1.0000 0.19180  0.75230  0.77600  Biso   1.000  C
  H24      1.0000 0.16210  0.77460  0.69390  Biso   1.000  H
  C20      1.0000 0.28440  0.80070  0.82500  Biso   1.000  C
  H25      1.0000 0.31670  0.85540  0.77560  Biso   1.000  H
  C21      1.0000 0.32880  0.76740  0.94900  Biso   1.000  C
  C22      1.0000 0.28060  0.68570  0.02300  Biso   1.000  C
  H26      1.0000 0.31030  0.66340  0.10530  Biso   1.000  H
  C23      1.0000 0.18800  0.63730  0.97400  Biso   1.000  C
  H27      1.0000 0.15570  0.58260  0.02360  Biso   1.000  H
  C24      1.0000 0.42400  0.81200  0.99200  Biso   1.000  C
  H28      1.0000 0.48020  0.78690  0.93100  Biso   1.000  H
  H29      1.0000 0.43990  0.78380  0.08180  Biso   1.000  H
  C25      1.0000 0.36000  0.98500  0.10800  Biso   1.000  C
  H30      1.0000 0.30900  0.93010  0.13730  Biso   1.000  H
  C26      1.0000 0.30300  0.07900  0.05500  Biso   1.000  C
  H31      1.0000 0.25970  0.10320  0.11190  Biso   1.000  H
  H32      1.0000 0.26630  0.06060  0.97210  Biso   1.000  H
  H33      1.0000 0.35380  0.13540  0.03610  Biso   1.000  H
  C27      1.0000 0.43400  0.01700  0.22600  Biso   1.000  C
  O5       1.0000 0.37310  0.05250  0.32700  Biso   1.000  O
  O6       1.0000 0.52530  0.02070  0.21900  Biso   1.000  O
  Zn3      1.0000 0.01580  0.59020  0.77790  Biso   1.000  Zn
  N7       1.0000 0.56310  0.05900  0.50100  Biso   1.000  N
  H34      1.0000 0.57930  0.02760  0.41260  Biso   1.000  H
  N8       1.0000 0.85640  0.32940  0.35100  Biso   1.000  N
  C28      1.0000 0.80820  0.24770  0.27600  Biso   1.000  C
  H35      1.0000 0.83790  0.22540  0.19390  Biso   1.000  H
  C29      1.0000 0.71560  0.19930  0.32500  Biso   1.000  C
  H36      1.0000 0.68330  0.14460  0.27560  Biso   1.000  H
  C30      1.0000 0.67120  0.23260  0.44900  Biso   1.000  C
  C31      1.0000 0.71940  0.31430  0.52300  Biso   1.000  C
  H37      1.0000 0.68970  0.33660  0.60530  Biso   1.000  H
  C32      1.0000 0.81200  0.36270  0.47400  Biso   1.000  C
  H38      1.0000 0.84430  0.41740  0.52360  Biso   1.000  H
  C33      1.0000 0.57600  0.18800  0.49200  Biso   1.000  C
  H39      1.0000 0.51980  0.21310  0.43100  Biso   1.000  H
  H40      1.0000 0.56010  0.21620  0.58180  Biso   1.000  H
  C34      1.0000 0.64000  0.01500  0.60800  Biso   1.000  C
  H41      1.0000 0.69100  0.06990  0.63730  Biso   1.000  H
  C35      1.0000 0.69700  0.92100  0.55500  Biso   1.000  C
  H42      1.0000 0.74030  0.89680  0.61190  Biso   1.000  H
  H43      1.0000 0.73370  0.93940  0.47210  Biso   1.000  H
  H44      1.0000 0.64620  0.86460  0.53610  Biso   1.000  H
  C36      1.0000 0.56600  0.98300  0.72600  Biso   1.000  C
  O7       1.0000 0.62690  0.94750  0.82700  Biso   1.000  O
  O8       1.0000 0.47470  0.97930  0.71900  Biso   1.000  O
  Zn4      1.0000 0.98420  0.40980  0.27790  Biso   1.000  Zn
