data_image0
_cell_length_a       12.8
_cell_length_b       12.8
_cell_length_c       9.984
_cell_angle_alpha    90
_cell_angle_beta     90
_cell_angle_gamma    90

_symmetry_space_group_name_H-M    "P 1"
_symmetry_int_tables_number       1

loop_
  _symmetry_equiv_pos_as_xyz
  'x, y, z'

loop_
  _atom_site_label
  _atom_site_occupancy
  _atom_site_fract_x
  _atom_site_fract_y
  _atom_site_fract_z
  _atom_site_thermal_displace_type
  _atom_site_B_iso_or_equiv
  _atom_site_type_symbol
  C1       1.0000 0.75180  0.69400  0.03630  Biso   1.000  C
  H1       1.0000 0.73320  0.66710  0.11950  Biso   1.000  H
  C2       1.0000 0.70080  0.78180  0.99200  Biso   1.000  C
  H2       1.0000 0.64970  0.81280  0.04500  Biso   1.000  H
  C3       1.0000 0.72560  0.82460  0.86750  Biso   1.000  C
  C4       1.0000 0.80440  0.77530  0.79610  Biso   1.000  C
  H3       1.0000 0.82420  0.80040  0.71240  Biso   1.000  H
  C5       1.0000 0.85260  0.68960  0.84940  Biso   1.000  C
  H4       1.0000 0.90730  0.65990  0.80130  Biso   1.000  H
  C6       1.0000 0.68160  0.92590  0.82160  Biso   1.000  C
  H5       1.0000 0.70900  0.94050  0.73300  Biso   1.000  H
  H6       1.0000 0.70680  0.98030  0.88090  Biso   1.000  H
  C7       1.0000 0.51540  0.86450  0.71400  Biso   1.000  C
  H7       1.0000 0.56570  0.81180  0.68360  Biso   1.000  H
  C8       1.0000 0.41910  0.80940  0.77620  Biso   1.000  C
  H8       1.0000 0.44210  0.75510  0.83560  Biso   1.000  H
  H9       1.0000 0.37720  0.77970  0.70620  Biso   1.000  H
  H10      1.0000 0.37840  0.85940  0.82540  Biso   1.000  H
  C9       1.0000 0.47800  0.92890  0.59430  Biso   1.000  C
  N1       1.0000 0.82610  0.64500  0.96800  Biso   1.000  N
  N2       1.0000 0.56550  0.93290  0.81560  Biso   1.000  N
  H11      1.0000 0.54160  0.91150  0.89590  Biso   1.000  H
  O1       1.0000 0.47800  0.02610  0.59960  Biso   1.000  O
  O2       1.0000 0.44550  0.87530  0.49540  Biso   1.000  O
  Zn1      1.0000 0.90972  0.51723  0.04161  Biso   1.000  Zn
  C10      1.0000 0.24820  0.30600  0.53630  Biso   1.000  C
  H12      1.0000 0.26680  0.33290  0.61950  Biso   1.000  H
  C11      1.0000 0.29920  0.21820  0.49200  Biso   1.000  C
  H13      1.0000 0.35030  0.18720  0.54500  Biso   1.000  H
  C12      1.0000 0.27440  0.17540  0.36750  Biso   1.000  C
  C13      1.0000 0.19560  0.22470  0.29610  Biso   1.000  C
  H14      1.0000 0.17580  0.19960  0.21240  Biso   1.000  H
  C14      1.0000 0.14740  0.31040  0.34940  Biso   1.000  C
  H15      1.0000 0.09270  0.34010  0.30130  Biso   1.000  H
  C15      1.0000 0.31840  0.07410  0.32160  Biso   1.000  C
  H16      1.0000 0.29100  0.05950  0.23300  Biso   1.000  H
  H17      1.0000 0.29320  0.01970  0.38090  Biso   1.000  H
  C16      1.0000 0.48460  0.13550  0.21400  Biso   1.000  C
  H18      1.0000 0.43430  0.18820  0.18360  Biso   1.000  H
  C17      1.0000 0.58090  0.19060  0.27620  Biso   1.000  C
  H19      1.0000 0.55790  0.24490  0.33560  Biso   1.000  H
  H20      1.0000 0.62280  0.22030  0.20620  Biso   1.000  H
  H21      1.0000 0.62160  0.14060  0.32540  Biso   1.000  H
  C18      1.0000 0.52200  0.07110  0.09430  Biso   1.000  C
  N3       1.0000 0.17390  0.35500  0.46800  Biso   1.000  N
  N4       1.0000 0.43450  0.06710  0.31560  Biso   1.000  N
  H22      1.0000 0.45840  0.08850  0.39590  Biso   1.000  H
  O3       1.0000 0.52200  0.97390  0.09960  Biso   1.000  O
  O4       1.0000 0.55450  0.12470  0.99540  Biso   1.000  O
  Zn2      1.0000 0.09028  0.48277  0.54161  Biso   1.000  Zn
  C19      1.0000 0.30600  0.75180  0.28630  Biso   1.000  C
  H23      1.0000 0.33290  0.73320  0.36950  Biso   1.000  H
  C20      1.0000 0.21820  0.70080  0.24200  Biso   1.000  C
  H24      1.0000 0.18720  0.64970  0.29500  Biso   1.000  H
  C21      1.0000 0.17540  0.72560  0.11750  Biso   1.000  C
  C22      1.0000 0.22470  0.80440  0.04610  Biso   1.000  C
  H25      1.0000 0.19960  0.82420  0.96240  Biso   1.000  H
  C23      1.0000 0.31040  0.85260  0.09940  Biso   1.000  C
  H26      1.0000 0.34010  0.90730  0.05130  Biso   1.000  H
  C24      1.0000 0.07410  0.68160  0.07160  Biso   1.000  C
  H27      1.0000 0.05950  0.70900  0.98300  Biso   1.000  H
  H28      1.0000 0.01970  0.70680  0.13090  Biso   1.000  H
  C25      1.0000 0.13550  0.51540  0.96400  Biso   1.000  C
  H29      1.0000 0.18820  0.56570  0.93360  Biso   1.000  H
  C26      1.0000 0.19060  0.41910  0.02620  Biso   1.000  C
  H30      1.0000 0.24490  0.44210  0.08560  Biso   1.000  H
  H31      1.0000 0.22030  0.37720  0.95620  Biso   1.000  H
  H32      1.0000 0.14060  0.37840  0.07540  Biso   1.000  H
  C27      1.0000 0.07110  0.47800  0.84430  Biso   1.000  C
  N5       1.0000 0.35500  0.82610  0.21800  Biso   1.000  N
  N6       1.0000 0.06710  0.56550  0.06560  Biso   1.000  N
  H33      1.0000 0.08850  0.54160  0.14590  Biso   1.000  H
  O5       1.0000 0.97390  0.47800  0.84960  Biso   1.000  O
  O6       1.0000 0.12470  0.44550  0.74540  Biso   1.000  O
  Zn3      1.0000 0.48277  0.90972  0.29161  Biso   1.000  Zn
  C28      1.0000 0.69400  0.24820  0.78630  Biso   1.000  C
  H34      1.0000 0.66710  0.26680  0.86950  Biso   1.000  H
  C29      1.0000 0.78180  0.29920  0.74200  Biso   1.000  C
  H35      1.0000 0.81280  0.35030  0.79500  Biso   1.000  H
  C30      1.0000 0.82460  0.27440  0.61750  Biso   1.000  C
  C31      1.0000 0.77530  0.19560  0.54610  Biso   1.000  C
  H36      1.0000 0.80040  0.17580  0.46240  Biso   1.000  H
  C32      1.0000 0.68960  0.14740  0.59940  Biso   1.000  C
  H37      1.0000 0.65990  0.09270  0.55130  Biso   1.000  H
  C33      1.0000 0.92590  0.31840  0.57160  Biso   1.000  C
  H38      1.0000 0.94050  0.29100  0.48300  Biso   1.000  H
  H39      1.0000 0.98030  0.29320  0.63090  Biso   1.000  H
  C34      1.0000 0.86450  0.48460  0.46400  Biso   1.000  C
  H40      1.0000 0.81180  0.43430  0.43360  Biso   1.000  H
  C35      1.0000 0.80940  0.58090  0.52620  Biso   1.000  C
  H41      1.0000 0.75510  0.55790  0.58560  Biso   1.000  H
  H42      1.0000 0.77970  0.62280  0.45620  Biso   1.000  H
  H43      1.0000 0.85940  0.62160  0.57540  Biso   1.000  H
  C36      1.0000 0.92890  0.52200  0.34430  Biso   1.000  C
  N7       1.0000 0.64500  0.17390  0.71800  Biso   1.000  N
  N8       1.0000 0.93290  0.43450  0.56560  Biso   1.000  N
  H44      1.0000 0.91150  0.45840  0.64590  Biso   1.000  H
  O7       1.0000 0.02610  0.52200  0.34960  Biso   1.000  O
  O8       1.0000 0.87530  0.55450  0.24540  Biso   1.000  O
  Zn4      1.0000 0.51723  0.09028  0.79161  Biso   1.000  Zn
