data_image0
_cell_length_a       3.4099
_cell_length_b       39.805
_cell_length_c       43.607
_cell_angle_alpha    90
_cell_angle_beta     90
_cell_angle_gamma    90

_symmetry_space_group_name_H-M    "P 1"
_symmetry_int_tables_number       1

loop_
  _symmetry_equiv_pos_as_xyz
  'x, y, z'

loop_
  _atom_site_label
  _atom_site_occupancy
  _atom_site_fract_x
  _atom_site_fract_y
  _atom_site_fract_z
  _atom_site_thermal_displace_type
  _atom_site_B_iso_or_equiv
  _atom_site_type_symbol
  C1       1.0000 0.79700  0.56400  0.03330  Biso   1.000  C
  C2       1.0000 0.79400  0.52320  0.06410  Biso   1.000  C
  N1       1.0000 0.92800  0.54935  0.07961  Biso   1.000  N
  N2       1.0000 0.93400  0.57599  0.05935  Biso   1.000  N
  N3       1.0000 0.71200  0.53110  0.03480  Biso   1.000  N
  N4       1.0000 0.76500  0.49040  0.07680  Biso   1.000  N
  H1       1.0000 0.69320  0.47300  0.06490  Biso   1.000  H
  H2       1.0000 0.82250  0.48710  0.09680  Biso   1.000  H
  N5       1.0000 0.77900  0.58490  0.00590  Biso   1.000  N
  H3       1.0000 0.70400  0.57580  0.98790  Biso   1.000  H
  H4       1.0000 0.84150  0.60690  0.00690  Biso   1.000  H
  H5       1.0000 0.76160  0.57730  0.01520  Biso   1.000  H
  H6       1.0000 0.75530  0.50130  0.07270  Biso   1.000  H
  C3       1.0000 0.79700  0.06400  0.53330  Biso   1.000  C
  C4       1.0000 0.79400  0.02320  0.56410  Biso   1.000  C
  N6       1.0000 0.92800  0.04935  0.57961  Biso   1.000  N
  N7       1.0000 0.93400  0.07599  0.55935  Biso   1.000  N
  N8       1.0000 0.71200  0.03110  0.53480  Biso   1.000  N
  N9       1.0000 0.76500  0.99040  0.57680  Biso   1.000  N
  H7       1.0000 0.69320  0.97300  0.56490  Biso   1.000  H
  H8       1.0000 0.82250  0.98710  0.59680  Biso   1.000  H
  N10      1.0000 0.77900  0.08490  0.50590  Biso   1.000  N
  H9       1.0000 0.70400  0.07580  0.48790  Biso   1.000  H
  H10      1.0000 0.84150  0.10690  0.50690  Biso   1.000  H
  H11      1.0000 0.76160  0.07730  0.51520  Biso   1.000  H
  H12      1.0000 0.75530  0.00130  0.57270  Biso   1.000  H
  C5       1.0000 0.29700  0.56400  0.53330  Biso   1.000  C
  C6       1.0000 0.29400  0.52320  0.56410  Biso   1.000  C
  N11      1.0000 0.42800  0.54935  0.57961  Biso   1.000  N
  N12      1.0000 0.43400  0.57599  0.55935  Biso   1.000  N
  N13      1.0000 0.21200  0.53110  0.53480  Biso   1.000  N
  N14      1.0000 0.26500  0.49040  0.57680  Biso   1.000  N
  H13      1.0000 0.19320  0.47300  0.56490  Biso   1.000  H
  H14      1.0000 0.32250  0.48710  0.59680  Biso   1.000  H
  N15      1.0000 0.27900  0.58490  0.50590  Biso   1.000  N
  H15      1.0000 0.20400  0.57580  0.48790  Biso   1.000  H
  H16      1.0000 0.34150  0.60690  0.50690  Biso   1.000  H
  H17      1.0000 0.26160  0.57730  0.51520  Biso   1.000  H
  H18      1.0000 0.25530  0.50130  0.57270  Biso   1.000  H
  C7       1.0000 0.29700  0.06400  0.03330  Biso   1.000  C
  C8       1.0000 0.29400  0.02320  0.06410  Biso   1.000  C
  N16      1.0000 0.42800  0.04935  0.07961  Biso   1.000  N
  N17      1.0000 0.43400  0.07599  0.05935  Biso   1.000  N
  N18      1.0000 0.21200  0.03110  0.03480  Biso   1.000  N
  N19      1.0000 0.26500  0.99040  0.07680  Biso   1.000  N
  H19      1.0000 0.19320  0.97300  0.06490  Biso   1.000  H
  H20      1.0000 0.32250  0.98710  0.09680  Biso   1.000  H
  N20      1.0000 0.27900  0.08490  0.00590  Biso   1.000  N
  H21      1.0000 0.20400  0.07580  0.98790  Biso   1.000  H
  H22      1.0000 0.34150  0.10690  0.00690  Biso   1.000  H
  H23      1.0000 0.26160  0.07730  0.01520  Biso   1.000  H
  H24      1.0000 0.25530  0.00130  0.07270  Biso   1.000  H
  C9       1.0000 0.95300  0.18600  0.03330  Biso   1.000  C
  C10      1.0000 0.95600  0.22680  0.06410  Biso   1.000  C
  N21      1.0000 0.82200  0.20065  0.07961  Biso   1.000  N
  N22      1.0000 0.81600  0.17401  0.05935  Biso   1.000  N
  N23      1.0000 0.03800  0.21890  0.03480  Biso   1.000  N
  N24      1.0000 0.98500  0.25960  0.07680  Biso   1.000  N
  H25      1.0000 0.05680  0.27700  0.06490  Biso   1.000  H
  H26      1.0000 0.92750  0.26290  0.09680  Biso   1.000  H
  N25      1.0000 0.97100  0.16510  0.00590  Biso   1.000  N
  H27      1.0000 0.04600  0.17420  0.98790  Biso   1.000  H
  H28      1.0000 0.90850  0.14310  0.00690  Biso   1.000  H
  H29      1.0000 0.98840  0.17270  0.01520  Biso   1.000  H
  H30      1.0000 0.99470  0.24870  0.07270  Biso   1.000  H
  C11      1.0000 0.95300  0.68600  0.53330  Biso   1.000  C
  C12      1.0000 0.95600  0.72680  0.56410  Biso   1.000  C
  N26      1.0000 0.82200  0.70065  0.57961  Biso   1.000  N
  N27      1.0000 0.81600  0.67401  0.55935  Biso   1.000  N
  N28      1.0000 0.03800  0.71890  0.53480  Biso   1.000  N
  N29      1.0000 0.98500  0.75960  0.57680  Biso   1.000  N
  H31      1.0000 0.05680  0.77700  0.56490  Biso   1.000  H
  H32      1.0000 0.92750  0.76290  0.59680  Biso   1.000  H
  N30      1.0000 0.97100  0.66510  0.50590  Biso   1.000  N
  H33      1.0000 0.04600  0.67420  0.48790  Biso   1.000  H
  H34      1.0000 0.90850  0.64310  0.50690  Biso   1.000  H
  H35      1.0000 0.98840  0.67270  0.51520  Biso   1.000  H
  H36      1.0000 0.99470  0.74870  0.57270  Biso   1.000  H
  C13      1.0000 0.45300  0.18600  0.53330  Biso   1.000  C
  C14      1.0000 0.45600  0.22680  0.56410  Biso   1.000  C
  N31      1.0000 0.32200  0.20065  0.57961  Biso   1.000  N
  N32      1.0000 0.31600  0.17401  0.55935  Biso   1.000  N
  N33      1.0000 0.53800  0.21890  0.53480  Biso   1.000  N
  N34      1.0000 0.48500  0.25960  0.57680  Biso   1.000  N
  H37      1.0000 0.55680  0.27700  0.56490  Biso   1.000  H
  H38      1.0000 0.42750  0.26290  0.59680  Biso   1.000  H
  N35      1.0000 0.47100  0.16510  0.50590  Biso   1.000  N
  H39      1.0000 0.54600  0.17420  0.48790  Biso   1.000  H
  H40      1.0000 0.40850  0.14310  0.50690  Biso   1.000  H
  H41      1.0000 0.48840  0.17270  0.51520  Biso   1.000  H
  H42      1.0000 0.49470  0.24870  0.57270  Biso   1.000  H
  C15      1.0000 0.45300  0.68600  0.03330  Biso   1.000  C
  C16      1.0000 0.45600  0.72680  0.06410  Biso   1.000  C
  N36      1.0000 0.32200  0.70065  0.07961  Biso   1.000  N
  N37      1.0000 0.31600  0.67401  0.05935  Biso   1.000  N
  N38      1.0000 0.53800  0.71890  0.03480  Biso   1.000  N
  N39      1.0000 0.48500  0.75960  0.07680  Biso   1.000  N
  H43      1.0000 0.55680  0.77700  0.06490  Biso   1.000  H
  H44      1.0000 0.42750  0.76290  0.09680  Biso   1.000  H
  N40      1.0000 0.47100  0.66510  0.00590  Biso   1.000  N
  H45      1.0000 0.54600  0.67420  0.98790  Biso   1.000  H
  H46      1.0000 0.40850  0.64310  0.00690  Biso   1.000  H
  H47      1.0000 0.48840  0.67270  0.01520  Biso   1.000  H
  H48      1.0000 0.49470  0.74870  0.07270  Biso   1.000  H
  C17      1.0000 0.95300  0.56400  0.71670  Biso   1.000  C
  C18      1.0000 0.95600  0.52320  0.68590  Biso   1.000  C
  N41      1.0000 0.82200  0.54935  0.67039  Biso   1.000  N
  N42      1.0000 0.81600  0.57599  0.69065  Biso   1.000  N
  N43      1.0000 0.03800  0.53110  0.71520  Biso   1.000  N
  N44      1.0000 0.98500  0.49040  0.67320  Biso   1.000  N
  H49      1.0000 0.05680  0.47300  0.68510  Biso   1.000  H
  H50      1.0000 0.92750  0.48710  0.65320  Biso   1.000  H
  N45      1.0000 0.97100  0.58490  0.74410  Biso   1.000  N
  H51      1.0000 0.04600  0.57580  0.76210  Biso   1.000  H
  H52      1.0000 0.90850  0.60690  0.74310  Biso   1.000  H
  H53      1.0000 0.98840  0.57730  0.73480  Biso   1.000  H
  H54      1.0000 0.99470  0.50130  0.67730  Biso   1.000  H
  C19      1.0000 0.95300  0.06400  0.21670  Biso   1.000  C
  C20      1.0000 0.95600  0.02320  0.18590  Biso   1.000  C
  N46      1.0000 0.82200  0.04935  0.17039  Biso   1.000  N
  N47      1.0000 0.81600  0.07599  0.19065  Biso   1.000  N
  N48      1.0000 0.03800  0.03110  0.21520  Biso   1.000  N
  N49      1.0000 0.98500  0.99040  0.17320  Biso   1.000  N
  H55      1.0000 0.05680  0.97300  0.18510  Biso   1.000  H
  H56      1.0000 0.92750  0.98710  0.15320  Biso   1.000  H
  N50      1.0000 0.97100  0.08490  0.24410  Biso   1.000  N
  H57      1.0000 0.04600  0.07580  0.26210  Biso   1.000  H
  H58      1.0000 0.90850  0.10690  0.24310  Biso   1.000  H
  H59      1.0000 0.98840  0.07730  0.23480  Biso   1.000  H
  H60      1.0000 0.99470  0.00130  0.17730  Biso   1.000  H
  C21      1.0000 0.45300  0.56400  0.21670  Biso   1.000  C
  C22      1.0000 0.45600  0.52320  0.18590  Biso   1.000  C
  N51      1.0000 0.32200  0.54935  0.17039  Biso   1.000  N
  N52      1.0000 0.31600  0.57599  0.19065  Biso   1.000  N
  N53      1.0000 0.53800  0.53110  0.21520  Biso   1.000  N
  N54      1.0000 0.48500  0.49040  0.17320  Biso   1.000  N
  H61      1.0000 0.55680  0.47300  0.18510  Biso   1.000  H
  H62      1.0000 0.42750  0.48710  0.15320  Biso   1.000  H
  N55      1.0000 0.47100  0.58490  0.24410  Biso   1.000  N
  H63      1.0000 0.54600  0.57580  0.26210  Biso   1.000  H
  H64      1.0000 0.40850  0.60690  0.24310  Biso   1.000  H
  H65      1.0000 0.48840  0.57730  0.23480  Biso   1.000  H
  H66      1.0000 0.49470  0.50130  0.17730  Biso   1.000  H
  C23      1.0000 0.45300  0.06400  0.71670  Biso   1.000  C
  C24      1.0000 0.45600  0.02320  0.68590  Biso   1.000  C
  N56      1.0000 0.32200  0.04935  0.67039  Biso   1.000  N
  N57      1.0000 0.31600  0.07599  0.69065  Biso   1.000  N
  N58      1.0000 0.53800  0.03110  0.71520  Biso   1.000  N
  N59      1.0000 0.48500  0.99040  0.67320  Biso   1.000  N
  H67      1.0000 0.55680  0.97300  0.68510  Biso   1.000  H
  H68      1.0000 0.42750  0.98710  0.65320  Biso   1.000  H
  N60      1.0000 0.47100  0.08490  0.74410  Biso   1.000  N
  H69      1.0000 0.54600  0.07580  0.76210  Biso   1.000  H
  H70      1.0000 0.40850  0.10690  0.74310  Biso   1.000  H
  H71      1.0000 0.48840  0.07730  0.73480  Biso   1.000  H
  H72      1.0000 0.49470  0.00130  0.67730  Biso   1.000  H
  C25      1.0000 0.79700  0.18600  0.71670  Biso   1.000  C
  C26      1.0000 0.79400  0.22680  0.68590  Biso   1.000  C
  N61      1.0000 0.92800  0.20065  0.67039  Biso   1.000  N
  N62      1.0000 0.93400  0.17401  0.69065  Biso   1.000  N
  N63      1.0000 0.71200  0.21890  0.71520  Biso   1.000  N
  N64      1.0000 0.76500  0.25960  0.67320  Biso   1.000  N
  H73      1.0000 0.69320  0.27700  0.68510  Biso   1.000  H
  H74      1.0000 0.82250  0.26290  0.65320  Biso   1.000  H
  N65      1.0000 0.77900  0.16510  0.74410  Biso   1.000  N
  H75      1.0000 0.70400  0.17420  0.76210  Biso   1.000  H
  H76      1.0000 0.84150  0.14310  0.74310  Biso   1.000  H
  H77      1.0000 0.76160  0.17270  0.73480  Biso   1.000  H
  H78      1.0000 0.75530  0.24870  0.67730  Biso   1.000  H
  C27      1.0000 0.79700  0.68600  0.21670  Biso   1.000  C
  C28      1.0000 0.79400  0.72680  0.18590  Biso   1.000  C
  N66      1.0000 0.92800  0.70065  0.17039  Biso   1.000  N
  N67      1.0000 0.93400  0.67401  0.19065  Biso   1.000  N
  N68      1.0000 0.71200  0.71890  0.21520  Biso   1.000  N
  N69      1.0000 0.76500  0.75960  0.17320  Biso   1.000  N
  H79      1.0000 0.69320  0.77700  0.18510  Biso   1.000  H
  H80      1.0000 0.82250  0.76290  0.15320  Biso   1.000  H
  N70      1.0000 0.77900  0.66510  0.24410  Biso   1.000  N
  H81      1.0000 0.70400  0.67420  0.26210  Biso   1.000  H
  H82      1.0000 0.84150  0.64310  0.24310  Biso   1.000  H
  H83      1.0000 0.76160  0.67270  0.23480  Biso   1.000  H
  H84      1.0000 0.75530  0.74870  0.17730  Biso   1.000  H
  C29      1.0000 0.29700  0.18600  0.21670  Biso   1.000  C
  C30      1.0000 0.29400  0.22680  0.18590  Biso   1.000  C
  N71      1.0000 0.42800  0.20065  0.17039  Biso   1.000  N
  N72      1.0000 0.43400  0.17401  0.19065  Biso   1.000  N
  N73      1.0000 0.21200  0.21890  0.21520  Biso   1.000  N
  N74      1.0000 0.26500  0.25960  0.17320  Biso   1.000  N
  H85      1.0000 0.19320  0.27700  0.18510  Biso   1.000  H
  H86      1.0000 0.32250  0.26290  0.15320  Biso   1.000  H
  N75      1.0000 0.27900  0.16510  0.24410  Biso   1.000  N
  H87      1.0000 0.20400  0.17420  0.26210  Biso   1.000  H
  H88      1.0000 0.34150  0.14310  0.24310  Biso   1.000  H
  H89      1.0000 0.26160  0.17270  0.23480  Biso   1.000  H
  H90      1.0000 0.25530  0.24870  0.17730  Biso   1.000  H
  C31      1.0000 0.29700  0.68600  0.71670  Biso   1.000  C
  C32      1.0000 0.29400  0.72680  0.68590  Biso   1.000  C
  N76      1.0000 0.42800  0.70065  0.67039  Biso   1.000  N
  N77      1.0000 0.43400  0.67401  0.69065  Biso   1.000  N
  N78      1.0000 0.21200  0.71890  0.71520  Biso   1.000  N
  N79      1.0000 0.26500  0.75960  0.67320  Biso   1.000  N
  H91      1.0000 0.19320  0.77700  0.68510  Biso   1.000  H
  H92      1.0000 0.32250  0.76290  0.65320  Biso   1.000  H
  N80      1.0000 0.27900  0.66510  0.74410  Biso   1.000  N
  H93      1.0000 0.20400  0.67420  0.76210  Biso   1.000  H
  H94      1.0000 0.34150  0.64310  0.74310  Biso   1.000  H
  H95      1.0000 0.26160  0.67270  0.73480  Biso   1.000  H
  H96      1.0000 0.25530  0.74870  0.67730  Biso   1.000  H
  C33      1.0000 0.20300  0.43600  0.96670  Biso   1.000  C
  C34      1.0000 0.20600  0.47680  0.93590  Biso   1.000  C
  N81      1.0000 0.07200  0.45065  0.92039  Biso   1.000  N
  N82      1.0000 0.06600  0.42401  0.94065  Biso   1.000  N
  N83      1.0000 0.28800  0.46890  0.96520  Biso   1.000  N
  N84      1.0000 0.23500  0.50960  0.92320  Biso   1.000  N
  H97      1.0000 0.30680  0.52700  0.93510  Biso   1.000  H
  H98      1.0000 0.17750  0.51290  0.90320  Biso   1.000  H
  N85      1.0000 0.22100  0.41510  0.99410  Biso   1.000  N
  H99      1.0000 0.29600  0.42420  0.01210  Biso   1.000  H
  H100     1.0000 0.15850  0.39310  0.99310  Biso   1.000  H
  H101     1.0000 0.23840  0.42270  0.98480  Biso   1.000  H
  H102     1.0000 0.24470  0.49870  0.92730  Biso   1.000  H
  C35      1.0000 0.20300  0.93600  0.46670  Biso   1.000  C
  C36      1.0000 0.20600  0.97680  0.43590  Biso   1.000  C
  N86      1.0000 0.07200  0.95065  0.42039  Biso   1.000  N
  N87      1.0000 0.06600  0.92401  0.44065  Biso   1.000  N
  N88      1.0000 0.28800  0.96890  0.46520  Biso   1.000  N
  N89      1.0000 0.23500  0.00960  0.42320  Biso   1.000  N
  H103     1.0000 0.30680  0.02700  0.43510  Biso   1.000  H
  H104     1.0000 0.17750  0.01290  0.40320  Biso   1.000  H
  N90      1.0000 0.22100  0.91510  0.49410  Biso   1.000  N
  H105     1.0000 0.29600  0.92420  0.51210  Biso   1.000  H
  H106     1.0000 0.15850  0.89310  0.49310  Biso   1.000  H
  H107     1.0000 0.23840  0.92270  0.48480  Biso   1.000  H
  H108     1.0000 0.24470  0.99870  0.42730  Biso   1.000  H
  C37      1.0000 0.70300  0.43600  0.46670  Biso   1.000  C
  C38      1.0000 0.70600  0.47680  0.43590  Biso   1.000  C
  N91      1.0000 0.57200  0.45065  0.42039  Biso   1.000  N
  N92      1.0000 0.56600  0.42401  0.44065  Biso   1.000  N
  N93      1.0000 0.78800  0.46890  0.46520  Biso   1.000  N
  N94      1.0000 0.73500  0.50960  0.42320  Biso   1.000  N
  H109     1.0000 0.80680  0.52700  0.43510  Biso   1.000  H
  H110     1.0000 0.67750  0.51290  0.40320  Biso   1.000  H
  N95      1.0000 0.72100  0.41510  0.49410  Biso   1.000  N
  H111     1.0000 0.79600  0.42420  0.51210  Biso   1.000  H
  H112     1.0000 0.65850  0.39310  0.49310  Biso   1.000  H
  H113     1.0000 0.73840  0.42270  0.48480  Biso   1.000  H
  H114     1.0000 0.74470  0.49870  0.42730  Biso   1.000  H
  C39      1.0000 0.70300  0.93600  0.96670  Biso   1.000  C
  C40      1.0000 0.70600  0.97680  0.93590  Biso   1.000  C
  N96      1.0000 0.57200  0.95065  0.92039  Biso   1.000  N
  N97      1.0000 0.56600  0.92401  0.94065  Biso   1.000  N
  N98      1.0000 0.78800  0.96890  0.96520  Biso   1.000  N
  N99      1.0000 0.73500  0.00960  0.92320  Biso   1.000  N
  H115     1.0000 0.80680  0.02700  0.93510  Biso   1.000  H
  H116     1.0000 0.67750  0.01290  0.90320  Biso   1.000  H
  N100     1.0000 0.72100  0.91510  0.99410  Biso   1.000  N
  H117     1.0000 0.79600  0.92420  0.01210  Biso   1.000  H
  H118     1.0000 0.65850  0.89310  0.99310  Biso   1.000  H
  H119     1.0000 0.73840  0.92270  0.98480  Biso   1.000  H
  H120     1.0000 0.74470  0.99870  0.92730  Biso   1.000  H
  C41      1.0000 0.04700  0.81400  0.96670  Biso   1.000  C
  C42      1.0000 0.04400  0.77320  0.93590  Biso   1.000  C
  N101     1.0000 0.17800  0.79935  0.92039  Biso   1.000  N
  N102     1.0000 0.18400  0.82599  0.94065  Biso   1.000  N
  N103     1.0000 0.96200  0.78110  0.96520  Biso   1.000  N
  N104     1.0000 0.01500  0.74040  0.92320  Biso   1.000  N
  H121     1.0000 0.94320  0.72300  0.93510  Biso   1.000  H
  H122     1.0000 0.07250  0.73710  0.90320  Biso   1.000  H
  N105     1.0000 0.02900  0.83490  0.99410  Biso   1.000  N
  H123     1.0000 0.95400  0.82580  0.01210  Biso   1.000  H
  H124     1.0000 0.09150  0.85690  0.99310  Biso   1.000  H
  H125     1.0000 0.01160  0.82730  0.98480  Biso   1.000  H
  H126     1.0000 0.00530  0.75130  0.92730  Biso   1.000  H
  C43      1.0000 0.04700  0.31400  0.46670  Biso   1.000  C
  C44      1.0000 0.04400  0.27320  0.43590  Biso   1.000  C
  N106     1.0000 0.17800  0.29935  0.42039  Biso   1.000  N
  N107     1.0000 0.18400  0.32599  0.44065  Biso   1.000  N
  N108     1.0000 0.96200  0.28110  0.46520  Biso   1.000  N
  N109     1.0000 0.01500  0.24040  0.42320  Biso   1.000  N
  H127     1.0000 0.94320  0.22300  0.43510  Biso   1.000  H
  H128     1.0000 0.07250  0.23710  0.40320  Biso   1.000  H
  N110     1.0000 0.02900  0.33490  0.49410  Biso   1.000  N
  H129     1.0000 0.95400  0.32580  0.51210  Biso   1.000  H
  H130     1.0000 0.09150  0.35690  0.49310  Biso   1.000  H
  H131     1.0000 0.01160  0.32730  0.48480  Biso   1.000  H
  H132     1.0000 0.00530  0.25130  0.42730  Biso   1.000  H
  C45      1.0000 0.54700  0.81400  0.46670  Biso   1.000  C
  C46      1.0000 0.54400  0.77320  0.43590  Biso   1.000  C
  N111     1.0000 0.67800  0.79935  0.42039  Biso   1.000  N
  N112     1.0000 0.68400  0.82599  0.44065  Biso   1.000  N
  N113     1.0000 0.46200  0.78110  0.46520  Biso   1.000  N
  N114     1.0000 0.51500  0.74040  0.42320  Biso   1.000  N
  H133     1.0000 0.44320  0.72300  0.43510  Biso   1.000  H
  H134     1.0000 0.57250  0.73710  0.40320  Biso   1.000  H
  N115     1.0000 0.52900  0.83490  0.49410  Biso   1.000  N
  H135     1.0000 0.45400  0.82580  0.51210  Biso   1.000  H
  H136     1.0000 0.59150  0.85690  0.49310  Biso   1.000  H
  H137     1.0000 0.51160  0.82730  0.48480  Biso   1.000  H
  H138     1.0000 0.50530  0.75130  0.42730  Biso   1.000  H
  C47      1.0000 0.54700  0.31400  0.96670  Biso   1.000  C
  C48      1.0000 0.54400  0.27320  0.93590  Biso   1.000  C
  N116     1.0000 0.67800  0.29935  0.92039  Biso   1.000  N
  N117     1.0000 0.68400  0.32599  0.94065  Biso   1.000  N
  N118     1.0000 0.46200  0.28110  0.96520  Biso   1.000  N
  N119     1.0000 0.51500  0.24040  0.92320  Biso   1.000  N
  H139     1.0000 0.44320  0.22300  0.93510  Biso   1.000  H
  H140     1.0000 0.57250  0.23710  0.90320  Biso   1.000  H
  N120     1.0000 0.52900  0.33490  0.99410  Biso   1.000  N
  H141     1.0000 0.45400  0.32580  0.01210  Biso   1.000  H
  H142     1.0000 0.59150  0.35690  0.99310  Biso   1.000  H
  H143     1.0000 0.51160  0.32730  0.98480  Biso   1.000  H
  H144     1.0000 0.50530  0.25130  0.92730  Biso   1.000  H
  C49      1.0000 0.04700  0.43600  0.28330  Biso   1.000  C
  C50      1.0000 0.04400  0.47680  0.31410  Biso   1.000  C
  N121     1.0000 0.17800  0.45065  0.32961  Biso   1.000  N
  N122     1.0000 0.18400  0.42401  0.30935  Biso   1.000  N
  N123     1.0000 0.96200  0.46890  0.28480  Biso   1.000  N
  N124     1.0000 0.01500  0.50960  0.32680  Biso   1.000  N
  H145     1.0000 0.94320  0.52700  0.31490  Biso   1.000  H
  H146     1.0000 0.07250  0.51290  0.34680  Biso   1.000  H
  N125     1.0000 0.02900  0.41510  0.25590  Biso   1.000  N
  H147     1.0000 0.95400  0.42420  0.23790  Biso   1.000  H
  H148     1.0000 0.09150  0.39310  0.25690  Biso   1.000  H
  H149     1.0000 0.01160  0.42270  0.26520  Biso   1.000  H
  H150     1.0000 0.00530  0.49870  0.32270  Biso   1.000  H
  C51      1.0000 0.04700  0.93600  0.78330  Biso   1.000  C
  C52      1.0000 0.04400  0.97680  0.81410  Biso   1.000  C
  N126     1.0000 0.17800  0.95065  0.82961  Biso   1.000  N
  N127     1.0000 0.18400  0.92401  0.80935  Biso   1.000  N
  N128     1.0000 0.96200  0.96890  0.78480  Biso   1.000  N
  N129     1.0000 0.01500  0.00960  0.82680  Biso   1.000  N
  H151     1.0000 0.94320  0.02700  0.81490  Biso   1.000  H
  H152     1.0000 0.07250  0.01290  0.84680  Biso   1.000  H
  N130     1.0000 0.02900  0.91510  0.75590  Biso   1.000  N
  H153     1.0000 0.95400  0.92420  0.73790  Biso   1.000  H
  H154     1.0000 0.09150  0.89310  0.75690  Biso   1.000  H
  H155     1.0000 0.01160  0.92270  0.76520  Biso   1.000  H
  H156     1.0000 0.00530  0.99870  0.82270  Biso   1.000  H
  C53      1.0000 0.54700  0.43600  0.78330  Biso   1.000  C
  C54      1.0000 0.54400  0.47680  0.81410  Biso   1.000  C
  N131     1.0000 0.67800  0.45065  0.82961  Biso   1.000  N
  N132     1.0000 0.68400  0.42401  0.80935  Biso   1.000  N
  N133     1.0000 0.46200  0.46890  0.78480  Biso   1.000  N
  N134     1.0000 0.51500  0.50960  0.82680  Biso   1.000  N
  H157     1.0000 0.44320  0.52700  0.81490  Biso   1.000  H
  H158     1.0000 0.57250  0.51290  0.84680  Biso   1.000  H
  N135     1.0000 0.52900  0.41510  0.75590  Biso   1.000  N
  H159     1.0000 0.45400  0.42420  0.73790  Biso   1.000  H
  H160     1.0000 0.59150  0.39310  0.75690  Biso   1.000  H
  H161     1.0000 0.51160  0.42270  0.76520  Biso   1.000  H
  H162     1.0000 0.50530  0.49870  0.82270  Biso   1.000  H
  C55      1.0000 0.54700  0.93600  0.28330  Biso   1.000  C
  C56      1.0000 0.54400  0.97680  0.31410  Biso   1.000  C
  N136     1.0000 0.67800  0.95065  0.32961  Biso   1.000  N
  N137     1.0000 0.68400  0.92401  0.30935  Biso   1.000  N
  N138     1.0000 0.46200  0.96890  0.28480  Biso   1.000  N
  N139     1.0000 0.51500  0.00960  0.32680  Biso   1.000  N
  H163     1.0000 0.44320  0.02700  0.31490  Biso   1.000  H
  H164     1.0000 0.57250  0.01290  0.34680  Biso   1.000  H
  N140     1.0000 0.52900  0.91510  0.25590  Biso   1.000  N
  H165     1.0000 0.45400  0.92420  0.23790  Biso   1.000  H
  H166     1.0000 0.59150  0.89310  0.25690  Biso   1.000  H
  H167     1.0000 0.51160  0.92270  0.26520  Biso   1.000  H
  H168     1.0000 0.50530  0.99870  0.32270  Biso   1.000  H
  C57      1.0000 0.20300  0.81400  0.28330  Biso   1.000  C
  C58      1.0000 0.20600  0.77320  0.31410  Biso   1.000  C
  N141     1.0000 0.07200  0.79935  0.32961  Biso   1.000  N
  N142     1.0000 0.06600  0.82599  0.30935  Biso   1.000  N
  N143     1.0000 0.28800  0.78110  0.28480  Biso   1.000  N
  N144     1.0000 0.23500  0.74040  0.32680  Biso   1.000  N
  H169     1.0000 0.30680  0.72300  0.31490  Biso   1.000  H
  H170     1.0000 0.17750  0.73710  0.34680  Biso   1.000  H
  N145     1.0000 0.22100  0.83490  0.25590  Biso   1.000  N
  H171     1.0000 0.29600  0.82580  0.23790  Biso   1.000  H
  H172     1.0000 0.15850  0.85690  0.25690  Biso   1.000  H
  H173     1.0000 0.23840  0.82730  0.26520  Biso   1.000  H
  H174     1.0000 0.24470  0.75130  0.32270  Biso   1.000  H
  C59      1.0000 0.20300  0.31400  0.78330  Biso   1.000  C
  C60      1.0000 0.20600  0.27320  0.81410  Biso   1.000  C
  N146     1.0000 0.07200  0.29935  0.82961  Biso   1.000  N
  N147     1.0000 0.06600  0.32599  0.80935  Biso   1.000  N
  N148     1.0000 0.28800  0.28110  0.78480  Biso   1.000  N
  N149     1.0000 0.23500  0.24040  0.82680  Biso   1.000  N
  H175     1.0000 0.30680  0.22300  0.81490  Biso   1.000  H
  H176     1.0000 0.17750  0.23710  0.84680  Biso   1.000  H
  N150     1.0000 0.22100  0.33490  0.75590  Biso   1.000  N
  H177     1.0000 0.29600  0.32580  0.73790  Biso   1.000  H
  H178     1.0000 0.15850  0.35690  0.75690  Biso   1.000  H
  H179     1.0000 0.23840  0.32730  0.76520  Biso   1.000  H
  H180     1.0000 0.24470  0.25130  0.82270  Biso   1.000  H
  C61      1.0000 0.70300  0.81400  0.78330  Biso   1.000  C
  C62      1.0000 0.70600  0.77320  0.81410  Biso   1.000  C
  N151     1.0000 0.57200  0.79935  0.82961  Biso   1.000  N
  N152     1.0000 0.56600  0.82599  0.80935  Biso   1.000  N
  N153     1.0000 0.78800  0.78110  0.78480  Biso   1.000  N
  N154     1.0000 0.73500  0.74040  0.82680  Biso   1.000  N
  H181     1.0000 0.80680  0.72300  0.81490  Biso   1.000  H
  H182     1.0000 0.67750  0.73710  0.84680  Biso   1.000  H
  N155     1.0000 0.72100  0.83490  0.75590  Biso   1.000  N
  H183     1.0000 0.79600  0.82580  0.73790  Biso   1.000  H
  H184     1.0000 0.65850  0.85690  0.75690  Biso   1.000  H
  H185     1.0000 0.73840  0.82730  0.76520  Biso   1.000  H
  H186     1.0000 0.74470  0.75130  0.82270  Biso   1.000  H
  C63      1.0000 0.70300  0.31400  0.28330  Biso   1.000  C
  C64      1.0000 0.70600  0.27320  0.31410  Biso   1.000  C
  N156     1.0000 0.57200  0.29935  0.32961  Biso   1.000  N
  N157     1.0000 0.56600  0.32599  0.30935  Biso   1.000  N
  N158     1.0000 0.78800  0.28110  0.28480  Biso   1.000  N
  N159     1.0000 0.73500  0.24040  0.32680  Biso   1.000  N
  H187     1.0000 0.80680  0.22300  0.31490  Biso   1.000  H
  H188     1.0000 0.67750  0.23710  0.34680  Biso   1.000  H
  N160     1.0000 0.72100  0.33490  0.25590  Biso   1.000  N
  H189     1.0000 0.79600  0.32580  0.23790  Biso   1.000  H
  H190     1.0000 0.65850  0.35690  0.25690  Biso   1.000  H
  H191     1.0000 0.73840  0.32730  0.26520  Biso   1.000  H
  H192     1.0000 0.74470  0.25130  0.32270  Biso   1.000  H
  Ag1      1.0000 0.12500  0.55574  0.12500  Biso   1.000  Ag
  Ag2      1.0000 0.12500  0.05574  0.62500  Biso   1.000  Ag
  Ag3      1.0000 0.62500  0.19426  0.12500  Biso   1.000  Ag
  Ag4      1.0000 0.62500  0.69426  0.62500  Biso   1.000  Ag
  Ag5      1.0000 0.62500  0.55574  0.62500  Biso   1.000  Ag
  Ag6      1.0000 0.62500  0.05574  0.12500  Biso   1.000  Ag
  Ag7      1.0000 0.12500  0.19426  0.62500  Biso   1.000  Ag
  Ag8      1.0000 0.12500  0.69426  0.12500  Biso   1.000  Ag
  Ag9      1.0000 0.87500  0.44426  0.87500  Biso   1.000  Ag
  Ag10     1.0000 0.87500  0.94426  0.37500  Biso   1.000  Ag
  Ag11     1.0000 0.37500  0.80574  0.87500  Biso   1.000  Ag
  Ag12     1.0000 0.37500  0.30574  0.37500  Biso   1.000  Ag
  Ag13     1.0000 0.37500  0.44426  0.37500  Biso   1.000  Ag
  Ag14     1.0000 0.37500  0.94426  0.87500  Biso   1.000  Ag
  Ag15     1.0000 0.87500  0.80574  0.37500  Biso   1.000  Ag
  Ag16     1.0000 0.87500  0.30574  0.87500  Biso   1.000  Ag
  Ag17     1.0000 0.12500  0.62500  0.07225  Biso   1.000  Ag
  Ag18     1.0000 0.12500  0.12500  0.57225  Biso   1.000  Ag
  Ag19     1.0000 0.62500  0.12500  0.07225  Biso   1.000  Ag
  Ag20     1.0000 0.62500  0.62500  0.57225  Biso   1.000  Ag
  Ag21     1.0000 0.62500  0.62500  0.67775  Biso   1.000  Ag
  Ag22     1.0000 0.62500  0.12500  0.17775  Biso   1.000  Ag
  Ag23     1.0000 0.12500  0.12500  0.67775  Biso   1.000  Ag
  Ag24     1.0000 0.12500  0.62500  0.17775  Biso   1.000  Ag
  Ag25     1.0000 0.87500  0.37500  0.92775  Biso   1.000  Ag
  Ag26     1.0000 0.87500  0.87500  0.42775  Biso   1.000  Ag
  Ag27     1.0000 0.37500  0.87500  0.92775  Biso   1.000  Ag
  Ag28     1.0000 0.37500  0.37500  0.42775  Biso   1.000  Ag
  Ag29     1.0000 0.37500  0.37500  0.32225  Biso   1.000  Ag
  Ag30     1.0000 0.37500  0.87500  0.82225  Biso   1.000  Ag
  Ag31     1.0000 0.87500  0.87500  0.32225  Biso   1.000  Ag
  Ag32     1.0000 0.87500  0.37500  0.82225  Biso   1.000  Ag
  Ag33     1.0000 0.50000  0.50000  0.00000  Biso   1.000  Ag
  Ag34     1.0000 0.50000  0.00000  0.50000  Biso   1.000  Ag
  Ag35     1.0000 0.00000  0.50000  0.50000  Biso   1.000  Ag
  Ag36     1.0000 0.00000  0.00000  0.00000  Biso   1.000  Ag
  Ag37     1.0000 0.25000  0.25000  0.00000  Biso   1.000  Ag
  Ag38     1.0000 0.25000  0.75000  0.50000  Biso   1.000  Ag
  Ag39     1.0000 0.25000  0.50000  0.75000  Biso   1.000  Ag
  Ag40     1.0000 0.25000  0.00000  0.25000  Biso   1.000  Ag
  Ag41     1.0000 0.50000  0.25000  0.75000  Biso   1.000  Ag
  Ag42     1.0000 0.00000  0.25000  0.25000  Biso   1.000  Ag
  Ag43     1.0000 0.75000  0.75000  0.00000  Biso   1.000  Ag
  Ag44     1.0000 0.75000  0.25000  0.50000  Biso   1.000  Ag
  Ag45     1.0000 0.75000  0.50000  0.25000  Biso   1.000  Ag
  Ag46     1.0000 0.75000  0.00000  0.75000  Biso   1.000  Ag
  Ag47     1.0000 0.50000  0.75000  0.25000  Biso   1.000  Ag
  Ag48     1.0000 0.00000  0.75000  0.75000  Biso   1.000  Ag
