data_image0
_cell_length_a       29.5862
_cell_length_b       29.5862
_cell_length_c       3.4563
_cell_angle_alpha    90
_cell_angle_beta     90
_cell_angle_gamma    90

_symmetry_space_group_name_H-M    "P 1"
_symmetry_int_tables_number       1

loop_
  _symmetry_equiv_pos_as_xyz
  'x, y, z'

loop_
  _atom_site_label
  _atom_site_occupancy
  _atom_site_fract_x
  _atom_site_fract_y
  _atom_site_fract_z
  _atom_site_thermal_displace_type
  _atom_site_B_iso_or_equiv
  _atom_site_type_symbol
  N1       1.0000 0.11699  0.72652  0.32620  Biso   1.000  N
  C1       1.0000 0.15710  0.71490  0.45300  Biso   1.000  C
  N2       1.0000 0.16920  0.66920  0.48500  Biso   1.000  N
  H1       1.0000 0.15030  0.64850  0.42030  Biso   1.000  H
  H2       1.0000 0.19560  0.66190  0.56820  Biso   1.000  H
  H3       1.0000 0.16620  0.68510  0.48170  Biso   1.000  H
  N3       1.0000 0.61699  0.22652  0.82620  Biso   1.000  N
  C2       1.0000 0.65710  0.21490  0.95300  Biso   1.000  C
  N4       1.0000 0.66920  0.16920  0.98500  Biso   1.000  N
  H4       1.0000 0.65030  0.14850  0.92030  Biso   1.000  H
  H5       1.0000 0.69560  0.16190  0.06820  Biso   1.000  H
  H6       1.0000 0.66620  0.18510  0.98170  Biso   1.000  H
  N5       1.0000 0.38301  0.27348  0.82620  Biso   1.000  N
  C3       1.0000 0.34290  0.28510  0.95300  Biso   1.000  C
  N6       1.0000 0.33080  0.33080  0.98500  Biso   1.000  N
  H7       1.0000 0.34970  0.35150  0.92030  Biso   1.000  H
  H8       1.0000 0.30440  0.33810  0.06820  Biso   1.000  H
  H9       1.0000 0.33380  0.31490  0.98170  Biso   1.000  H
  N7       1.0000 0.88301  0.77348  0.32620  Biso   1.000  N
  C4       1.0000 0.84290  0.78510  0.45300  Biso   1.000  C
  N8       1.0000 0.83080  0.83080  0.48500  Biso   1.000  N
  H10      1.0000 0.84970  0.85150  0.42030  Biso   1.000  H
  H11      1.0000 0.80440  0.83810  0.56820  Biso   1.000  H
  H12      1.0000 0.83380  0.81490  0.48170  Biso   1.000  H
  N9       1.0000 0.52348  0.86699  0.57620  Biso   1.000  N
  C5       1.0000 0.53510  0.90710  0.70300  Biso   1.000  C
  N10      1.0000 0.58080  0.91920  0.73500  Biso   1.000  N
  H13      1.0000 0.60150  0.90030  0.67030  Biso   1.000  H
  H14      1.0000 0.58810  0.94560  0.81820  Biso   1.000  H
  H15      1.0000 0.56490  0.91620  0.73170  Biso   1.000  H
  N11      1.0000 0.02348  0.36699  0.07620  Biso   1.000  N
  C6       1.0000 0.03510  0.40710  0.20300  Biso   1.000  C
  N12      1.0000 0.08080  0.41920  0.23500  Biso   1.000  N
  H16      1.0000 0.10150  0.40030  0.17030  Biso   1.000  H
  H17      1.0000 0.08810  0.44560  0.31820  Biso   1.000  H
  H18      1.0000 0.06490  0.41620  0.23170  Biso   1.000  H
  N13      1.0000 0.97652  0.13301  0.07620  Biso   1.000  N
  C7       1.0000 0.96490  0.09290  0.20300  Biso   1.000  C
  N14      1.0000 0.91920  0.08080  0.23500  Biso   1.000  N
  H19      1.0000 0.89850  0.09970  0.17030  Biso   1.000  H
  H20      1.0000 0.91190  0.05440  0.31820  Biso   1.000  H
  H21      1.0000 0.93510  0.08380  0.23170  Biso   1.000  H
  N15      1.0000 0.47652  0.63301  0.57620  Biso   1.000  N
  C8       1.0000 0.46490  0.59290  0.70300  Biso   1.000  C
  N16      1.0000 0.41920  0.58080  0.73500  Biso   1.000  N
  H22      1.0000 0.39850  0.59970  0.67030  Biso   1.000  H
  H23      1.0000 0.41190  0.55440  0.81820  Biso   1.000  H
  H24      1.0000 0.43510  0.58380  0.73170  Biso   1.000  H
  N17      1.0000 0.38301  0.72652  0.17380  Biso   1.000  N
  C9       1.0000 0.34290  0.71490  0.04700  Biso   1.000  C
  N18      1.0000 0.33080  0.66920  0.01500  Biso   1.000  N
  H25      1.0000 0.34970  0.64850  0.07970  Biso   1.000  H
  H26      1.0000 0.30440  0.66190  0.93180  Biso   1.000  H
  H27      1.0000 0.33380  0.68510  0.01830  Biso   1.000  H
  N19      1.0000 0.88301  0.22652  0.67380  Biso   1.000  N
  C10      1.0000 0.84290  0.21490  0.54700  Biso   1.000  C
  N20      1.0000 0.83080  0.16920  0.51500  Biso   1.000  N
  H28      1.0000 0.84970  0.14850  0.57970  Biso   1.000  H
  H29      1.0000 0.80440  0.16190  0.43180  Biso   1.000  H
  H30      1.0000 0.83380  0.18510  0.51830  Biso   1.000  H
  N21      1.0000 0.11699  0.27348  0.67380  Biso   1.000  N
  C11      1.0000 0.15710  0.28510  0.54700  Biso   1.000  C
  N22      1.0000 0.16920  0.33080  0.51500  Biso   1.000  N
  H31      1.0000 0.15030  0.35150  0.57970  Biso   1.000  H
  H32      1.0000 0.19560  0.33810  0.43180  Biso   1.000  H
  H33      1.0000 0.16620  0.31490  0.51830  Biso   1.000  H
  N23      1.0000 0.61699  0.77348  0.17380  Biso   1.000  N
  C12      1.0000 0.65710  0.78510  0.04700  Biso   1.000  C
  N24      1.0000 0.66920  0.83080  0.01500  Biso   1.000  N
  H34      1.0000 0.65030  0.85150  0.07970  Biso   1.000  H
  H35      1.0000 0.69560  0.83810  0.93180  Biso   1.000  H
  H36      1.0000 0.66620  0.81490  0.01830  Biso   1.000  H
  N25      1.0000 0.97652  0.86699  0.92380  Biso   1.000  N
  C13      1.0000 0.96490  0.90710  0.79700  Biso   1.000  C
  N26      1.0000 0.91920  0.91920  0.76500  Biso   1.000  N
  H37      1.0000 0.89850  0.90030  0.82970  Biso   1.000  H
  H38      1.0000 0.91190  0.94560  0.68180  Biso   1.000  H
  H39      1.0000 0.93510  0.91620  0.76830  Biso   1.000  H
  N27      1.0000 0.47652  0.36699  0.42380  Biso   1.000  N
  C14      1.0000 0.46490  0.40710  0.29700  Biso   1.000  C
  N28      1.0000 0.41920  0.41920  0.26500  Biso   1.000  N
  H40      1.0000 0.39850  0.40030  0.32970  Biso   1.000  H
  H41      1.0000 0.41190  0.44560  0.18180  Biso   1.000  H
  H42      1.0000 0.43510  0.41620  0.26830  Biso   1.000  H
  N29      1.0000 0.52348  0.13301  0.42380  Biso   1.000  N
  C15      1.0000 0.53510  0.09290  0.29700  Biso   1.000  C
  N30      1.0000 0.58080  0.08080  0.26500  Biso   1.000  N
  H43      1.0000 0.60150  0.09970  0.32970  Biso   1.000  H
  H44      1.0000 0.58810  0.05440  0.18180  Biso   1.000  H
  H45      1.0000 0.56490  0.08380  0.26830  Biso   1.000  H
  N31      1.0000 0.02348  0.63301  0.92380  Biso   1.000  N
  C16      1.0000 0.03510  0.59290  0.79700  Biso   1.000  C
  N32      1.0000 0.08080  0.58080  0.76500  Biso   1.000  N
  H46      1.0000 0.10150  0.59970  0.82970  Biso   1.000  H
  H47      1.0000 0.08810  0.55440  0.68180  Biso   1.000  H
  H48      1.0000 0.06490  0.58380  0.76830  Biso   1.000  H
  N33      1.0000 0.88301  0.27348  0.67380  Biso   1.000  N
  C17      1.0000 0.84290  0.28510  0.54700  Biso   1.000  C
  N34      1.0000 0.83080  0.33080  0.51500  Biso   1.000  N
  H49      1.0000 0.84970  0.35150  0.57970  Biso   1.000  H
  H50      1.0000 0.80440  0.33810  0.43180  Biso   1.000  H
  H51      1.0000 0.83380  0.31490  0.51830  Biso   1.000  H
  N35      1.0000 0.38301  0.77348  0.17380  Biso   1.000  N
  C18      1.0000 0.34290  0.78510  0.04700  Biso   1.000  C
  N36      1.0000 0.33080  0.83080  0.01500  Biso   1.000  N
  H52      1.0000 0.34970  0.85150  0.07970  Biso   1.000  H
  H53      1.0000 0.30440  0.83810  0.93180  Biso   1.000  H
  H54      1.0000 0.33380  0.81490  0.01830  Biso   1.000  H
  N37      1.0000 0.61699  0.72652  0.17380  Biso   1.000  N
  C19      1.0000 0.65710  0.71490  0.04700  Biso   1.000  C
  N38      1.0000 0.66920  0.66920  0.01500  Biso   1.000  N
  H55      1.0000 0.65030  0.64850  0.07970  Biso   1.000  H
  H56      1.0000 0.69560  0.66190  0.93180  Biso   1.000  H
  H57      1.0000 0.66620  0.68510  0.01830  Biso   1.000  H
  N39      1.0000 0.11699  0.22652  0.67380  Biso   1.000  N
  C20      1.0000 0.15710  0.21490  0.54700  Biso   1.000  C
  N40      1.0000 0.16920  0.16920  0.51500  Biso   1.000  N
  H58      1.0000 0.15030  0.14850  0.57970  Biso   1.000  H
  H59      1.0000 0.19560  0.16190  0.43180  Biso   1.000  H
  H60      1.0000 0.16620  0.18510  0.51830  Biso   1.000  H
  N41      1.0000 0.47652  0.13301  0.42380  Biso   1.000  N
  C21      1.0000 0.46490  0.09290  0.29700  Biso   1.000  C
  N42      1.0000 0.41920  0.08080  0.26500  Biso   1.000  N
  H61      1.0000 0.39850  0.09970  0.32970  Biso   1.000  H
  H62      1.0000 0.41190  0.05440  0.18180  Biso   1.000  H
  H63      1.0000 0.43510  0.08380  0.26830  Biso   1.000  H
  N43      1.0000 0.97652  0.63301  0.92380  Biso   1.000  N
  C22      1.0000 0.96490  0.59290  0.79700  Biso   1.000  C
  N44      1.0000 0.91920  0.58080  0.76500  Biso   1.000  N
  H64      1.0000 0.89850  0.59970  0.82970  Biso   1.000  H
  H65      1.0000 0.91190  0.55440  0.68180  Biso   1.000  H
  H66      1.0000 0.93510  0.58380  0.76830  Biso   1.000  H
  N45      1.0000 0.02348  0.86699  0.92380  Biso   1.000  N
  C23      1.0000 0.03510  0.90710  0.79700  Biso   1.000  C
  N46      1.0000 0.08080  0.91920  0.76500  Biso   1.000  N
  H67      1.0000 0.10150  0.90030  0.82970  Biso   1.000  H
  H68      1.0000 0.08810  0.94560  0.68180  Biso   1.000  H
  H69      1.0000 0.06490  0.91620  0.76830  Biso   1.000  H
  N47      1.0000 0.52348  0.36699  0.42380  Biso   1.000  N
  C24      1.0000 0.53510  0.40710  0.29700  Biso   1.000  C
  N48      1.0000 0.58080  0.41920  0.26500  Biso   1.000  N
  H70      1.0000 0.60150  0.40030  0.32970  Biso   1.000  H
  H71      1.0000 0.58810  0.44560  0.18180  Biso   1.000  H
  H72      1.0000 0.56490  0.41620  0.26830  Biso   1.000  H
  N49      1.0000 0.61699  0.27348  0.82620  Biso   1.000  N
  C25      1.0000 0.65710  0.28510  0.95300  Biso   1.000  C
  N50      1.0000 0.66920  0.33080  0.98500  Biso   1.000  N
  H73      1.0000 0.65030  0.35150  0.92030  Biso   1.000  H
  H74      1.0000 0.69560  0.33810  0.06820  Biso   1.000  H
  H75      1.0000 0.66620  0.31490  0.98170  Biso   1.000  H
  N51      1.0000 0.11699  0.77348  0.32620  Biso   1.000  N
  C26      1.0000 0.15710  0.78510  0.45300  Biso   1.000  C
  N52      1.0000 0.16920  0.83080  0.48500  Biso   1.000  N
  H76      1.0000 0.15030  0.85150  0.42030  Biso   1.000  H
  H77      1.0000 0.19560  0.83810  0.56820  Biso   1.000  H
  H78      1.0000 0.16620  0.81490  0.48170  Biso   1.000  H
  N53      1.0000 0.88301  0.72652  0.32620  Biso   1.000  N
  C27      1.0000 0.84290  0.71490  0.45300  Biso   1.000  C
  N54      1.0000 0.83080  0.66920  0.48500  Biso   1.000  N
  H79      1.0000 0.84970  0.64850  0.42030  Biso   1.000  H
  H80      1.0000 0.80440  0.66190  0.56820  Biso   1.000  H
  H81      1.0000 0.83380  0.68510  0.48170  Biso   1.000  H
  N55      1.0000 0.38301  0.22652  0.82620  Biso   1.000  N
  C28      1.0000 0.34290  0.21490  0.95300  Biso   1.000  C
  N56      1.0000 0.33080  0.16920  0.98500  Biso   1.000  N
  H82      1.0000 0.34970  0.14850  0.92030  Biso   1.000  H
  H83      1.0000 0.30440  0.16190  0.06820  Biso   1.000  H
  H84      1.0000 0.33380  0.18510  0.98170  Biso   1.000  H
  N57      1.0000 0.02348  0.13301  0.07620  Biso   1.000  N
  C29      1.0000 0.03510  0.09290  0.20300  Biso   1.000  C
  N58      1.0000 0.08080  0.08080  0.23500  Biso   1.000  N
  H85      1.0000 0.10150  0.09970  0.17030  Biso   1.000  H
  H86      1.0000 0.08810  0.05440  0.31820  Biso   1.000  H
  H87      1.0000 0.06490  0.08380  0.23170  Biso   1.000  H
  N59      1.0000 0.52348  0.63301  0.57620  Biso   1.000  N
  C30      1.0000 0.53510  0.59290  0.70300  Biso   1.000  C
  N60      1.0000 0.58080  0.58080  0.73500  Biso   1.000  N
  H88      1.0000 0.60150  0.59970  0.67030  Biso   1.000  H
  H89      1.0000 0.58810  0.55440  0.81820  Biso   1.000  H
  H90      1.0000 0.56490  0.58380  0.73170  Biso   1.000  H
  N61      1.0000 0.47652  0.86699  0.57620  Biso   1.000  N
  C31      1.0000 0.46490  0.90710  0.70300  Biso   1.000  C
  N62      1.0000 0.41920  0.91920  0.73500  Biso   1.000  N
  H91      1.0000 0.39850  0.90030  0.67030  Biso   1.000  H
  H92      1.0000 0.41190  0.94560  0.81820  Biso   1.000  H
  H93      1.0000 0.43510  0.91620  0.73170  Biso   1.000  H
  N63      1.0000 0.97652  0.36699  0.07620  Biso   1.000  N
  C32      1.0000 0.96490  0.40710  0.20300  Biso   1.000  C
  N64      1.0000 0.91920  0.41920  0.23500  Biso   1.000  N
  H94      1.0000 0.89850  0.40030  0.17030  Biso   1.000  H
  H95      1.0000 0.91190  0.44560  0.31820  Biso   1.000  H
  H96      1.0000 0.93510  0.41620  0.23170  Biso   1.000  H
  Ag1      1.0000 0.06044  0.68956  0.12500  Biso   1.000  Ag
  Ag2      1.0000 0.43956  0.31044  0.62500  Biso   1.000  Ag
  Ag3      1.0000 0.56044  0.81044  0.37500  Biso   1.000  Ag
  Ag4      1.0000 0.93956  0.18956  0.87500  Biso   1.000  Ag
  Ag5      1.0000 0.43956  0.68956  0.37500  Biso   1.000  Ag
  Ag6      1.0000 0.06044  0.31044  0.87500  Biso   1.000  Ag
  Ag7      1.0000 0.93956  0.81044  0.12500  Biso   1.000  Ag
  Ag8      1.0000 0.56044  0.18956  0.62500  Biso   1.000  Ag
  Ag9      1.0000 0.93956  0.31044  0.87500  Biso   1.000  Ag
  Ag10     1.0000 0.56044  0.68956  0.37500  Biso   1.000  Ag
  Ag11     1.0000 0.43956  0.18956  0.62500  Biso   1.000  Ag
  Ag12     1.0000 0.06044  0.81044  0.12500  Biso   1.000  Ag
  Ag13     1.0000 0.56044  0.31044  0.62500  Biso   1.000  Ag
  Ag14     1.0000 0.93956  0.68956  0.12500  Biso   1.000  Ag
  Ag15     1.0000 0.06044  0.18956  0.87500  Biso   1.000  Ag
  Ag16     1.0000 0.43956  0.81044  0.37500  Biso   1.000  Ag
  Ag17     1.0000 0.25000  0.75000  0.75000  Biso   1.000  Ag
  Ag18     1.0000 0.25000  0.25000  0.25000  Biso   1.000  Ag
  Ag19     1.0000 0.50000  0.00000  0.00000  Biso   1.000  Ag
  Ag20     1.0000 0.00000  0.50000  0.50000  Biso   1.000  Ag
  Ag21     1.0000 0.00000  0.00000  0.50000  Biso   1.000  Ag
  Ag22     1.0000 0.50000  0.50000  0.00000  Biso   1.000  Ag
  Ag23     1.0000 0.75000  0.25000  0.25000  Biso   1.000  Ag
  Ag24     1.0000 0.75000  0.75000  0.75000  Biso   1.000  Ag
  N65      1.0000 0.18360  0.75000  0.53700  Biso   1.000  N
  N66      1.0000 0.31640  0.25000  0.03700  Biso   1.000  N
  N67      1.0000 0.50000  0.93360  0.78700  Biso   1.000  N
  N68      1.0000 0.00000  0.43360  0.28700  Biso   1.000  N
  N69      1.0000 0.00000  0.06640  0.28700  Biso   1.000  N
  N70      1.0000 0.50000  0.56640  0.78700  Biso   1.000  N
  N71      1.0000 0.31640  0.75000  0.96300  Biso   1.000  N
  N72      1.0000 0.18360  0.25000  0.46300  Biso   1.000  N
  N73      1.0000 0.00000  0.93360  0.71300  Biso   1.000  N
  N74      1.0000 0.50000  0.43360  0.21300  Biso   1.000  N
  N75      1.0000 0.50000  0.06640  0.21300  Biso   1.000  N
  N76      1.0000 0.00000  0.56640  0.71300  Biso   1.000  N
  N77      1.0000 0.81640  0.25000  0.46300  Biso   1.000  N
  N78      1.0000 0.68360  0.75000  0.96300  Biso   1.000  N
  N79      1.0000 0.68360  0.25000  0.03700  Biso   1.000  N
  N80      1.0000 0.81640  0.75000  0.53700  Biso   1.000  N
