data_image0
_cell_length_a       10.3848
_cell_length_b       8.342
_cell_length_c       10.5774
_cell_angle_alpha    90
_cell_angle_beta     90
_cell_angle_gamma    90

_symmetry_space_group_name_H-M    "P 1"
_symmetry_int_tables_number       1

loop_
  _symmetry_equiv_pos_as_xyz
  'x, y, z'

loop_
  _atom_site_label
  _atom_site_occupancy
  _atom_site_fract_x
  _atom_site_fract_y
  _atom_site_fract_z
  _atom_site_thermal_displace_type
  _atom_site_B_iso_or_equiv
  _atom_site_type_symbol
  P1       1.0000 0.16780  0.06730  0.37310  Biso   1.000  P
  O1       1.0000 0.27080  0.07270  0.27100  Biso   1.000  O
  O2       1.0000 0.18840  0.93060  0.46300  Biso   1.000  O
  O3       1.0000 0.03170  0.06880  0.31720  Biso   1.000  O
  H1       1.0000 0.55630  0.33280  0.91070  Biso   1.000  H
  H2       1.0000 0.30060  0.15240  0.59960  Biso   1.000  H
  P2       1.0000 0.33220  0.93270  0.87310  Biso   1.000  P
  O4       1.0000 0.22920  0.92730  0.77100  Biso   1.000  O
  O5       1.0000 0.31160  0.06940  0.96300  Biso   1.000  O
  O6       1.0000 0.46830  0.93120  0.81720  Biso   1.000  O
  H3       1.0000 0.94370  0.66720  0.41070  Biso   1.000  H
  H4       1.0000 0.19940  0.84760  0.09960  Biso   1.000  H
  P3       1.0000 0.83220  0.56730  0.62690  Biso   1.000  P
  O7       1.0000 0.72920  0.57270  0.72900  Biso   1.000  O
  O8       1.0000 0.81160  0.43060  0.53700  Biso   1.000  O
  O9       1.0000 0.96830  0.56880  0.68280  Biso   1.000  O
  H5       1.0000 0.44370  0.83280  0.08930  Biso   1.000  H
  H6       1.0000 0.69940  0.65240  0.40040  Biso   1.000  H
  P4       1.0000 0.66780  0.43270  0.12690  Biso   1.000  P
  O10      1.0000 0.77080  0.42730  0.22900  Biso   1.000  O
  O11      1.0000 0.68840  0.56940  0.03700  Biso   1.000  O
  O12      1.0000 0.53170  0.43120  0.18280  Biso   1.000  O
  H7       1.0000 0.05630  0.16720  0.58930  Biso   1.000  H
  H8       1.0000 0.80060  0.34760  0.90040  Biso   1.000  H
  P5       1.0000 0.83220  0.93270  0.62690  Biso   1.000  P
  O13      1.0000 0.72920  0.92730  0.72900  Biso   1.000  O
  O14      1.0000 0.81160  0.06940  0.53700  Biso   1.000  O
  O15      1.0000 0.96830  0.93120  0.68280  Biso   1.000  O
  H9       1.0000 0.44370  0.66720  0.08930  Biso   1.000  H
  H10      1.0000 0.69940  0.84760  0.40040  Biso   1.000  H
  P6       1.0000 0.66780  0.06730  0.12690  Biso   1.000  P
  O16      1.0000 0.77080  0.07270  0.22900  Biso   1.000  O
  O17      1.0000 0.68840  0.93060  0.03700  Biso   1.000  O
  O18      1.0000 0.53170  0.06880  0.18280  Biso   1.000  O
  H11      1.0000 0.05630  0.33280  0.58930  Biso   1.000  H
  H12      1.0000 0.80060  0.15240  0.90040  Biso   1.000  H
  P7       1.0000 0.16780  0.43270  0.37310  Biso   1.000  P
  O19      1.0000 0.27080  0.42730  0.27100  Biso   1.000  O
  O20      1.0000 0.18840  0.56940  0.46300  Biso   1.000  O
  O21      1.0000 0.03170  0.43120  0.31720  Biso   1.000  O
  H13      1.0000 0.55630  0.16720  0.91070  Biso   1.000  H
  H14      1.0000 0.30060  0.34760  0.59960  Biso   1.000  H
  P8       1.0000 0.33220  0.56730  0.87310  Biso   1.000  P
  O22      1.0000 0.22920  0.57270  0.77100  Biso   1.000  O
  O23      1.0000 0.31160  0.43060  0.96300  Biso   1.000  O
  O24      1.0000 0.46830  0.56880  0.81720  Biso   1.000  O
  H15      1.0000 0.94370  0.83280  0.41070  Biso   1.000  H
  H16      1.0000 0.19940  0.65240  0.09960  Biso   1.000  H
  Sm1      1.0000 0.36075  0.25000  0.12059  Biso   1.000  Sm
  O25      1.0000 0.05770  0.25000  0.54240  Biso   1.000  O
  C1       1.0000 0.17940  0.25000  0.46700  Biso   1.000  C
  C2       1.0000 0.29800  0.25000  0.55200  Biso   1.000  C
  H17      1.0000 0.37410  0.25000  0.50020  Biso   1.000  H
  Sm2      1.0000 0.13925  0.75000  0.62059  Biso   1.000  Sm
  O26      1.0000 0.44230  0.75000  0.04240  Biso   1.000  O
  C3       1.0000 0.32060  0.75000  0.96700  Biso   1.000  C
  C4       1.0000 0.20200  0.75000  0.05200  Biso   1.000  C
  H18      1.0000 0.12590  0.75000  0.00020  Biso   1.000  H
  Sm3      1.0000 0.63925  0.75000  0.87941  Biso   1.000  Sm
  O27      1.0000 0.94230  0.75000  0.45760  Biso   1.000  O
  C5       1.0000 0.82060  0.75000  0.53300  Biso   1.000  C
  C6       1.0000 0.70200  0.75000  0.44800  Biso   1.000  C
  H19      1.0000 0.62590  0.75000  0.49980  Biso   1.000  H
  Sm4      1.0000 0.86075  0.25000  0.37941  Biso   1.000  Sm
  O28      1.0000 0.55770  0.25000  0.95760  Biso   1.000  O
  C7       1.0000 0.67940  0.25000  0.03300  Biso   1.000  C
  C8       1.0000 0.79800  0.25000  0.94800  Biso   1.000  C
  H20      1.0000 0.87410  0.25000  0.99980  Biso   1.000  H
