data_image0
_cell_length_a       8.6544
_cell_length_b       10.3809
_cell_length_c       10.7646
_cell_angle_alpha    90
_cell_angle_beta     90
_cell_angle_gamma    90

_symmetry_space_group_name_H-M    "P 1"
_symmetry_int_tables_number       1

loop_
  _symmetry_equiv_pos_as_xyz
  'x, y, z'

loop_
  _atom_site_label
  _atom_site_occupancy
  _atom_site_fract_x
  _atom_site_fract_y
  _atom_site_fract_z
  _atom_site_thermal_displace_type
  _atom_site_B_iso_or_equiv
  _atom_site_type_symbol
  Pr1      1.0000 0.49280  0.39847  0.61346  Biso   1.000  Pr
  P1       1.0000 0.69340  0.58160  0.86180  Biso   1.000  P
  P2       1.0000 0.34240  0.58570  0.89250  Biso   1.000  P
  O1       1.0000 0.67720  0.47210  0.76930  Biso   1.000  O
  O2       1.0000 0.67090  0.71530  0.80260  Biso   1.000  O
  O3       1.0000 0.84160  0.57080  0.93650  Biso   1.000  O
  O4       1.0000 0.21950  0.54480  0.98440  Biso   1.000  O
  O5       1.0000 0.32490  0.72560  0.85680  Biso   1.000  O
  O6       1.0000 0.34540  0.49710  0.77920  Biso   1.000  O
  O7       1.0000 0.54280  0.69510  0.04500  Biso   1.000  O
  H1       1.0000 0.63100  0.69820  0.07870  Biso   1.000  H
  C1       1.0000 0.53220  0.57470  0.96960  Biso   1.000  C
  C2       1.0000 0.54060  0.45750  0.05490  Biso   1.000  C
  H2       1.0000 0.64010  0.45450  0.09410  Biso   1.000  H
  H3       1.0000 0.52540  0.38060  0.00690  Biso   1.000  H
  H4       1.0000 0.46160  0.46370  0.11720  Biso   1.000  H
  Pr2      1.0000 0.00720  0.60153  0.11346  Biso   1.000  Pr
  P3       1.0000 0.80660  0.41840  0.36180  Biso   1.000  P
  P4       1.0000 0.15760  0.41430  0.39250  Biso   1.000  P
  O8       1.0000 0.82280  0.52790  0.26930  Biso   1.000  O
  O9       1.0000 0.82910  0.28470  0.30260  Biso   1.000  O
  O10      1.0000 0.65840  0.42920  0.43650  Biso   1.000  O
  O11      1.0000 0.28050  0.45520  0.48440  Biso   1.000  O
  O12      1.0000 0.17510  0.27440  0.35680  Biso   1.000  O
  O13      1.0000 0.15460  0.50290  0.27920  Biso   1.000  O
  O14      1.0000 0.95720  0.30490  0.54500  Biso   1.000  O
  H5       1.0000 0.86900  0.30180  0.57870  Biso   1.000  H
  C3       1.0000 0.96780  0.42530  0.46960  Biso   1.000  C
  C4       1.0000 0.95940  0.54250  0.55490  Biso   1.000  C
  H6       1.0000 0.85990  0.54550  0.59410  Biso   1.000  H
  H7       1.0000 0.97460  0.61940  0.50690  Biso   1.000  H
  H8       1.0000 0.03840  0.53630  0.61720  Biso   1.000  H
  Pr3      1.0000 0.50720  0.89847  0.88654  Biso   1.000  Pr
  P5       1.0000 0.30660  0.08160  0.63820  Biso   1.000  P
  P6       1.0000 0.65760  0.08570  0.60750  Biso   1.000  P
  O15      1.0000 0.32280  0.97210  0.73070  Biso   1.000  O
  O16      1.0000 0.32910  0.21530  0.69740  Biso   1.000  O
  O17      1.0000 0.15840  0.07080  0.56350  Biso   1.000  O
  O18      1.0000 0.78050  0.04480  0.51560  Biso   1.000  O
  O19      1.0000 0.67510  0.22560  0.64320  Biso   1.000  O
  O20      1.0000 0.65460  0.99710  0.72080  Biso   1.000  O
  O21      1.0000 0.45720  0.19510  0.45500  Biso   1.000  O
  H9       1.0000 0.36900  0.19820  0.42130  Biso   1.000  H
  C5       1.0000 0.46780  0.07470  0.53040  Biso   1.000  C
  C6       1.0000 0.45940  0.95750  0.44510  Biso   1.000  C
  H10      1.0000 0.35990  0.95450  0.40590  Biso   1.000  H
  H11      1.0000 0.47460  0.88060  0.49310  Biso   1.000  H
  H12      1.0000 0.53840  0.96370  0.38280  Biso   1.000  H
  Pr4      1.0000 0.99280  0.10153  0.38654  Biso   1.000  Pr
  P7       1.0000 0.19340  0.91840  0.13820  Biso   1.000  P
  P8       1.0000 0.84240  0.91430  0.10750  Biso   1.000  P
  O22      1.0000 0.17720  0.02790  0.23070  Biso   1.000  O
  O23      1.0000 0.17090  0.78470  0.19740  Biso   1.000  O
  O24      1.0000 0.34160  0.92920  0.06350  Biso   1.000  O
  O25      1.0000 0.71950  0.95520  0.01560  Biso   1.000  O
  O26      1.0000 0.82490  0.77440  0.14320  Biso   1.000  O
  O27      1.0000 0.84540  0.00290  0.22080  Biso   1.000  O
  O28      1.0000 0.04280  0.80490  0.95500  Biso   1.000  O
  H13      1.0000 0.13100  0.80180  0.92130  Biso   1.000  H
  C7       1.0000 0.03220  0.92530  0.03040  Biso   1.000  C
  C8       1.0000 0.04060  0.04250  0.94510  Biso   1.000  C
  H14      1.0000 0.14010  0.04550  0.90590  Biso   1.000  H
  H15      1.0000 0.02540  0.11940  0.99310  Biso   1.000  H
  H16      1.0000 0.96160  0.03630  0.88280  Biso   1.000  H
