data_image0
_cell_length_a       8.7115
_cell_length_b       10.4316
_cell_length_c       10.8838
_cell_angle_alpha    90
_cell_angle_beta     90
_cell_angle_gamma    90

_symmetry_space_group_name_H-M    "P 1"
_symmetry_int_tables_number       1

loop_
  _symmetry_equiv_pos_as_xyz
  'x, y, z'

loop_
  _atom_site_label
  _atom_site_occupancy
  _atom_site_fract_x
  _atom_site_fract_y
  _atom_site_fract_z
  _atom_site_thermal_displace_type
  _atom_site_B_iso_or_equiv
  _atom_site_type_symbol
  La1      1.0000 0.99213  0.10152  0.11264  Biso   1.000  La
  P1       1.0000 0.84440  0.91670  0.39420  Biso   1.000  P
  P2       1.0000 0.19440  0.91870  0.36069  Biso   1.000  P
  O1       1.0000 0.84720  0.00440  0.28270  Biso   1.000  O
  O2       1.0000 0.82420  0.77590  0.35960  Biso   1.000  O
  O3       1.0000 0.72360  0.95910  0.48590  Biso   1.000  O
  O4       1.0000 0.17210  0.78660  0.29970  Biso   1.000  O
  O5       1.0000 0.17950  0.02880  0.26950  Biso   1.000  O
  O6       1.0000 0.34280  0.93000  0.43450  Biso   1.000  O
  O7       1.0000 0.04570  0.80870  0.54470  Biso   1.000  O
  H1       1.0000 0.13480  0.79690  0.56610  Biso   1.000  H
  C1       1.0000 0.03600  0.92800  0.47060  Biso   1.000  C
  C2       1.0000 0.04520  0.04420  0.55210  Biso   1.000  C
  H2       1.0000 0.14460  0.04800  0.58990  Biso   1.000  H
  H3       1.0000 0.96770  0.03870  0.61470  Biso   1.000  H
  H4       1.0000 0.02890  0.12000  0.50390  Biso   1.000  H
  La2      1.0000 0.50787  0.89848  0.61264  Biso   1.000  La
  P3       1.0000 0.65560  0.08330  0.89420  Biso   1.000  P
  P4       1.0000 0.30560  0.08130  0.86069  Biso   1.000  P
  O8       1.0000 0.65280  0.99560  0.78270  Biso   1.000  O
  O9       1.0000 0.67580  0.22410  0.85960  Biso   1.000  O
  O10      1.0000 0.77640  0.04090  0.98590  Biso   1.000  O
  O11      1.0000 0.32790  0.21340  0.79970  Biso   1.000  O
  O12      1.0000 0.32050  0.97120  0.76950  Biso   1.000  O
  O13      1.0000 0.15720  0.07000  0.93450  Biso   1.000  O
  O14      1.0000 0.45430  0.19130  0.04470  Biso   1.000  O
  H5       1.0000 0.36520  0.20310  0.06610  Biso   1.000  H
  C3       1.0000 0.46400  0.07200  0.97060  Biso   1.000  C
  C4       1.0000 0.45480  0.95580  0.05210  Biso   1.000  C
  H6       1.0000 0.35540  0.95200  0.08990  Biso   1.000  H
  H7       1.0000 0.53230  0.96130  0.11470  Biso   1.000  H
  H8       1.0000 0.47110  0.88000  0.00390  Biso   1.000  H
  La3      1.0000 0.00787  0.60152  0.38736  Biso   1.000  La
  P5       1.0000 0.15560  0.41670  0.10580  Biso   1.000  P
  P6       1.0000 0.80560  0.41870  0.13931  Biso   1.000  P
  O15      1.0000 0.15280  0.50440  0.21730  Biso   1.000  O
  O16      1.0000 0.17580  0.27590  0.14040  Biso   1.000  O
  O17      1.0000 0.27640  0.45910  0.01410  Biso   1.000  O
  O18      1.0000 0.82790  0.28660  0.20030  Biso   1.000  O
  O19      1.0000 0.82050  0.52880  0.23050  Biso   1.000  O
  O20      1.0000 0.65720  0.43000  0.06550  Biso   1.000  O
  O21      1.0000 0.95430  0.30870  0.95530  Biso   1.000  O
  H9       1.0000 0.86520  0.29690  0.93390  Biso   1.000  H
  C5       1.0000 0.96400  0.42800  0.02940  Biso   1.000  C
  C6       1.0000 0.95480  0.54420  0.94790  Biso   1.000  C
  H10      1.0000 0.85540  0.54800  0.91010  Biso   1.000  H
  H11      1.0000 0.03230  0.53870  0.88530  Biso   1.000  H
  H12      1.0000 0.97110  0.62000  0.99610  Biso   1.000  H
  La4      1.0000 0.49213  0.39848  0.88736  Biso   1.000  La
  P7       1.0000 0.34440  0.58330  0.60580  Biso   1.000  P
  P8       1.0000 0.69440  0.58130  0.63931  Biso   1.000  P
  O22      1.0000 0.34720  0.49560  0.71730  Biso   1.000  O
  O23      1.0000 0.32420  0.72410  0.64040  Biso   1.000  O
  O24      1.0000 0.22360  0.54090  0.51410  Biso   1.000  O
  O25      1.0000 0.67210  0.71340  0.70030  Biso   1.000  O
  O26      1.0000 0.67950  0.47120  0.73050  Biso   1.000  O
  O27      1.0000 0.84280  0.57000  0.56550  Biso   1.000  O
  O28      1.0000 0.54570  0.69130  0.45530  Biso   1.000  O
  H13      1.0000 0.63480  0.70310  0.43390  Biso   1.000  H
  C7       1.0000 0.53600  0.57200  0.52940  Biso   1.000  C
  C8       1.0000 0.54520  0.45580  0.44790  Biso   1.000  C
  H14      1.0000 0.64460  0.45200  0.41010  Biso   1.000  H
  H15      1.0000 0.46770  0.46130  0.38530  Biso   1.000  H
  H16      1.0000 0.52890  0.38000  0.49610  Biso   1.000  H
