data_image0
_cell_length_a       8.649
_cell_length_b       10.323
_cell_length_c       10.738
_cell_angle_alpha    90
_cell_angle_beta     90
_cell_angle_gamma    90

_symmetry_space_group_name_H-M    "P 1"
_symmetry_int_tables_number       1

loop_
  _symmetry_equiv_pos_as_xyz
  'x, y, z'

loop_
  _atom_site_label
  _atom_site_occupancy
  _atom_site_fract_x
  _atom_site_fract_y
  _atom_site_fract_z
  _atom_site_thermal_displace_type
  _atom_site_B_iso_or_equiv
  _atom_site_type_symbol
  Nd1      1.0000 0.49291  0.39826  0.61302  Biso   1.000  Nd
  P1       1.0000 0.69350  0.58170  0.86170  Biso   1.000  P
  P2       1.0000 0.34260  0.58470  0.89280  Biso   1.000  P
  O1       1.0000 0.67580  0.47060  0.76950  Biso   1.000  O
  O2       1.0000 0.67120  0.71530  0.80150  Biso   1.000  O
  O3       1.0000 0.84190  0.56990  0.93590  Biso   1.000  O
  O4       1.0000 0.21760  0.54330  0.98520  Biso   1.000  O
  O5       1.0000 0.32580  0.72650  0.85750  Biso   1.000  O
  O6       1.0000 0.34390  0.49420  0.78050  Biso   1.000  O
  O7       1.0000 0.54330  0.69500  0.04580  Biso   1.000  O
  H1       1.0000 0.63150  0.69810  0.07950  Biso   1.000  H
  C1       1.0000 0.53160  0.57470  0.97060  Biso   1.000  C
  C2       1.0000 0.53920  0.45700  0.05660  Biso   1.000  C
  H2       1.0000 0.63870  0.45380  0.09610  Biso   1.000  H
  H3       1.0000 0.52360  0.37950  0.00880  Biso   1.000  H
  H4       1.0000 0.46010  0.46370  0.11900  Biso   1.000  H
  Nd2      1.0000 0.00709  0.60174  0.11302  Biso   1.000  Nd
  P3       1.0000 0.80650  0.41830  0.36170  Biso   1.000  P
  P4       1.0000 0.15740  0.41530  0.39280  Biso   1.000  P
  O8       1.0000 0.82420  0.52940  0.26950  Biso   1.000  O
  O9       1.0000 0.82880  0.28470  0.30150  Biso   1.000  O
  O10      1.0000 0.65810  0.43010  0.43590  Biso   1.000  O
  O11      1.0000 0.28240  0.45670  0.48520  Biso   1.000  O
  O12      1.0000 0.17420  0.27350  0.35750  Biso   1.000  O
  O13      1.0000 0.15610  0.50580  0.28050  Biso   1.000  O
  O14      1.0000 0.95670  0.30500  0.54580  Biso   1.000  O
  H5       1.0000 0.86850  0.30190  0.57950  Biso   1.000  H
  C3       1.0000 0.96840  0.42530  0.47060  Biso   1.000  C
  C4       1.0000 0.96080  0.54300  0.55660  Biso   1.000  C
  H6       1.0000 0.86130  0.54620  0.59610  Biso   1.000  H
  H7       1.0000 0.97640  0.62050  0.50880  Biso   1.000  H
  H8       1.0000 0.03990  0.53630  0.61900  Biso   1.000  H
  Nd3      1.0000 0.50709  0.89826  0.88698  Biso   1.000  Nd
  P5       1.0000 0.30650  0.08170  0.63830  Biso   1.000  P
  P6       1.0000 0.65740  0.08470  0.60720  Biso   1.000  P
  O15      1.0000 0.32420  0.97060  0.73050  Biso   1.000  O
  O16      1.0000 0.32880  0.21530  0.69850  Biso   1.000  O
  O17      1.0000 0.15810  0.06990  0.56410  Biso   1.000  O
  O18      1.0000 0.78240  0.04330  0.51480  Biso   1.000  O
  O19      1.0000 0.67420  0.22650  0.64250  Biso   1.000  O
  O20      1.0000 0.65610  0.99420  0.71950  Biso   1.000  O
  O21      1.0000 0.45670  0.19500  0.45420  Biso   1.000  O
  H9       1.0000 0.36850  0.19810  0.42050  Biso   1.000  H
  C5       1.0000 0.46840  0.07470  0.52940  Biso   1.000  C
  C6       1.0000 0.46080  0.95700  0.44340  Biso   1.000  C
  H10      1.0000 0.36130  0.95380  0.40390  Biso   1.000  H
  H11      1.0000 0.47640  0.87950  0.49120  Biso   1.000  H
  H12      1.0000 0.53990  0.96370  0.38100  Biso   1.000  H
  Nd4      1.0000 0.99291  0.10174  0.38698  Biso   1.000  Nd
  P7       1.0000 0.19350  0.91830  0.13830  Biso   1.000  P
  P8       1.0000 0.84260  0.91530  0.10720  Biso   1.000  P
  O22      1.0000 0.17580  0.02940  0.23050  Biso   1.000  O
  O23      1.0000 0.17120  0.78470  0.19850  Biso   1.000  O
  O24      1.0000 0.34190  0.93010  0.06410  Biso   1.000  O
  O25      1.0000 0.71760  0.95670  0.01480  Biso   1.000  O
  O26      1.0000 0.82580  0.77350  0.14250  Biso   1.000  O
  O27      1.0000 0.84390  0.00580  0.21950  Biso   1.000  O
  O28      1.0000 0.04330  0.80500  0.95420  Biso   1.000  O
  H13      1.0000 0.13150  0.80190  0.92050  Biso   1.000  H
  C7       1.0000 0.03160  0.92530  0.02940  Biso   1.000  C
  C8       1.0000 0.03920  0.04300  0.94340  Biso   1.000  C
  H14      1.0000 0.13870  0.04620  0.90390  Biso   1.000  H
  H15      1.0000 0.02360  0.12050  0.99120  Biso   1.000  H
  H16      1.0000 0.96010  0.03630  0.88100  Biso   1.000  H
