data_image0
_cell_length_a       10.2565
_cell_length_b       8.2892
_cell_length_c       10.4595
_cell_angle_alpha    90
_cell_angle_beta     90
_cell_angle_gamma    90

_symmetry_space_group_name_H-M    "P 1"
_symmetry_int_tables_number       1

loop_
  _symmetry_equiv_pos_as_xyz
  'x, y, z'

loop_
  _atom_site_label
  _atom_site_occupancy
  _atom_site_fract_x
  _atom_site_fract_y
  _atom_site_fract_z
  _atom_site_thermal_displace_type
  _atom_site_B_iso_or_equiv
  _atom_site_type_symbol
  P1       1.0000 0.66730  0.06690  0.37390  Biso   1.000  P
  O1       1.0000 0.77090  0.07490  0.27010  Biso   1.000  O
  O2       1.0000 0.52920  0.06950  0.31770  Biso   1.000  O
  O3       1.0000 0.68850  0.92880  0.46350  Biso   1.000  O
  H1       1.0000 0.00660  0.18320  0.98290  Biso   1.000  H
  H2       1.0000 0.80290  0.15220  0.60530  Biso   1.000  H
  P2       1.0000 0.83270  0.93310  0.87390  Biso   1.000  P
  O4       1.0000 0.72910  0.92510  0.77010  Biso   1.000  O
  O5       1.0000 0.97080  0.93050  0.81770  Biso   1.000  O
  O6       1.0000 0.81150  0.07120  0.96350  Biso   1.000  O
  H3       1.0000 0.49340  0.81680  0.48290  Biso   1.000  H
  H4       1.0000 0.69710  0.84780  0.10530  Biso   1.000  H
  P3       1.0000 0.33270  0.56690  0.62610  Biso   1.000  P
  O7       1.0000 0.22910  0.57490  0.72990  Biso   1.000  O
  O8       1.0000 0.47080  0.56950  0.68230  Biso   1.000  O
  O9       1.0000 0.31150  0.42880  0.53650  Biso   1.000  O
  H5       1.0000 0.99340  0.68320  0.01710  Biso   1.000  H
  H6       1.0000 0.19710  0.65220  0.39470  Biso   1.000  H
  P4       1.0000 0.16730  0.43310  0.12610  Biso   1.000  P
  O10      1.0000 0.27090  0.42510  0.22990  Biso   1.000  O
  O11      1.0000 0.02920  0.43050  0.18230  Biso   1.000  O
  O12      1.0000 0.18850  0.57120  0.03650  Biso   1.000  O
  H7       1.0000 0.50660  0.31680  0.51710  Biso   1.000  H
  H8       1.0000 0.30290  0.34780  0.89470  Biso   1.000  H
  P5       1.0000 0.33270  0.93310  0.62610  Biso   1.000  P
  O13      1.0000 0.22910  0.92510  0.72990  Biso   1.000  O
  O14      1.0000 0.47080  0.93050  0.68230  Biso   1.000  O
  O15      1.0000 0.31150  0.07120  0.53650  Biso   1.000  O
  H9       1.0000 0.99340  0.81680  0.01710  Biso   1.000  H
  H10      1.0000 0.19710  0.84780  0.39470  Biso   1.000  H
  P6       1.0000 0.16730  0.06690  0.12610  Biso   1.000  P
  O16      1.0000 0.27090  0.07490  0.22990  Biso   1.000  O
  O17      1.0000 0.02920  0.06950  0.18230  Biso   1.000  O
  O18      1.0000 0.18850  0.92880  0.03650  Biso   1.000  O
  H11      1.0000 0.50660  0.18320  0.51710  Biso   1.000  H
  H12      1.0000 0.30290  0.15220  0.89470  Biso   1.000  H
  P7       1.0000 0.66730  0.43310  0.37390  Biso   1.000  P
  O19      1.0000 0.77090  0.42510  0.27010  Biso   1.000  O
  O20      1.0000 0.52920  0.43050  0.31770  Biso   1.000  O
  O21      1.0000 0.68850  0.57120  0.46350  Biso   1.000  O
  H13      1.0000 0.00660  0.31680  0.98290  Biso   1.000  H
  H14      1.0000 0.80290  0.34780  0.60530  Biso   1.000  H
  P8       1.0000 0.83270  0.56690  0.87390  Biso   1.000  P
  O22      1.0000 0.72910  0.57490  0.77010  Biso   1.000  O
  O23      1.0000 0.97080  0.56950  0.81770  Biso   1.000  O
  O24      1.0000 0.81150  0.42880  0.96350  Biso   1.000  O
  H15      1.0000 0.49340  0.68320  0.48290  Biso   1.000  H
  H16      1.0000 0.69710  0.65220  0.10530  Biso   1.000  H
  Dy1      1.0000 0.86000  0.25000  0.12022  Biso   1.000  Dy
  O25      1.0000 0.55760  0.25000  0.54610  Biso   1.000  O
  C1       1.0000 0.67890  0.25000  0.46850  Biso   1.000  C
  C2       1.0000 0.80000  0.25000  0.55600  Biso   1.000  C
  H17      1.0000 0.87670  0.25000  0.50360  Biso   1.000  H
  Dy2      1.0000 0.64000  0.75000  0.62022  Biso   1.000  Dy
  O26      1.0000 0.94240  0.75000  0.04610  Biso   1.000  O
  C3       1.0000 0.82110  0.75000  0.96850  Biso   1.000  C
  C4       1.0000 0.70000  0.75000  0.05600  Biso   1.000  C
  H18      1.0000 0.62330  0.75000  0.00360  Biso   1.000  H
  Dy3      1.0000 0.14000  0.75000  0.87978  Biso   1.000  Dy
  O27      1.0000 0.44240  0.75000  0.45390  Biso   1.000  O
  C5       1.0000 0.32110  0.75000  0.53150  Biso   1.000  C
  C6       1.0000 0.20000  0.75000  0.44400  Biso   1.000  C
  H19      1.0000 0.12330  0.75000  0.49640  Biso   1.000  H
  Dy4      1.0000 0.36000  0.25000  0.37978  Biso   1.000  Dy
  O28      1.0000 0.05760  0.25000  0.95390  Biso   1.000  O
  C7       1.0000 0.17890  0.25000  0.03150  Biso   1.000  C
  C8       1.0000 0.30000  0.25000  0.94400  Biso   1.000  C
  H20      1.0000 0.37670  0.25000  0.99640  Biso   1.000  H
