data_image0
_cell_length_a       10.3513
_cell_length_b       8.3264
_cell_length_c       10.5584
_cell_angle_alpha    90
_cell_angle_beta     90
_cell_angle_gamma    90

_symmetry_space_group_name_H-M    "P 1"
_symmetry_int_tables_number       1

loop_
  _symmetry_equiv_pos_as_xyz
  'x, y, z'

loop_
  _atom_site_label
  _atom_site_occupancy
  _atom_site_fract_x
  _atom_site_fract_y
  _atom_site_fract_z
  _atom_site_thermal_displace_type
  _atom_site_B_iso_or_equiv
  _atom_site_type_symbol
  P1       1.0000 0.16750  0.43280  0.37320  Biso   1.000  P
  O1       1.0000 0.27090  0.42600  0.27090  Biso   1.000  O
  O2       1.0000 0.03140  0.43010  0.31810  Biso   1.000  O
  O3       1.0000 0.18890  0.56950  0.46270  Biso   1.000  O
  H1       1.0000 0.00690  0.31910  0.51420  Biso   1.000  H
  H2       1.0000 0.29920  0.15610  0.60450  Biso   1.000  H
  P2       1.0000 0.33250  0.56720  0.87320  Biso   1.000  P
  O4       1.0000 0.22910  0.57400  0.77090  Biso   1.000  O
  O5       1.0000 0.46860  0.56990  0.81810  Biso   1.000  O
  O6       1.0000 0.31110  0.43050  0.96270  Biso   1.000  O
  H3       1.0000 0.49310  0.68090  0.01420  Biso   1.000  H
  H4       1.0000 0.20080  0.84390  0.10450  Biso   1.000  H
  P3       1.0000 0.83250  0.93280  0.62680  Biso   1.000  P
  O7       1.0000 0.72910  0.92600  0.72910  Biso   1.000  O
  O8       1.0000 0.96860  0.93010  0.68190  Biso   1.000  O
  O9       1.0000 0.81110  0.06950  0.53730  Biso   1.000  O
  H5       1.0000 0.99310  0.81910  0.48580  Biso   1.000  H
  H6       1.0000 0.70080  0.65610  0.39550  Biso   1.000  H
  P4       1.0000 0.66750  0.06720  0.12680  Biso   1.000  P
  O10      1.0000 0.77090  0.07400  0.22910  Biso   1.000  O
  O11      1.0000 0.53140  0.06990  0.18190  Biso   1.000  O
  O12      1.0000 0.68890  0.93050  0.03730  Biso   1.000  O
  H7       1.0000 0.50690  0.18090  0.98580  Biso   1.000  H
  H8       1.0000 0.79920  0.34390  0.89550  Biso   1.000  H
  P5       1.0000 0.83250  0.56720  0.62680  Biso   1.000  P
  O13      1.0000 0.72910  0.57400  0.72910  Biso   1.000  O
  O14      1.0000 0.96860  0.56990  0.68190  Biso   1.000  O
  O15      1.0000 0.81110  0.43050  0.53730  Biso   1.000  O
  H9       1.0000 0.99310  0.68090  0.48580  Biso   1.000  H
  H10      1.0000 0.70080  0.84390  0.39550  Biso   1.000  H
  P6       1.0000 0.66750  0.43280  0.12680  Biso   1.000  P
  O16      1.0000 0.77090  0.42600  0.22910  Biso   1.000  O
  O17      1.0000 0.53140  0.43010  0.18190  Biso   1.000  O
  O18      1.0000 0.68890  0.56950  0.03730  Biso   1.000  O
  H11      1.0000 0.50690  0.31910  0.98580  Biso   1.000  H
  H12      1.0000 0.79920  0.15610  0.89550  Biso   1.000  H
  P7       1.0000 0.16750  0.06720  0.37320  Biso   1.000  P
  O19      1.0000 0.27090  0.07400  0.27090  Biso   1.000  O
  O20      1.0000 0.03140  0.06990  0.31810  Biso   1.000  O
  O21      1.0000 0.18890  0.93050  0.46270  Biso   1.000  O
  H13      1.0000 0.00690  0.18090  0.51420  Biso   1.000  H
  H14      1.0000 0.29920  0.34390  0.60450  Biso   1.000  H
  P8       1.0000 0.33250  0.93280  0.87320  Biso   1.000  P
  O22      1.0000 0.22910  0.92600  0.77090  Biso   1.000  O
  O23      1.0000 0.46860  0.93010  0.81810  Biso   1.000  O
  O24      1.0000 0.31110  0.06950  0.96270  Biso   1.000  O
  H15      1.0000 0.49310  0.81910  0.01420  Biso   1.000  H
  H16      1.0000 0.20080  0.65610  0.10450  Biso   1.000  H
  Eu1      1.0000 0.36041  0.25000  0.12058  Biso   1.000  Eu
  O25      1.0000 0.05930  0.25000  0.54370  Biso   1.000  O
  C1       1.0000 0.17800  0.25000  0.46680  Biso   1.000  C
  C2       1.0000 0.29900  0.25000  0.55210  Biso   1.000  C
  H17      1.0000 0.37460  0.25000  0.49970  Biso   1.000  H
  Eu2      1.0000 0.13959  0.75000  0.62058  Biso   1.000  Eu
  O26      1.0000 0.44070  0.75000  0.04370  Biso   1.000  O
  C3       1.0000 0.32200  0.75000  0.96680  Biso   1.000  C
  C4       1.0000 0.20100  0.75000  0.05210  Biso   1.000  C
  H18      1.0000 0.12540  0.75000  0.99970  Biso   1.000  H
  Eu3      1.0000 0.63959  0.75000  0.87942  Biso   1.000  Eu
  O27      1.0000 0.94070  0.75000  0.45630  Biso   1.000  O
  C5       1.0000 0.82200  0.75000  0.53320  Biso   1.000  C
  C6       1.0000 0.70100  0.75000  0.44790  Biso   1.000  C
  H19      1.0000 0.62540  0.75000  0.50030  Biso   1.000  H
  Eu4      1.0000 0.86041  0.25000  0.37942  Biso   1.000  Eu
  O28      1.0000 0.55930  0.25000  0.95630  Biso   1.000  O
  C7       1.0000 0.67800  0.25000  0.03320  Biso   1.000  C
  C8       1.0000 0.79900  0.25000  0.94790  Biso   1.000  C
  H20      1.0000 0.87460  0.25000  0.00030  Biso   1.000  H
