data_image0
_cell_length_a       10.297
_cell_length_b       8.3034
_cell_length_c       10.5
_cell_angle_alpha    90
_cell_angle_beta     90
_cell_angle_gamma    90

_symmetry_space_group_name_H-M    "P 1"
_symmetry_int_tables_number       1

loop_
  _symmetry_equiv_pos_as_xyz
  'x, y, z'

loop_
  _atom_site_label
  _atom_site_occupancy
  _atom_site_fract_x
  _atom_site_fract_y
  _atom_site_fract_z
  _atom_site_thermal_displace_type
  _atom_site_B_iso_or_equiv
  _atom_site_type_symbol
  P1       1.0000 0.66720  0.06730  0.37330  Biso   1.000  P
  O1       1.0000 0.77040  0.07400  0.27030  Biso   1.000  O
  O2       1.0000 0.52950  0.06930  0.31780  Biso   1.000  O
  O3       1.0000 0.68830  0.92940  0.46330  Biso   1.000  O
  H1       1.0000 0.00340  0.17350  0.96180  Biso   1.000  H
  H2       1.0000 0.79820  0.15640  0.60750  Biso   1.000  H
  P2       1.0000 0.83280  0.93270  0.87330  Biso   1.000  P
  O4       1.0000 0.72960  0.92600  0.77030  Biso   1.000  O
  O5       1.0000 0.97050  0.93070  0.81780  Biso   1.000  O
  O6       1.0000 0.81170  0.07060  0.96330  Biso   1.000  O
  H3       1.0000 0.49660  0.82650  0.46180  Biso   1.000  H
  H4       1.0000 0.70180  0.84360  0.10750  Biso   1.000  H
  P3       1.0000 0.33280  0.56730  0.62670  Biso   1.000  P
  O7       1.0000 0.22960  0.57400  0.72970  Biso   1.000  O
  O8       1.0000 0.47050  0.56930  0.68220  Biso   1.000  O
  O9       1.0000 0.31170  0.42940  0.53670  Biso   1.000  O
  H5       1.0000 0.99660  0.67350  0.03820  Biso   1.000  H
  H6       1.0000 0.20180  0.65640  0.39250  Biso   1.000  H
  P4       1.0000 0.16720  0.43270  0.12670  Biso   1.000  P
  O10      1.0000 0.27040  0.42600  0.22970  Biso   1.000  O
  O11      1.0000 0.02950  0.43070  0.18220  Biso   1.000  O
  O12      1.0000 0.18830  0.57060  0.03670  Biso   1.000  O
  H7       1.0000 0.50340  0.32650  0.53820  Biso   1.000  H
  H8       1.0000 0.29820  0.34360  0.89250  Biso   1.000  H
  P5       1.0000 0.33280  0.93270  0.62670  Biso   1.000  P
  O13      1.0000 0.22960  0.92600  0.72970  Biso   1.000  O
  O14      1.0000 0.47050  0.93070  0.68220  Biso   1.000  O
  O15      1.0000 0.31170  0.07060  0.53670  Biso   1.000  O
  H9       1.0000 0.99660  0.82650  0.03820  Biso   1.000  H
  H10      1.0000 0.20180  0.84360  0.39250  Biso   1.000  H
  P6       1.0000 0.16720  0.06730  0.12670  Biso   1.000  P
  O16      1.0000 0.27040  0.07400  0.22970  Biso   1.000  O
  O17      1.0000 0.02950  0.06930  0.18220  Biso   1.000  O
  O18      1.0000 0.18830  0.92940  0.03670  Biso   1.000  O
  H11      1.0000 0.50340  0.17350  0.53820  Biso   1.000  H
  H12      1.0000 0.29820  0.15640  0.89250  Biso   1.000  H
  P7       1.0000 0.66720  0.43270  0.37330  Biso   1.000  P
  O19      1.0000 0.77040  0.42600  0.27030  Biso   1.000  O
  O20      1.0000 0.52950  0.43070  0.31780  Biso   1.000  O
  O21      1.0000 0.68830  0.57060  0.46330  Biso   1.000  O
  H13      1.0000 0.00340  0.32650  0.96180  Biso   1.000  H
  H14      1.0000 0.79820  0.34360  0.60750  Biso   1.000  H
  P8       1.0000 0.83280  0.56730  0.87330  Biso   1.000  P
  O22      1.0000 0.72960  0.57400  0.77030  Biso   1.000  O
  O23      1.0000 0.97050  0.56930  0.81780  Biso   1.000  O
  O24      1.0000 0.81170  0.42940  0.96330  Biso   1.000  O
  H15      1.0000 0.49660  0.67350  0.46180  Biso   1.000  H
  H16      1.0000 0.70180  0.65640  0.10750  Biso   1.000  H
  Tb1      1.0000 0.86000  0.25000  0.12043  Biso   1.000  Tb
  O25      1.0000 0.55780  0.25000  0.54490  Biso   1.000  O
  C1       1.0000 0.67730  0.25000  0.46800  Biso   1.000  C
  C2       1.0000 0.79970  0.25000  0.55400  Biso   1.000  C
  H17      1.0000 0.87570  0.25000  0.50140  Biso   1.000  H
  Tb2      1.0000 0.64000  0.75000  0.62043  Biso   1.000  Tb
  O26      1.0000 0.94220  0.75000  0.04490  Biso   1.000  O
  C3       1.0000 0.82270  0.75000  0.96800  Biso   1.000  C
  C4       1.0000 0.70030  0.75000  0.05400  Biso   1.000  C
  H18      1.0000 0.62430  0.75000  0.00140  Biso   1.000  H
  Tb3      1.0000 0.14000  0.75000  0.87957  Biso   1.000  Tb
  O27      1.0000 0.44220  0.75000  0.45510  Biso   1.000  O
  C5       1.0000 0.32270  0.75000  0.53200  Biso   1.000  C
  C6       1.0000 0.20030  0.75000  0.44600  Biso   1.000  C
  H19      1.0000 0.12430  0.75000  0.49860  Biso   1.000  H
  Tb4      1.0000 0.36000  0.25000  0.37957  Biso   1.000  Tb
  O28      1.0000 0.05780  0.25000  0.95510  Biso   1.000  O
  C7       1.0000 0.17730  0.25000  0.03200  Biso   1.000  C
  C8       1.0000 0.29970  0.25000  0.94600  Biso   1.000  C
  H20      1.0000 0.37570  0.25000  0.99860  Biso   1.000  H
