data_image0
_cell_length_a       10.324
_cell_length_b       8.313
_cell_length_c       10.534
_cell_angle_alpha    90
_cell_angle_beta     90
_cell_angle_gamma    90

_symmetry_space_group_name_H-M    "P 1"
_symmetry_int_tables_number       1

loop_
  _symmetry_equiv_pos_as_xyz
  'x, y, z'

loop_
  _atom_site_label
  _atom_site_occupancy
  _atom_site_fract_x
  _atom_site_fract_y
  _atom_site_fract_z
  _atom_site_thermal_displace_type
  _atom_site_B_iso_or_equiv
  _atom_site_type_symbol
  P1       1.0000 0.83240  0.06720  0.37360  Biso   1.000  P
  O1       1.0000 0.72970  0.07390  0.27130  Biso   1.000  O
  O2       1.0000 0.81160  0.93010  0.46270  Biso   1.000  O
  O3       1.0000 0.96900  0.06920  0.31780  Biso   1.000  O
  H1       1.0000 0.49200  0.31800  0.98490  Biso   1.000  H
  H2       1.0000 0.70090  0.34230  0.60700  Biso   1.000  H
  P2       1.0000 0.66760  0.93280  0.87360  Biso   1.000  P
  O4       1.0000 0.77030  0.92610  0.77130  Biso   1.000  O
  O5       1.0000 0.68840  0.06990  0.96270  Biso   1.000  O
  O6       1.0000 0.53100  0.93080  0.81780  Biso   1.000  O
  H3       1.0000 0.00800  0.68200  0.48490  Biso   1.000  H
  H4       1.0000 0.79910  0.65770  0.10700  Biso   1.000  H
  P3       1.0000 0.16760  0.56720  0.62640  Biso   1.000  P
  O7       1.0000 0.27030  0.57390  0.72870  Biso   1.000  O
  O8       1.0000 0.18840  0.43010  0.53730  Biso   1.000  O
  O9       1.0000 0.03100  0.56920  0.68220  Biso   1.000  O
  H5       1.0000 0.50800  0.81800  0.01510  Biso   1.000  H
  H6       1.0000 0.29910  0.84230  0.39300  Biso   1.000  H
  P4       1.0000 0.33240  0.43280  0.12640  Biso   1.000  P
  O10      1.0000 0.22970  0.42610  0.22870  Biso   1.000  O
  O11      1.0000 0.31160  0.56990  0.03730  Biso   1.000  O
  O12      1.0000 0.46900  0.43080  0.18220  Biso   1.000  O
  H7       1.0000 0.99200  0.18200  0.51510  Biso   1.000  H
  H8       1.0000 0.20090  0.15770  0.89300  Biso   1.000  H
  P5       1.0000 0.16760  0.93280  0.62640  Biso   1.000  P
  O13      1.0000 0.27030  0.92610  0.72870  Biso   1.000  O
  O14      1.0000 0.18840  0.06990  0.53730  Biso   1.000  O
  O15      1.0000 0.03100  0.93080  0.68220  Biso   1.000  O
  H9       1.0000 0.50800  0.68200  0.01510  Biso   1.000  H
  H10      1.0000 0.29910  0.65770  0.39300  Biso   1.000  H
  P6       1.0000 0.33240  0.06720  0.12640  Biso   1.000  P
  O16      1.0000 0.22970  0.07390  0.22870  Biso   1.000  O
  O17      1.0000 0.31160  0.93010  0.03730  Biso   1.000  O
  O18      1.0000 0.46900  0.06920  0.18220  Biso   1.000  O
  H11      1.0000 0.99200  0.31800  0.51510  Biso   1.000  H
  H12      1.0000 0.20090  0.34230  0.89300  Biso   1.000  H
  P7       1.0000 0.83240  0.43280  0.37360  Biso   1.000  P
  O19      1.0000 0.72970  0.42610  0.27130  Biso   1.000  O
  O20      1.0000 0.81160  0.56990  0.46270  Biso   1.000  O
  O21      1.0000 0.96900  0.43080  0.31780  Biso   1.000  O
  H13      1.0000 0.49200  0.18200  0.98490  Biso   1.000  H
  H14      1.0000 0.70090  0.15770  0.60700  Biso   1.000  H
  P8       1.0000 0.66760  0.56720  0.87360  Biso   1.000  P
  O22      1.0000 0.77030  0.57390  0.77130  Biso   1.000  O
  O23      1.0000 0.68840  0.43010  0.96270  Biso   1.000  O
  O24      1.0000 0.53100  0.56920  0.81780  Biso   1.000  O
  H15      1.0000 0.00800  0.81800  0.48490  Biso   1.000  H
  H16      1.0000 0.79910  0.84230  0.10700  Biso   1.000  H
  Gd1      1.0000 0.63974  0.25000  0.12052  Biso   1.000  Gd
  O25      1.0000 0.94220  0.25000  0.54360  Biso   1.000  O
  C1       1.0000 0.82480  0.25000  0.47010  Biso   1.000  C
  C2       1.0000 0.70100  0.25000  0.55200  Biso   1.000  C
  H17      1.0000 0.62710  0.25000  0.49750  Biso   1.000  H
  Gd2      1.0000 0.86026  0.75000  0.62052  Biso   1.000  Gd
  O26      1.0000 0.55780  0.75000  0.04360  Biso   1.000  O
  C3       1.0000 0.67520  0.75000  0.97010  Biso   1.000  C
  C4       1.0000 0.79900  0.75000  0.05200  Biso   1.000  C
  H18      1.0000 0.87290  0.75000  0.99750  Biso   1.000  H
  Gd3      1.0000 0.36026  0.75000  0.87948  Biso   1.000  Gd
  O27      1.0000 0.05780  0.75000  0.45640  Biso   1.000  O
  C5       1.0000 0.17520  0.75000  0.52990  Biso   1.000  C
  C6       1.0000 0.29900  0.75000  0.44800  Biso   1.000  C
  H19      1.0000 0.37290  0.75000  0.50250  Biso   1.000  H
  Gd4      1.0000 0.13974  0.25000  0.37948  Biso   1.000  Gd
  O28      1.0000 0.44220  0.25000  0.95640  Biso   1.000  O
  C7       1.0000 0.32480  0.25000  0.02990  Biso   1.000  C
  C8       1.0000 0.20100  0.25000  0.94800  Biso   1.000  C
  H20      1.0000 0.12710  0.25000  0.00250  Biso   1.000  H
