data_image0
_cell_length_a       9.2137
_cell_length_b       15.2014
_cell_length_c       12.0457
_cell_angle_alpha    90
_cell_angle_beta     101.893
_cell_angle_gamma    90

_symmetry_space_group_name_H-M    "P 1"
_symmetry_int_tables_number       1

loop_
  _symmetry_equiv_pos_as_xyz
  'x, y, z'

loop_
  _atom_site_label
  _atom_site_occupancy
  _atom_site_fract_x
  _atom_site_fract_y
  _atom_site_fract_z
  _atom_site_thermal_displace_type
  _atom_site_B_iso_or_equiv
  _atom_site_type_symbol
  P1       1.0000 0.89450  0.10730  0.89080  Biso   1.000  P
  P2       1.0000 0.44880  0.00300  0.81670  Biso   1.000  P
  O1       1.0000 0.51950  0.08290  0.77470  Biso   1.000  O
  O2       1.0000 0.82430  0.10050  0.76430  Biso   1.000  O
  O3       1.0000 0.60010  0.24320  0.69060  Biso   1.000  O
  O4       1.0000 0.66750  0.99260  0.59780  Biso   1.000  O
  O5       1.0000 0.73830  0.16930  0.54360  Biso   1.000  O
  O6       1.0000 0.44410  0.10460  0.53470  Biso   1.000  O
  O7       1.0000 0.81530  0.05210  0.96340  Biso   1.000  O
  O8       1.0000 0.31830  0.03180  0.86700  Biso   1.000  O
  O9       1.0000 0.55780  0.94680  0.89810  Biso   1.000  O
  O10      1.0000 0.05400  0.08490  0.89960  Biso   1.000  O
  O11      1.0000 0.79360  0.30310  0.48340  Biso   1.000  O
  O12      1.0000 0.65710  0.37860  0.63370  Biso   1.000  O
  O13      1.0000 0.88280  0.20410  0.93190  Biso   1.000  O
  H1       1.0000 0.91970  0.23750  0.89200  Biso   1.000  H
  O14      1.0000 0.38300  0.94600  0.71000  Biso   1.000  O
  H2       1.0000 0.34060  0.90300  0.72950  Biso   1.000  H
  C1       1.0000 0.56480  0.96760  0.51830  Biso   1.000  C
  C2       1.0000 0.73860  0.25200  0.54480  Biso   1.000  C
  C3       1.0000 0.65780  0.29570  0.63110  Biso   1.000  C
  Fe1      1.0000 0.63476  0.11255  0.66452  Biso   1.000  Fe
  Fe2      1.0000 0.75220  0.93807  0.99795  Biso   1.000  Fe
  P3       1.0000 0.60550  0.60730  0.60920  Biso   1.000  P
  P4       1.0000 0.05120  0.50300  0.68330  Biso   1.000  P
  O15      1.0000 0.98050  0.58290  0.72530  Biso   1.000  O
  O16      1.0000 0.67570  0.60050  0.73570  Biso   1.000  O
  O17      1.0000 0.89990  0.74320  0.80940  Biso   1.000  O
  O18      1.0000 0.83250  0.49260  0.90220  Biso   1.000  O
  O19      1.0000 0.76170  0.66930  0.95640  Biso   1.000  O
  O20      1.0000 0.05590  0.60460  0.96530  Biso   1.000  O
  O21      1.0000 0.68470  0.55210  0.53660  Biso   1.000  O
  O22      1.0000 0.18170  0.53180  0.63300  Biso   1.000  O
  O23      1.0000 0.94220  0.44680  0.60190  Biso   1.000  O
  O24      1.0000 0.44600  0.58490  0.60040  Biso   1.000  O
  O25      1.0000 0.70640  0.80310  0.01660  Biso   1.000  O
  O26      1.0000 0.84290  0.87860  0.86630  Biso   1.000  O
  O27      1.0000 0.61720  0.70410  0.56810  Biso   1.000  O
  H3       1.0000 0.58030  0.73750  0.60800  Biso   1.000  H
  O28      1.0000 0.11700  0.44600  0.79000  Biso   1.000  O
  H4       1.0000 0.15940  0.40300  0.77050  Biso   1.000  H
  C4       1.0000 0.93520  0.46760  0.98170  Biso   1.000  C
  C5       1.0000 0.76140  0.75200  0.95520  Biso   1.000  C
  C6       1.0000 0.84220  0.79570  0.86890  Biso   1.000  C
  Fe3      1.0000 0.86524  0.61255  0.83548  Biso   1.000  Fe
  Fe4      1.0000 0.74780  0.43807  0.50205  Biso   1.000  Fe
  P5       1.0000 0.10550  0.89270  0.10920  Biso   1.000  P
  P6       1.0000 0.55120  0.99700  0.18330  Biso   1.000  P
  O29      1.0000 0.48050  0.91710  0.22530  Biso   1.000  O
  O30      1.0000 0.17570  0.89950  0.23570  Biso   1.000  O
  O31      1.0000 0.39990  0.75680  0.30940  Biso   1.000  O
  O32      1.0000 0.33250  0.00740  0.40220  Biso   1.000  O
  O33      1.0000 0.26170  0.83070  0.45640  Biso   1.000  O
  O34      1.0000 0.55590  0.89540  0.46530  Biso   1.000  O
  O35      1.0000 0.18470  0.94790  0.03660  Biso   1.000  O
  O36      1.0000 0.68170  0.96820  0.13300  Biso   1.000  O
  O37      1.0000 0.44220  0.05320  0.10190  Biso   1.000  O
  O38      1.0000 0.94600  0.91510  0.10040  Biso   1.000  O
  O39      1.0000 0.20640  0.69690  0.51660  Biso   1.000  O
  O40      1.0000 0.34290  0.62140  0.36630  Biso   1.000  O
  O41      1.0000 0.11720  0.79590  0.06810  Biso   1.000  O
  H5       1.0000 0.08030  0.76250  0.10800  Biso   1.000  H
  O42      1.0000 0.61700  0.05400  0.29000  Biso   1.000  O
  H6       1.0000 0.65940  0.09700  0.27050  Biso   1.000  H
  C7       1.0000 0.43520  0.03240  0.48170  Biso   1.000  C
  C8       1.0000 0.26140  0.74800  0.45520  Biso   1.000  C
  C9       1.0000 0.34220  0.70430  0.36890  Biso   1.000  C
  Fe5      1.0000 0.36524  0.88745  0.33548  Biso   1.000  Fe
  Fe6      1.0000 0.24780  0.06193  0.00205  Biso   1.000  Fe
  P7       1.0000 0.39450  0.39270  0.39080  Biso   1.000  P
  P8       1.0000 0.94880  0.49700  0.31670  Biso   1.000  P
  O43      1.0000 0.01950  0.41710  0.27470  Biso   1.000  O
  O44      1.0000 0.32430  0.39950  0.26430  Biso   1.000  O
  O45      1.0000 0.10010  0.25680  0.19060  Biso   1.000  O
  O46      1.0000 0.16750  0.50740  0.09780  Biso   1.000  O
  O47      1.0000 0.23830  0.33070  0.04360  Biso   1.000  O
  O48      1.0000 0.94410  0.39540  0.03470  Biso   1.000  O
  O49      1.0000 0.31530  0.44790  0.46340  Biso   1.000  O
  O50      1.0000 0.81830  0.46820  0.36700  Biso   1.000  O
  O51      1.0000 0.05780  0.55320  0.39810  Biso   1.000  O
  O52      1.0000 0.55400  0.41510  0.39960  Biso   1.000  O
  O53      1.0000 0.29360  0.19690  0.98340  Biso   1.000  O
  O54      1.0000 0.15710  0.12140  0.13370  Biso   1.000  O
  O55      1.0000 0.38280  0.29590  0.43190  Biso   1.000  O
  H7       1.0000 0.41970  0.26250  0.39200  Biso   1.000  H
  O56      1.0000 0.88300  0.55400  0.21000  Biso   1.000  O
  H8       1.0000 0.84060  0.59700  0.22950  Biso   1.000  H
  C10      1.0000 0.06480  0.53240  0.01830  Biso   1.000  C
  C11      1.0000 0.23860  0.24800  0.04480  Biso   1.000  C
  C12      1.0000 0.15780  0.20430  0.13110  Biso   1.000  C
  Fe7      1.0000 0.13476  0.38745  0.16452  Biso   1.000  Fe
  Fe8      1.0000 0.25220  0.56193  0.49795  Biso   1.000  Fe
