data_image0
_cell_length_a       9.2664
_cell_length_b       15.2043
_cell_length_c       11.984
_cell_angle_alpha    90
_cell_angle_beta     102.167
_cell_angle_gamma    90

_symmetry_space_group_name_H-M    "P 1"
_symmetry_int_tables_number       1

loop_
  _symmetry_equiv_pos_as_xyz
  'x, y, z'

loop_
  _atom_site_label
  _atom_site_occupancy
  _atom_site_fract_x
  _atom_site_fract_y
  _atom_site_fract_z
  _atom_site_thermal_displace_type
  _atom_site_B_iso_or_equiv
  _atom_site_type_symbol
  P1       1.0000 0.89450  0.10800  0.89040  Biso   1.000  P
  P2       1.0000 0.44920  0.00270  0.81630  Biso   1.000  P
  O1       1.0000 0.51840  0.08380  0.77350  Biso   1.000  O
  O2       1.0000 0.82090  0.10240  0.76450  Biso   1.000  O
  O3       1.0000 0.59960  0.24540  0.69030  Biso   1.000  O
  O4       1.0000 0.66630  0.99350  0.59830  Biso   1.000  O
  O5       1.0000 0.73810  0.17050  0.54420  Biso   1.000  O
  O6       1.0000 0.44380  0.10480  0.53380  Biso   1.000  O
  O7       1.0000 0.81940  0.05230  0.96480  Biso   1.000  O
  O8       1.0000 0.31600  0.03080  0.86320  Biso   1.000  O
  O9       1.0000 0.55650  0.94800  0.90110  Biso   1.000  O
  O10      1.0000 0.05470  0.08670  0.89830  Biso   1.000  O
  O11      1.0000 0.79500  0.30340  0.48250  Biso   1.000  O
  O12      1.0000 0.65900  0.37820  0.63320  Biso   1.000  O
  O13      1.0000 0.88610  0.20380  0.93410  Biso   1.000  O
  H1       1.0000 0.92250  0.23750  0.89420  Biso   1.000  H
  O14      1.0000 0.38800  0.94520  0.70800  Biso   1.000  O
  H2       1.0000 0.34570  0.90190  0.72650  Biso   1.000  H
  C1       1.0000 0.56330  0.96890  0.51880  Biso   1.000  C
  C2       1.0000 0.73820  0.25380  0.54440  Biso   1.000  C
  C3       1.0000 0.65910  0.29670  0.63090  Biso   1.000  C
  Fe1      1.0000 0.63200  0.11428  0.66520  Biso   1.000  Fe
  Fe2      1.0000 0.75200  0.93836  0.99980  Biso   1.000  Fe
  P3       1.0000 0.60550  0.60800  0.60960  Biso   1.000  P
  P4       1.0000 0.05080  0.50270  0.68370  Biso   1.000  P
  O15      1.0000 0.98160  0.58380  0.72650  Biso   1.000  O
  O16      1.0000 0.67910  0.60240  0.73550  Biso   1.000  O
  O17      1.0000 0.90040  0.74540  0.80970  Biso   1.000  O
  O18      1.0000 0.83370  0.49350  0.90170  Biso   1.000  O
  O19      1.0000 0.76190  0.67050  0.95580  Biso   1.000  O
  O20      1.0000 0.05620  0.60480  0.96620  Biso   1.000  O
  O21      1.0000 0.68060  0.55230  0.53520  Biso   1.000  O
  O22      1.0000 0.18400  0.53080  0.63680  Biso   1.000  O
  O23      1.0000 0.94350  0.44800  0.59890  Biso   1.000  O
  O24      1.0000 0.44530  0.58670  0.60170  Biso   1.000  O
  O25      1.0000 0.70500  0.80340  0.01750  Biso   1.000  O
  O26      1.0000 0.84100  0.87820  0.86680  Biso   1.000  O
  O27      1.0000 0.61390  0.70380  0.56590  Biso   1.000  O
  H3       1.0000 0.57750  0.73750  0.60580  Biso   1.000  H
  O28      1.0000 0.11200  0.44520  0.79200  Biso   1.000  O
  H4       1.0000 0.15430  0.40190  0.77350  Biso   1.000  H
  C4       1.0000 0.93670  0.46890  0.98120  Biso   1.000  C
  C5       1.0000 0.76180  0.75380  0.95560  Biso   1.000  C
  C6       1.0000 0.84090  0.79670  0.86910  Biso   1.000  C
  Fe3      1.0000 0.86800  0.61428  0.83480  Biso   1.000  Fe
  Fe4      1.0000 0.74800  0.43836  0.50020  Biso   1.000  Fe
  P5       1.0000 0.10550  0.89200  0.10960  Biso   1.000  P
  P6       1.0000 0.55080  0.99730  0.18370  Biso   1.000  P
  O29      1.0000 0.48160  0.91620  0.22650  Biso   1.000  O
  O30      1.0000 0.17910  0.89760  0.23550  Biso   1.000  O
  O31      1.0000 0.40040  0.75460  0.30970  Biso   1.000  O
  O32      1.0000 0.33370  0.00650  0.40170  Biso   1.000  O
  O33      1.0000 0.26190  0.82950  0.45580  Biso   1.000  O
  O34      1.0000 0.55620  0.89520  0.46620  Biso   1.000  O
  O35      1.0000 0.18060  0.94770  0.03520  Biso   1.000  O
  O36      1.0000 0.68400  0.96920  0.13680  Biso   1.000  O
  O37      1.0000 0.44350  0.05200  0.09890  Biso   1.000  O
  O38      1.0000 0.94530  0.91330  0.10170  Biso   1.000  O
  O39      1.0000 0.20500  0.69660  0.51750  Biso   1.000  O
  O40      1.0000 0.34100  0.62180  0.36680  Biso   1.000  O
  O41      1.0000 0.11390  0.79620  0.06590  Biso   1.000  O
  H5       1.0000 0.07750  0.76250  0.10580  Biso   1.000  H
  O42      1.0000 0.61200  0.05480  0.29200  Biso   1.000  O
  H6       1.0000 0.65430  0.09810  0.27350  Biso   1.000  H
  C7       1.0000 0.43670  0.03110  0.48120  Biso   1.000  C
  C8       1.0000 0.26180  0.74620  0.45560  Biso   1.000  C
  C9       1.0000 0.34090  0.70330  0.36910  Biso   1.000  C
  Fe5      1.0000 0.36800  0.88572  0.33480  Biso   1.000  Fe
  Fe6      1.0000 0.24800  0.06164  0.00020  Biso   1.000  Fe
  P7       1.0000 0.39450  0.39200  0.39040  Biso   1.000  P
  P8       1.0000 0.94920  0.49730  0.31630  Biso   1.000  P
  O43      1.0000 0.01840  0.41620  0.27350  Biso   1.000  O
  O44      1.0000 0.32090  0.39760  0.26450  Biso   1.000  O
  O45      1.0000 0.09960  0.25460  0.19030  Biso   1.000  O
  O46      1.0000 0.16630  0.50650  0.09830  Biso   1.000  O
  O47      1.0000 0.23810  0.32950  0.04420  Biso   1.000  O
  O48      1.0000 0.94380  0.39520  0.03380  Biso   1.000  O
  O49      1.0000 0.31940  0.44770  0.46480  Biso   1.000  O
  O50      1.0000 0.81600  0.46920  0.36320  Biso   1.000  O
  O51      1.0000 0.05650  0.55200  0.40110  Biso   1.000  O
  O52      1.0000 0.55470  0.41330  0.39830  Biso   1.000  O
  O53      1.0000 0.29500  0.19660  0.98250  Biso   1.000  O
  O54      1.0000 0.15900  0.12180  0.13320  Biso   1.000  O
  O55      1.0000 0.38610  0.29620  0.43410  Biso   1.000  O
  H7       1.0000 0.42250  0.26250  0.39420  Biso   1.000  H
  O56      1.0000 0.88800  0.55480  0.20800  Biso   1.000  O
  H8       1.0000 0.84570  0.59810  0.22650  Biso   1.000  H
  C10      1.0000 0.06330  0.53110  0.01880  Biso   1.000  C
  C11      1.0000 0.23820  0.24620  0.04440  Biso   1.000  C
  C12      1.0000 0.15910  0.20330  0.13090  Biso   1.000  C
  Fe7      1.0000 0.13200  0.38572  0.16520  Biso   1.000  Fe
  Fe8      1.0000 0.25200  0.56164  0.49980  Biso   1.000  Fe
