data_MAYXUG_clean
_audit_creation_date              2014-07-02
_audit_creation_method            'Materials Studio'
_symmetry_space_group_name_H-M    'P1'
_symmetry_Int_Tables_number       1
_symmetry_cell_setting            triclinic
loop_
_symmetry_equiv_pos_as_xyz
  x,y,z
_cell_length_a                    5.9565
_cell_length_b                    7.3716
_cell_length_c                    13.1769
_cell_angle_alpha                 102.9250
_cell_angle_beta                  101.6370
_cell_angle_gamma                 90.7850
loop_
_atom_site_label
_atom_site_type_symbol
_atom_site_fract_x
_atom_site_fract_y
_atom_site_fract_z
_atom_site_U_iso_or_equiv
_atom_site_adp_type
_atom_site_occupancy
Er1    Er    0.97961   0.18080   0.32099   0.01267  Uiso   1.00
Er2    Er    0.02035   0.81943   0.67895   0.01267  Uiso   1.00
H1     H     0.64720   0.04230   0.94270   0.01267  Uiso   1.00
H2     H     0.34850   0.10240   0.04280   0.01267  Uiso   1.00
H3     H     0.50610   0.68040   0.43430   0.01267  Uiso   1.00
H4     H     0.52830   0.72120   0.27000   0.01267  Uiso   1.00
H5     H     0.48830   0.24530   0.56650   0.01267  Uiso   1.00
H6     H     0.44940   0.40290   0.73320   0.01267  Uiso   1.00
H7     H     0.79640   0.78040   0.93430   0.01267  Uiso   1.00
H8     H     0.23010   0.89140   0.10410   0.01267  Uiso   1.00
H9     H     0.75970   0.99060   0.51280   0.01267  Uiso   1.00
H10    H     0.83360   0.79590   0.24390   0.01267  Uiso   1.00
H11    H     0.23400   0.48900   0.49210   0.01267  Uiso   1.00
H12    H     0.14410   0.50170   0.75290   0.01267  Uiso   1.00
C1     C     0.78800   0.05670   0.10270   0.01267  Uiso   1.00
C2     C     0.62880   0.96950   0.99640   0.01267  Uiso   1.00
C3     C     0.37900   0.97120   0.01080   0.01267  Uiso   1.00
C4     C     0.22000   0.91100   0.89940   0.01267  Uiso   1.00
C5     C     0.84240   0.61090   0.43170   0.01267  Uiso   1.00
C6     C     0.65160   0.74840   0.43310   0.01267  Uiso   1.00
C7     C     0.61590   0.82100   0.32990   0.01267  Uiso   1.00
C8     C     0.48480   0.99510   0.33580   0.01267  Uiso   1.00
C9     C     0.15070   0.16610   0.56570   0.01267  Uiso   1.00
C10    C     0.34180   0.30970   0.56770   0.01267  Uiso   1.00
C11    C     0.37090   0.45720   0.67330   0.01267  Uiso   1.00
C12    C     0.50890   0.62900   0.67140   0.01267  Uiso   1.00
O1     O     0.74330   0.21920   0.15160   0.01267  Uiso   1.00
O2     O     0.95660   0.98020   0.14140   0.01267  Uiso   1.00
O3     O     0.67560   0.78350   0.95960   0.01267  Uiso   1.00
O4     O     0.35210   0.86270   0.08170   0.01267  Uiso   1.00
O5     O     0.25120   0.01190   0.83610   0.01267  Uiso   1.00
O6     O     0.07940   0.78420   0.87650   0.01267  Uiso   1.00
O7     O     0.82170   0.47330   0.35550   0.01267  Uiso   1.00
O8     O     0.01660   0.65270   0.50750   0.01267  Uiso   1.00
O9     O     0.71210   0.89370   0.52890   0.01267  Uiso   1.00
O10    O     0.83620   0.85660   0.30710   0.01267  Uiso   1.00
O11    O     0.59270   0.14320   0.32940   0.01267  Uiso   1.00
O12    O     0.28240   0.98900   0.34440   0.01267  Uiso   1.00
O13    O     0.97540   0.14630   0.49160   0.01267  Uiso   1.00
O14    O     0.17630   0.08310   0.64040   0.01267  Uiso   1.00
O15    O     0.28360   0.38130   0.47460   0.01267  Uiso   1.00
O16    O     0.14950   0.51340   0.69070   0.01267  Uiso   1.00
O17    O     0.40510   0.77710   0.67290   0.01267  Uiso   1.00
O18    O     0.71740   0.61540   0.66850   0.01267  Uiso   1.00
