data_MAZJAY_clean
_audit_creation_date              2014-07-02
_audit_creation_method            'Materials Studio'
_symmetry_space_group_name_H-M    'P1'
_symmetry_Int_Tables_number       1
_symmetry_cell_setting            triclinic
loop_
_symmetry_equiv_pos_as_xyz
  x,y,z
_cell_length_a                    9.0462
_cell_length_b                    9.0462
_cell_length_c                    16.9860
_cell_angle_alpha                 90.0000
_cell_angle_beta                  90.0000
_cell_angle_gamma                 116.3690
loop_
_atom_site_label
_atom_site_type_symbol
_atom_site_fract_x
_atom_site_fract_y
_atom_site_fract_z
_atom_site_U_iso_or_equiv
_atom_site_adp_type
_atom_site_occupancy
Eu1    Eu    0.99999   0.99999   0.00000   0.01267  Uiso   1.00
Eu2    Eu    0.99999   0.99999   0.50000   0.01267  Uiso   1.00
Eu3    Eu    0.35564   0.65262   0.25000   0.01267  Uiso   1.00
Eu4    Eu    0.65262   0.35564   0.75000   0.01267  Uiso   1.00
H1     H     0.54610   0.94690   0.07980   0.01267  Uiso   1.00
H2     H     0.50570   0.80570   0.01730   0.01267  Uiso   1.00
H3     H     0.58760   0.97840   0.90740   0.01267  Uiso   1.00
H4     H     0.61730   0.13070   0.96110   0.01267  Uiso   1.00
H5     H     0.39450   0.39750   0.08800   0.01267  Uiso   1.00
H6     H     0.32410   0.49050   0.03280   0.01267  Uiso   1.00
H7     H     0.94690   0.54610   0.92020   0.01267  Uiso   1.00
H8     H     0.80570   0.50570   0.98270   0.01267  Uiso   1.00
H9     H     0.97840   0.58760   0.09260   0.01267  Uiso   1.00
H10    H     0.13070   0.61730   0.03890   0.01267  Uiso   1.00
H11    H     0.39750   0.39450   0.91200   0.01267  Uiso   1.00
H12    H     0.49050   0.32410   0.96720   0.01267  Uiso   1.00
H13    H     0.94690   0.54610   0.57980   0.01267  Uiso   1.00
H14    H     0.80570   0.50570   0.51730   0.01267  Uiso   1.00
H15    H     0.97840   0.58760   0.40740   0.01267  Uiso   1.00
H16    H     0.13070   0.61730   0.46110   0.01267  Uiso   1.00
H17    H     0.39750   0.39450   0.58800   0.01267  Uiso   1.00
H18    H     0.49050   0.32410   0.53280   0.01267  Uiso   1.00
H19    H     0.54610   0.94690   0.42020   0.01267  Uiso   1.00
H20    H     0.50570   0.80570   0.48270   0.01267  Uiso   1.00
H21    H     0.58760   0.97840   0.59260   0.01267  Uiso   1.00
H22    H     0.61730   0.13070   0.53890   0.01267  Uiso   1.00
H23    H     0.39450   0.39750   0.41200   0.01267  Uiso   1.00
H24    H     0.32410   0.49050   0.46720   0.01267  Uiso   1.00
C1     C     0.65890   0.80070   0.10420   0.01267  Uiso   1.00
C2     C     0.59230   0.88610   0.04980   0.01267  Uiso   1.00
C3     C     0.66860   0.06540   0.93950   0.01267  Uiso   1.00
C4     C     0.81450   0.17290   0.88970   0.01267  Uiso   1.00
C5     C     0.15370   0.34110   0.11280   0.01267  Uiso   1.00
C6     C     0.29860   0.38580   0.05810   0.01267  Uiso   1.00
C7     C     0.80070   0.65890   0.89580   0.01267  Uiso   1.00
C8     C     0.88610   0.59230   0.95020   0.01267  Uiso   1.00
C9     C     0.06540   0.66860   0.06050   0.01267  Uiso   1.00
C10    C     0.17290   0.81450   0.11030   0.01267  Uiso   1.00
C11    C     0.34110   0.15370   0.88720   0.01267  Uiso   1.00
C12    C     0.38580   0.29860   0.94190   0.01267  Uiso   1.00
C13    C     0.80070   0.65890   0.60420   0.01267  Uiso   1.00
C14    C     0.88610   0.59230   0.54980   0.01267  Uiso   1.00
C15    C     0.06540   0.66860   0.43950   0.01267  Uiso   1.00
C16    C     0.17290   0.81450   0.38970   0.01267  Uiso   1.00
C17    C     0.34110   0.15370   0.61280   0.01267  Uiso   1.00
C18    C     0.38580   0.29860   0.55810   0.01267  Uiso   1.00
C19    C     0.65890   0.80070   0.39580   0.01267  Uiso   1.00
C20    C     0.59230   0.88610   0.45020   0.01267  Uiso   1.00
C21    C     0.66860   0.06540   0.56050   0.01267  Uiso   1.00
C22    C     0.81450   0.17290   0.61030   0.01267  Uiso   1.00
C23    C     0.15370   0.34110   0.38720   0.01267  Uiso   1.00
C24    C     0.29860   0.38580   0.44190   0.01267  Uiso   1.00
O1     O     0.80670   0.83090   0.09900   0.01267  Uiso   1.00
O2     O     0.55840   0.70380   0.15440   0.01267  Uiso   1.00
O3     O     0.72250   0.99550   0.00170   0.01267  Uiso   1.00
O4     O     0.78690   0.24850   0.83590   0.01267  Uiso   1.00
O5     O     0.95190   0.17510   0.90480   0.01267  Uiso   1.00
O6     O     0.02710   0.20410   0.09920   0.01267  Uiso   1.00
O7     O     0.16590   0.43670   0.16610   0.01267  Uiso   1.00
O8     O     0.83090   0.80670   0.90100   0.01267  Uiso   1.00
O9     O     0.70380   0.55840   0.84560   0.01267  Uiso   1.00
O10    O     0.99550   0.72250   0.99830   0.01267  Uiso   1.00
O11    O     0.24850   0.78690   0.16410   0.01267  Uiso   1.00
O12    O     0.17510   0.95190   0.09520   0.01267  Uiso   1.00
O13    O     0.20410   0.02710   0.90080   0.01267  Uiso   1.00
O14    O     0.43670   0.16590   0.83390   0.01267  Uiso   1.00
O15    O     0.83090   0.80670   0.59900   0.01267  Uiso   1.00
O16    O     0.70380   0.55840   0.65440   0.01267  Uiso   1.00
O17    O     0.99550   0.72250   0.50170   0.01267  Uiso   1.00
O18    O     0.24850   0.78690   0.33590   0.01267  Uiso   1.00
O19    O     0.17510   0.95190   0.40480   0.01267  Uiso   1.00
O20    O     0.20410   0.02710   0.59920   0.01267  Uiso   1.00
O21    O     0.43670   0.16590   0.66610   0.01267  Uiso   1.00
O22    O     0.80670   0.83090   0.40100   0.01267  Uiso   1.00
O23    O     0.55840   0.70380   0.34560   0.01267  Uiso   1.00
O24    O     0.72250   0.99550   0.49830   0.01267  Uiso   1.00
O25    O     0.78690   0.24850   0.66410   0.01267  Uiso   1.00
O26    O     0.95190   0.17510   0.59520   0.01267  Uiso   1.00
O27    O     0.02710   0.20410   0.40080   0.01267  Uiso   1.00
O28    O     0.16590   0.43670   0.33390   0.01267  Uiso   1.00
O29    O     0.26030   0.26030   0.00000   0.01267  Uiso   1.00
O30    O     0.26030   0.26030   0.50000   0.01267  Uiso   1.00
