data_MAZJEC_clean
_audit_creation_date              2014-07-02
_audit_creation_method            'Materials Studio'
_symmetry_space_group_name_H-M    'P1'
_symmetry_Int_Tables_number       1
_symmetry_cell_setting            triclinic
loop_
_symmetry_equiv_pos_as_xyz
  x,y,z
_cell_length_a                    9.0164
_cell_length_b                    9.0164
_cell_length_c                    17.0780
_cell_angle_alpha                 90.0000
_cell_angle_beta                  90.0000
_cell_angle_gamma                 117.0310
loop_
_atom_site_label
_atom_site_type_symbol
_atom_site_fract_x
_atom_site_fract_y
_atom_site_fract_z
_atom_site_U_iso_or_equiv
_atom_site_adp_type
_atom_site_occupancy
Gd1    Gd    0.00000   0.00000   0.00000   0.01267  Uiso   1.00
Gd2    Gd    0.00000   0.00000   0.50000   0.01267  Uiso   1.00
Gd3    Gd    0.34991   0.65509   0.25000   0.01267  Uiso   1.00
Gd4    Gd    0.65509   0.34991   0.75000   0.01267  Uiso   1.00
H1     H     0.56200   0.96520   0.08430   0.01267  Uiso   1.00
H2     H     0.50230   0.81930   0.02330   0.01267  Uiso   1.00
H3     H     0.58340   0.98120   0.91000   0.01267  Uiso   1.00
H4     H     0.62460   0.13940   0.96180   0.01267  Uiso   1.00
H5     H     0.39390   0.40170   0.08650   0.01267  Uiso   1.00
H6     H     0.31600   0.48880   0.03250   0.01267  Uiso   1.00
H7     H     0.96520   0.56200   0.91570   0.01267  Uiso   1.00
H8     H     0.81930   0.50230   0.97670   0.01267  Uiso   1.00
H9     H     0.98120   0.58340   0.09000   0.01267  Uiso   1.00
H10    H     0.13940   0.62460   0.03820   0.01267  Uiso   1.00
H11    H     0.40170   0.39390   0.91350   0.01267  Uiso   1.00
H12    H     0.48880   0.31600   0.96750   0.01267  Uiso   1.00
H13    H     0.96520   0.56200   0.58430   0.01267  Uiso   1.00
H14    H     0.81930   0.50230   0.52330   0.01267  Uiso   1.00
H15    H     0.98120   0.58340   0.41000   0.01267  Uiso   1.00
H16    H     0.13940   0.62460   0.46180   0.01267  Uiso   1.00
H17    H     0.40170   0.39390   0.58650   0.01267  Uiso   1.00
H18    H     0.48880   0.31600   0.53250   0.01267  Uiso   1.00
H19    H     0.56200   0.96520   0.41570   0.01267  Uiso   1.00
H20    H     0.50230   0.81930   0.47670   0.01267  Uiso   1.00
H21    H     0.58340   0.98120   0.59000   0.01267  Uiso   1.00
H22    H     0.62460   0.13940   0.53820   0.01267  Uiso   1.00
H23    H     0.39390   0.40170   0.41350   0.01267  Uiso   1.00
H24    H     0.31600   0.48880   0.46750   0.01267  Uiso   1.00
C1     C     0.65350   0.80250   0.10590   0.01267  Uiso   1.00
C2     C     0.59720   0.89680   0.05320   0.01267  Uiso   1.00
C3     C     0.66940   0.06860   0.94020   0.01267  Uiso   1.00
C4     C     0.81500   0.16900   0.88940   0.01267  Uiso   1.00
C5     C     0.15150   0.33650   0.11420   0.01267  Uiso   1.00
C6     C     0.29500   0.38500   0.05770   0.01267  Uiso   1.00
C7     C     0.80250   0.65350   0.89410   0.01267  Uiso   1.00
C8     C     0.89680   0.59720   0.94680   0.01267  Uiso   1.00
C9     C     0.06860   0.66940   0.05980   0.01267  Uiso   1.00
C10    C     0.16900   0.81500   0.11060   0.01267  Uiso   1.00
C11    C     0.33650   0.15150   0.88580   0.01267  Uiso   1.00
C12    C     0.38500   0.29500   0.94230   0.01267  Uiso   1.00
C13    C     0.80250   0.65350   0.60590   0.01267  Uiso   1.00
C14    C     0.89680   0.59720   0.55320   0.01267  Uiso   1.00
C15    C     0.06860   0.66940   0.44020   0.01267  Uiso   1.00
C16    C     0.16900   0.81500   0.38940   0.01267  Uiso   1.00
C17    C     0.33650   0.15150   0.61420   0.01267  Uiso   1.00
C18    C     0.38500   0.29500   0.55770   0.01267  Uiso   1.00
C19    C     0.65350   0.80250   0.39410   0.01267  Uiso   1.00
C20    C     0.59720   0.89680   0.44680   0.01267  Uiso   1.00
C21    C     0.66940   0.06860   0.55980   0.01267  Uiso   1.00
C22    C     0.81500   0.16900   0.61060   0.01267  Uiso   1.00
C23    C     0.15150   0.33650   0.38580   0.01267  Uiso   1.00
C24    C     0.29500   0.38500   0.44230   0.01267  Uiso   1.00
O1     O     0.80080   0.82700   0.09620   0.01267  Uiso   1.00
O2     O     0.55580   0.70740   0.15640   0.01267  Uiso   1.00
O3     O     0.72390   0.99910   0.00150   0.01267  Uiso   1.00
O4     O     0.79370   0.24830   0.83510   0.01267  Uiso   1.00
O5     O     0.95710   0.17690   0.90420   0.01267  Uiso   1.00
O6     O     0.02440   0.20320   0.09790   0.01267  Uiso   1.00
O7     O     0.17100   0.43700   0.16740   0.01267  Uiso   1.00
O8     O     0.82700   0.80080   0.90380   0.01267  Uiso   1.00
O9     O     0.70740   0.55580   0.84360   0.01267  Uiso   1.00
O10    O     0.99910   0.72390   0.99850   0.01267  Uiso   1.00
O11    O     0.24830   0.79370   0.16490   0.01267  Uiso   1.00
O12    O     0.17690   0.95710   0.09580   0.01267  Uiso   1.00
O13    O     0.20320   0.02440   0.90210   0.01267  Uiso   1.00
O14    O     0.43700   0.17100   0.83260   0.01267  Uiso   1.00
O15    O     0.82700   0.80080   0.59620   0.01267  Uiso   1.00
O16    O     0.70740   0.55580   0.65640   0.01267  Uiso   1.00
O17    O     0.99910   0.72390   0.50150   0.01267  Uiso   1.00
O18    O     0.24830   0.79370   0.33510   0.01267  Uiso   1.00
O19    O     0.17690   0.95710   0.40420   0.01267  Uiso   1.00
O20    O     0.20320   0.02440   0.59790   0.01267  Uiso   1.00
O21    O     0.43700   0.17100   0.66740   0.01267  Uiso   1.00
O22    O     0.80080   0.82700   0.40380   0.01267  Uiso   1.00
O23    O     0.55580   0.70740   0.34360   0.01267  Uiso   1.00
O24    O     0.72390   0.99910   0.49850   0.01267  Uiso   1.00
O25    O     0.79370   0.24830   0.66490   0.01267  Uiso   1.00
O26    O     0.95710   0.17690   0.59580   0.01267  Uiso   1.00
O27    O     0.02440   0.20320   0.40210   0.01267  Uiso   1.00
O28    O     0.17100   0.43700   0.33260   0.01267  Uiso   1.00
O29    O     0.26200   0.26200   0.00000   0.01267  Uiso   1.00
O30    O     0.26200   0.26200   0.50000   0.01267  Uiso   1.00
