data_MAZSUD_clean
_audit_creation_date              2014-07-02
_audit_creation_method            'Materials Studio'
_symmetry_space_group_name_H-M    'P1'
_symmetry_Int_Tables_number       1
_symmetry_cell_setting            triclinic
loop_
_symmetry_equiv_pos_as_xyz
  x,y,z
_cell_length_a                    9.1789
_cell_length_b                    10.9267
_cell_length_c                    11.3710
_cell_angle_alpha                 117.8440
_cell_angle_beta                  100.8610
_cell_angle_gamma                 99.3440
loop_
_atom_site_label
_atom_site_type_symbol
_atom_site_fract_x
_atom_site_fract_y
_atom_site_fract_z
_atom_site_U_iso_or_equiv
_atom_site_adp_type
_atom_site_occupancy
Zn1    Zn    0.19095   0.62355   0.12211   0.01267  Uiso   1.00
Zn2    Zn    0.80905   0.37645   0.87789   0.01267  Uiso   1.00
Zn3    Zn    0.50000   0.50000  -0.00000   0.01267  Uiso   1.00
H1     H     0.62530   0.82780   0.97670   0.01267  Uiso   1.00
H2     H     0.29420   0.00970   0.08850   0.01267  Uiso   1.00
H3     H     0.69420   0.39080   0.50710   0.01267  Uiso   1.00
H4     H     0.38640   0.57330   0.67650   0.01267  Uiso   1.00
H5     H     0.24960   0.23100   0.70380   0.01267  Uiso   1.00
H6     H     0.96770   0.17760   0.65400   0.01267  Uiso   1.00
H7     H     0.37470   0.17220   0.02330   0.01267  Uiso   1.00
H8     H     0.70580   0.99030   0.91150   0.01267  Uiso   1.00
H9     H     0.30580   0.60920   0.49290   0.01267  Uiso   1.00
H10    H     0.61360   0.42670   0.32350   0.01267  Uiso   1.00
H11    H     0.75040   0.76900   0.29620   0.01267  Uiso   1.00
H12    H     0.03230   0.82240   0.34600   0.01267  Uiso   1.00
C1     C     0.44840   0.90050   0.03740   0.01267  Uiso   1.00
C2     C     0.57400   0.89700   0.98570   0.01267  Uiso   1.00
C3     C     0.37720   0.00500   0.05210   0.01267  Uiso   1.00
C4     C     0.39190   0.79010   0.07310   0.01267  Uiso   1.00
C5     C     0.54670   0.47420   0.60720   0.01267  Uiso   1.00
C6     C     0.61530   0.43400   0.50420   0.01267  Uiso   1.00
C7     C     0.43150   0.54300   0.60480   0.01267  Uiso   1.00
C8     C     0.59810   0.45510   0.73010   0.01267  Uiso   1.00
C9     C     0.19760   0.28380   0.76330   0.01267  Uiso   1.00
C10    C     0.04160   0.25390   0.73470   0.01267  Uiso   1.00
C11    C     0.55160   0.09950   0.96260   0.01267  Uiso   1.00
C12    C     0.42600   0.10300   0.01430   0.01267  Uiso   1.00
C13    C     0.62280   0.99500   0.94790   0.01267  Uiso   1.00
C14    C     0.60810   0.20990   0.92690   0.01267  Uiso   1.00
C15    C     0.45330   0.52580   0.39280   0.01267  Uiso   1.00
C16    C     0.38470   0.56600   0.49580   0.01267  Uiso   1.00
C17    C     0.56850   0.45700   0.39520   0.01267  Uiso   1.00
C18    C     0.40190   0.54490   0.26990   0.01267  Uiso   1.00
C19    C     0.80240   0.71620   0.23670   0.01267  Uiso   1.00
C20    C     0.95840   0.74610   0.26530   0.01267  Uiso   1.00
N1     N     0.26430   0.39930   0.88850   0.01267  Uiso   1.00
N2     N     0.15140   0.44320   0.93820   0.01267  Uiso   1.00
N3     N     0.01510   0.35610   0.84570   0.01267  Uiso   1.00
N4     N     0.73570   0.60070   0.11150   0.01267  Uiso   1.00
N5     N     0.84860   0.55680   0.06180   0.01267  Uiso   1.00
N6     N     0.98490   0.64390   0.15430   0.01267  Uiso   1.00
O1     O     0.27010   0.79080   0.10560   0.01267  Uiso   1.00
O2     O     0.46690   0.70510   0.07200   0.01267  Uiso   1.00
O3     O     0.53620   0.50180   0.82380   0.01267  Uiso   1.00
O4     O     0.70250   0.39100   0.72490   0.01267  Uiso   1.00
O5     O     0.72990   0.20920   0.89440   0.01267  Uiso   1.00
O6     O     0.53310   0.29490   0.92800   0.01267  Uiso   1.00
O7     O     0.46380   0.49820   0.17620   0.01267  Uiso   1.00
O8     O     0.29750   0.60900   0.27510   0.01267  Uiso   1.00
