data_MAZTIR_clean
_audit_creation_date              2014-07-02
_audit_creation_method            'Materials Studio'
_symmetry_space_group_name_H-M    'P1'
_symmetry_Int_Tables_number       1
_symmetry_cell_setting            triclinic
loop_
_symmetry_equiv_pos_as_xyz
  x,y,z
_cell_length_a                    6.8434
_cell_length_b                    19.0140
_cell_length_c                    9.4203
_cell_angle_alpha                 90.0000
_cell_angle_beta                  90.0000
_cell_angle_gamma                 90.0000
loop_
_atom_site_label
_atom_site_type_symbol
_atom_site_fract_x
_atom_site_fract_y
_atom_site_fract_z
_atom_site_U_iso_or_equiv
_atom_site_adp_type
_atom_site_occupancy
Ba1    Ba    0.75000   0.75000   0.47182   0.01267  Uiso   1.00
Ba2    Ba    0.25000   0.25000   0.02818   0.01267  Uiso   1.00
Ba3    Ba    0.25000   0.25000   0.52818   0.01267  Uiso   1.00
Ba4    Ba    0.75000   0.75000   0.97182   0.01267  Uiso   1.00
Zn1    Zn    0.00000   0.50000   0.00000   0.01267  Uiso   1.00
Zn2    Zn    0.50000   0.00000   0.00000   0.01267  Uiso   1.00
Zn3    Zn    0.50000   0.50000   0.50000   0.01267  Uiso   1.00
Zn4    Zn    0.00000   0.00000   0.50000   0.01267  Uiso   1.00
H1     H     0.43600   0.57050   0.83570   0.01267  Uiso   1.00
H2     H     0.64400   0.58450   0.89700   0.01267  Uiso   1.00
H3     H     0.06400   0.92950   0.83570   0.01267  Uiso   1.00
H4     H     0.85600   0.91550   0.89700   0.01267  Uiso   1.00
H5     H     0.93600   0.42950   0.66430   0.01267  Uiso   1.00
H6     H     0.14400   0.41550   0.60300   0.01267  Uiso   1.00
H7     H     0.56400   0.07050   0.66430   0.01267  Uiso   1.00
H8     H     0.35600   0.08450   0.60300   0.01267  Uiso   1.00
H9     H     0.56400   0.42950   0.16430   0.01267  Uiso   1.00
H10    H     0.35600   0.41550   0.10300   0.01267  Uiso   1.00
H11    H     0.93600   0.07050   0.16430   0.01267  Uiso   1.00
H12    H     0.14400   0.08450   0.10300   0.01267  Uiso   1.00
H13    H     0.06400   0.57050   0.33570   0.01267  Uiso   1.00
H14    H     0.85600   0.58450   0.39700   0.01267  Uiso   1.00
H15    H     0.43600   0.92950   0.33570   0.01267  Uiso   1.00
H16    H     0.64400   0.91550   0.39700   0.01267  Uiso   1.00
C1     C     0.62240   0.48937   0.80070   0.01267  Uiso   1.00
C2     C     0.57440   0.56678   0.81470   0.01267  Uiso   1.00
C3     C     0.61750   0.61561   0.69210   0.01267  Uiso   1.00
C4     C     0.87760   0.01063   0.80070   0.01267  Uiso   1.00
C5     C     0.92560   0.93322   0.81470   0.01267  Uiso   1.00
C6     C     0.88250   0.88439   0.69210   0.01267  Uiso   1.00
C7     C     0.12240   0.51063   0.69930   0.01267  Uiso   1.00
C8     C     0.07440   0.43322   0.68530   0.01267  Uiso   1.00
C9     C     0.11750   0.38439   0.80790   0.01267  Uiso   1.00
C10    C     0.37760   0.98937   0.69930   0.01267  Uiso   1.00
C11    C     0.42560   0.06678   0.68530   0.01267  Uiso   1.00
C12    C     0.38250   0.11561   0.80790   0.01267  Uiso   1.00
C13    C     0.37760   0.51063   0.19930   0.01267  Uiso   1.00
C14    C     0.42560   0.43322   0.18530   0.01267  Uiso   1.00
C15    C     0.38250   0.38439   0.30790   0.01267  Uiso   1.00
C16    C     0.12240   0.98937   0.19930   0.01267  Uiso   1.00
C17    C     0.07440   0.06678   0.18530   0.01267  Uiso   1.00
C18    C     0.11750   0.11561   0.30790   0.01267  Uiso   1.00
C19    C     0.87760   0.48937   0.30070   0.01267  Uiso   1.00
C20    C     0.92560   0.56678   0.31470   0.01267  Uiso   1.00
C21    C     0.88250   0.61561   0.19210   0.01267  Uiso   1.00
C22    C     0.62240   0.01063   0.30070   0.01267  Uiso   1.00
C23    C     0.57440   0.93322   0.31470   0.01267  Uiso   1.00
C24    C     0.61750   0.88439   0.19210   0.01267  Uiso   1.00
O1     O     0.70920   0.45989   0.90150   0.01267  Uiso   1.00
O2     O     0.56580   0.45563   0.69080   0.01267  Uiso   1.00
O3     O     0.61380   0.59384   0.56440   0.01267  Uiso   1.00
O4     O     0.65460   0.67803   0.72260   0.01267  Uiso   1.00
O5     O     0.79080   0.04011   0.90150   0.01267  Uiso   1.00
O6     O     0.93420   0.04437   0.69080   0.01267  Uiso   1.00
O7     O     0.88620   0.90616   0.56440   0.01267  Uiso   1.00
O8     O     0.84540   0.82197   0.72260   0.01267  Uiso   1.00
O9     O     0.20920   0.54011   0.59850   0.01267  Uiso   1.00
O10    O     0.06580   0.54437   0.80920   0.01267  Uiso   1.00
O11    O     0.11380   0.40616   0.93560   0.01267  Uiso   1.00
O12    O     0.15460   0.32197   0.77740   0.01267  Uiso   1.00
O13    O     0.29080   0.95989   0.59850   0.01267  Uiso   1.00
O14    O     0.43420   0.95563   0.80920   0.01267  Uiso   1.00
O15    O     0.38620   0.09384   0.93560   0.01267  Uiso   1.00
O16    O     0.34540   0.17803   0.77740   0.01267  Uiso   1.00
O17    O     0.29080   0.54011   0.09850   0.01267  Uiso   1.00
O18    O     0.43420   0.54437   0.30920   0.01267  Uiso   1.00
O19    O     0.38620   0.40616   0.43560   0.01267  Uiso   1.00
O20    O     0.34540   0.32197   0.27740   0.01267  Uiso   1.00
O21    O     0.20920   0.95989   0.09850   0.01267  Uiso   1.00
O22    O     0.06580   0.95563   0.30920   0.01267  Uiso   1.00
O23    O     0.11380   0.09384   0.43560   0.01267  Uiso   1.00
O24    O     0.15460   0.17803   0.27740   0.01267  Uiso   1.00
O25    O     0.79080   0.45989   0.40150   0.01267  Uiso   1.00
O26    O     0.93420   0.45563   0.19080   0.01267  Uiso   1.00
O27    O     0.88620   0.59384   0.06440   0.01267  Uiso   1.00
O28    O     0.84540   0.67803   0.22260   0.01267  Uiso   1.00
O29    O     0.70920   0.04011   0.40150   0.01267  Uiso   1.00
O30    O     0.56580   0.04437   0.19080   0.01267  Uiso   1.00
O31    O     0.61380   0.90616   0.06440   0.01267  Uiso   1.00
O32    O     0.65460   0.82197   0.22260   0.01267  Uiso   1.00
