data_image0
_cell_length_a       19.3474
_cell_length_b       19.3474
_cell_length_c       3.5013
_cell_angle_alpha    90
_cell_angle_beta     90
_cell_angle_gamma    90

_symmetry_space_group_name_H-M    "P 1"
_symmetry_int_tables_number       1

loop_
  _symmetry_equiv_pos_as_xyz
  'x, y, z'

loop_
  _atom_site_label
  _atom_site_occupancy
  _atom_site_fract_x
  _atom_site_fract_y
  _atom_site_fract_z
  _atom_site_thermal_displace_type
  _atom_site_B_iso_or_equiv
  _atom_site_type_symbol
  Ag1      1.0000 0.54448  0.37694  0.00510  Biso   1.000  Ag
  N1       1.0000 0.75130  0.38160  0.45200  Biso   1.000  N
  N2       1.0000 0.64140  0.39440  0.22500  Biso   1.000  N
  N3       1.0000 0.67470  0.45850  0.20700  Biso   1.000  N
  C1       1.0000 0.68860  0.35270  0.37200  Biso   1.000  C
  C2       1.0000 0.73510  0.44570  0.36800  Biso   1.000  C
  H1       1.0000 0.76570  0.48150  0.42190  Biso   1.000  H
  N4       1.0000 0.67800  0.28300  0.41000  Biso   1.000  N
  H2       1.0000 0.63980  0.26450  0.34030  Biso   1.000  H
  H3       1.0000 0.71010  0.25720  0.50850  Biso   1.000  H
  N5       1.0000 0.78000  0.50000  0.39900  Biso   1.000  N
  H4       1.0000 0.82140  0.49260  0.47750  Biso   1.000  H
  H5       1.0000 0.76660  0.54060  0.34040  Biso   1.000  H
  H6       1.0000 0.67960  0.30620  0.41770  Biso   1.000  H
  Ag2      1.0000 0.45552  0.62306  0.00510  Biso   1.000  Ag
  N6       1.0000 0.24870  0.61840  0.45200  Biso   1.000  N
  N7       1.0000 0.35860  0.60560  0.22500  Biso   1.000  N
  N8       1.0000 0.32530  0.54150  0.20700  Biso   1.000  N
  C3       1.0000 0.31140  0.64730  0.37200  Biso   1.000  C
  C4       1.0000 0.26490  0.55430  0.36800  Biso   1.000  C
  H7       1.0000 0.23430  0.51850  0.42190  Biso   1.000  H
  N9       1.0000 0.32200  0.71700  0.41000  Biso   1.000  N
  H8       1.0000 0.36020  0.73550  0.34030  Biso   1.000  H
  H9       1.0000 0.28990  0.74280  0.50850  Biso   1.000  H
  N10      1.0000 0.22000  0.50000  0.39900  Biso   1.000  N
  H10      1.0000 0.17860  0.50740  0.47750  Biso   1.000  H
  H11      1.0000 0.23340  0.45940  0.34040  Biso   1.000  H
  H12      1.0000 0.32040  0.69380  0.41770  Biso   1.000  H
  Ag3      1.0000 0.37694  0.45552  0.99490  Biso   1.000  Ag
  N11      1.0000 0.38160  0.24870  0.54800  Biso   1.000  N
  N12      1.0000 0.39440  0.35860  0.77500  Biso   1.000  N
  N13      1.0000 0.45850  0.32530  0.79300  Biso   1.000  N
  C5       1.0000 0.35270  0.31140  0.62800  Biso   1.000  C
  C6       1.0000 0.44570  0.26490  0.63200  Biso   1.000  C
  H13      1.0000 0.48150  0.23430  0.57810  Biso   1.000  H
  N14      1.0000 0.28300  0.32200  0.59000  Biso   1.000  N
  H14      1.0000 0.26450  0.36020  0.65970  Biso   1.000  H
  H15      1.0000 0.25720  0.28990  0.49150  Biso   1.000  H
  N15      1.0000 0.50000  0.22000  0.60100  Biso   1.000  N
  H16      1.0000 0.49260  0.17860  0.52250  Biso   1.000  H
  H17      1.0000 0.54060  0.23340  0.65960  Biso   1.000  H
  H18      1.0000 0.30620  0.32040  0.58230  Biso   1.000  H
  Ag4      1.0000 0.62306  0.54448  0.99490  Biso   1.000  Ag
  N16      1.0000 0.61840  0.75130  0.54800  Biso   1.000  N
  N17      1.0000 0.60560  0.64140  0.77500  Biso   1.000  N
  N18      1.0000 0.54150  0.67470  0.79300  Biso   1.000  N
  C7       1.0000 0.64730  0.68860  0.62800  Biso   1.000  C
  C8       1.0000 0.55430  0.73510  0.63200  Biso   1.000  C
  H19      1.0000 0.51850  0.76570  0.57810  Biso   1.000  H
  N19      1.0000 0.71700  0.67800  0.59000  Biso   1.000  N
  H20      1.0000 0.73550  0.63980  0.65970  Biso   1.000  H
  H21      1.0000 0.74280  0.71010  0.49150  Biso   1.000  H
  N20      1.0000 0.50000  0.78000  0.60100  Biso   1.000  N
  H22      1.0000 0.50740  0.82140  0.52250  Biso   1.000  H
  H23      1.0000 0.45940  0.76660  0.65960  Biso   1.000  H
  H24      1.0000 0.69380  0.67960  0.58230  Biso   1.000  H
  Ag5      1.0000 0.04448  0.12306  0.50510  Biso   1.000  Ag
  N21      1.0000 0.25130  0.11840  0.95200  Biso   1.000  N
  N22      1.0000 0.14140  0.10560  0.72500  Biso   1.000  N
  N23      1.0000 0.17470  0.04150  0.70700  Biso   1.000  N
  C9       1.0000 0.18860  0.14730  0.87200  Biso   1.000  C
  C10      1.0000 0.23510  0.05430  0.86800  Biso   1.000  C
  H25      1.0000 0.26570  0.01850  0.92190  Biso   1.000  H
  N24      1.0000 0.17800  0.21700  0.91000  Biso   1.000  N
  H26      1.0000 0.13980  0.23550  0.84030  Biso   1.000  H
  H27      1.0000 0.21010  0.24280  0.00850  Biso   1.000  H
  N25      1.0000 0.28000  0.00000  0.89900  Biso   1.000  N
  H28      1.0000 0.32140  0.00740  0.97750  Biso   1.000  H
  H29      1.0000 0.26660  0.95940  0.84040  Biso   1.000  H
  H30      1.0000 0.17960  0.19380  0.91770  Biso   1.000  H
  Ag6      1.0000 0.95552  0.87694  0.50510  Biso   1.000  Ag
  N26      1.0000 0.74870  0.88160  0.95200  Biso   1.000  N
  N27      1.0000 0.85860  0.89440  0.72500  Biso   1.000  N
  N28      1.0000 0.82530  0.95850  0.70700  Biso   1.000  N
  C11      1.0000 0.81140  0.85270  0.87200  Biso   1.000  C
  C12      1.0000 0.76490  0.94570  0.86800  Biso   1.000  C
  H31      1.0000 0.73430  0.98150  0.92190  Biso   1.000  H
  N29      1.0000 0.82200  0.78300  0.91000  Biso   1.000  N
  H32      1.0000 0.86020  0.76450  0.84030  Biso   1.000  H
  H33      1.0000 0.78990  0.75720  0.00850  Biso   1.000  H
  N30      1.0000 0.72000  0.00000  0.89900  Biso   1.000  N
  H34      1.0000 0.67860  0.99260  0.97750  Biso   1.000  H
  H35      1.0000 0.73340  0.04060  0.84040  Biso   1.000  H
  H36      1.0000 0.82040  0.80620  0.91770  Biso   1.000  H
  Ag7      1.0000 0.87694  0.04448  0.49490  Biso   1.000  Ag
  N31      1.0000 0.88160  0.25130  0.04800  Biso   1.000  N
  N32      1.0000 0.89440  0.14140  0.27500  Biso   1.000  N
  N33      1.0000 0.95850  0.17470  0.29300  Biso   1.000  N
  C13      1.0000 0.85270  0.18860  0.12800  Biso   1.000  C
  C14      1.0000 0.94570  0.23510  0.13200  Biso   1.000  C
  H37      1.0000 0.98150  0.26570  0.07810  Biso   1.000  H
  N34      1.0000 0.78300  0.17800  0.09000  Biso   1.000  N
  H38      1.0000 0.76450  0.13980  0.15970  Biso   1.000  H
  H39      1.0000 0.75720  0.21010  0.99150  Biso   1.000  H
  N35      1.0000 0.00000  0.28000  0.10100  Biso   1.000  N
  H40      1.0000 0.99260  0.32140  0.02250  Biso   1.000  H
  H41      1.0000 0.04060  0.26660  0.15960  Biso   1.000  H
  H42      1.0000 0.80620  0.17960  0.08230  Biso   1.000  H
  Ag8      1.0000 0.12306  0.95552  0.49490  Biso   1.000  Ag
  N36      1.0000 0.11840  0.74870  0.04800  Biso   1.000  N
  N37      1.0000 0.10560  0.85860  0.27500  Biso   1.000  N
  N38      1.0000 0.04150  0.82530  0.29300  Biso   1.000  N
  C15      1.0000 0.14730  0.81140  0.12800  Biso   1.000  C
  C16      1.0000 0.05430  0.76490  0.13200  Biso   1.000  C
  H43      1.0000 0.01850  0.73430  0.07810  Biso   1.000  H
  N39      1.0000 0.21700  0.82200  0.09000  Biso   1.000  N
  H44      1.0000 0.23550  0.86020  0.15970  Biso   1.000  H
  H45      1.0000 0.24280  0.78990  0.99150  Biso   1.000  H
  N40      1.0000 0.00000  0.72000  0.10100  Biso   1.000  N
  H46      1.0000 0.00740  0.67860  0.02250  Biso   1.000  H
  H47      1.0000 0.95940  0.73340  0.15960  Biso   1.000  H
  H48      1.0000 0.19380  0.82040  0.08230  Biso   1.000  H
  Ag9      1.0000 0.83553  0.33553  0.75000  Biso   1.000  Ag
  Ag10     1.0000 0.16447  0.66447  0.75000  Biso   1.000  Ag
  Ag11     1.0000 0.33553  0.16447  0.25000  Biso   1.000  Ag
  Ag12     1.0000 0.66447  0.83553  0.25000  Biso   1.000  Ag
