data_image0
_cell_length_a       16.8701
_cell_length_b       16.8701
_cell_length_c       16.8701
_cell_angle_alpha    90
_cell_angle_beta     90
_cell_angle_gamma    90

_symmetry_space_group_name_H-M    "P 1"
_symmetry_int_tables_number       1

loop_
  _symmetry_equiv_pos_as_xyz
  'x, y, z'

loop_
  _atom_site_label
  _atom_site_occupancy
  _atom_site_fract_x
  _atom_site_fract_y
  _atom_site_fract_z
  _atom_site_thermal_displace_type
  _atom_site_B_iso_or_equiv
  _atom_site_type_symbol
  O1       1.0000 0.01704  0.59499  0.30414  Biso   1.000  O
  O2       1.0000 0.51704  0.09499  0.80414  Biso   1.000  O
  O3       1.0000 0.98296  0.40501  0.30414  Biso   1.000  O
  O4       1.0000 0.48296  0.90501  0.80414  Biso   1.000  O
  O5       1.0000 0.98296  0.59499  0.69586  Biso   1.000  O
  O6       1.0000 0.48296  0.09499  0.19586  Biso   1.000  O
  O7       1.0000 0.01704  0.40501  0.69586  Biso   1.000  O
  O8       1.0000 0.51704  0.90501  0.19586  Biso   1.000  O
  O9       1.0000 0.30414  0.01704  0.59499  Biso   1.000  O
  O10      1.0000 0.80414  0.51704  0.09499  Biso   1.000  O
  O11      1.0000 0.30414  0.98296  0.40501  Biso   1.000  O
  O12      1.0000 0.80414  0.48296  0.90501  Biso   1.000  O
  O13      1.0000 0.69586  0.98296  0.59499  Biso   1.000  O
  O14      1.0000 0.19586  0.48296  0.09499  Biso   1.000  O
  O15      1.0000 0.69586  0.01704  0.40501  Biso   1.000  O
  O16      1.0000 0.19586  0.51704  0.90501  Biso   1.000  O
  O17      1.0000 0.59499  0.30414  0.01704  Biso   1.000  O
  O18      1.0000 0.09499  0.80414  0.51704  Biso   1.000  O
  O19      1.0000 0.40501  0.30414  0.98296  Biso   1.000  O
  O20      1.0000 0.90501  0.80414  0.48296  Biso   1.000  O
  O21      1.0000 0.59499  0.69586  0.98296  Biso   1.000  O
  O22      1.0000 0.09499  0.19586  0.48296  Biso   1.000  O
  O23      1.0000 0.40501  0.69586  0.01704  Biso   1.000  O
  O24      1.0000 0.90501  0.19586  0.51704  Biso   1.000  O
  O25      1.0000 0.59499  0.01704  0.30414  Biso   1.000  O
  O26      1.0000 0.09499  0.51704  0.80414  Biso   1.000  O
  O27      1.0000 0.40501  0.98296  0.30414  Biso   1.000  O
  O28      1.0000 0.90501  0.48296  0.80414  Biso   1.000  O
  O29      1.0000 0.59499  0.98296  0.69586  Biso   1.000  O
  O30      1.0000 0.09499  0.48296  0.19586  Biso   1.000  O
  O31      1.0000 0.40501  0.01704  0.69586  Biso   1.000  O
  O32      1.0000 0.90501  0.51704  0.19586  Biso   1.000  O
  O33      1.0000 0.01704  0.30414  0.59499  Biso   1.000  O
  O34      1.0000 0.51704  0.80414  0.09499  Biso   1.000  O
  O35      1.0000 0.98296  0.30414  0.40501  Biso   1.000  O
  O36      1.0000 0.48296  0.80414  0.90501  Biso   1.000  O
  O37      1.0000 0.98296  0.69586  0.59499  Biso   1.000  O
  O38      1.0000 0.48296  0.19586  0.09499  Biso   1.000  O
  O39      1.0000 0.01704  0.69586  0.40501  Biso   1.000  O
  O40      1.0000 0.51704  0.19586  0.90501  Biso   1.000  O
  O41      1.0000 0.30414  0.59499  0.01704  Biso   1.000  O
  O42      1.0000 0.80414  0.09499  0.51704  Biso   1.000  O
  O43      1.0000 0.30414  0.40501  0.98296  Biso   1.000  O
  O44      1.0000 0.80414  0.90501  0.48296  Biso   1.000  O
  O45      1.0000 0.69586  0.59499  0.98296  Biso   1.000  O
  O46      1.0000 0.19586  0.09499  0.48296  Biso   1.000  O
  O47      1.0000 0.69586  0.40501  0.01704  Biso   1.000  O
  O48      1.0000 0.19586  0.90501  0.51704  Biso   1.000  O
  Ga1      1.0000 0.00000  0.50000  0.50000  Biso   1.000  Ga
  Ga2      1.0000 0.50000  0.00000  0.00000  Biso   1.000  Ga
  Ga3      1.0000 0.50000  0.00000  0.50000  Biso   1.000  Ga
  Ga4      1.0000 0.00000  0.50000  0.00000  Biso   1.000  Ga
  Ga5      1.0000 0.50000  0.50000  0.00000  Biso   1.000  Ga
  Ga6      1.0000 0.00000  0.00000  0.50000  Biso   1.000  Ga
  Fe1      1.0000 0.00000  0.50000  0.25000  Biso   1.000  Fe
  Fe2      1.0000 0.00000  0.50000  0.75000  Biso   1.000  Fe
  Fe3      1.0000 0.50000  0.00000  0.25000  Biso   1.000  Fe
  Fe4      1.0000 0.25000  0.00000  0.50000  Biso   1.000  Fe
  Fe5      1.0000 0.75000  0.00000  0.50000  Biso   1.000  Fe
  Fe6      1.0000 0.25000  0.50000  0.00000  Biso   1.000  Fe
  Fe7      1.0000 0.50000  0.25000  0.00000  Biso   1.000  Fe
  Fe8      1.0000 0.50000  0.75000  0.00000  Biso   1.000  Fe
  Fe9      1.0000 0.00000  0.25000  0.50000  Biso   1.000  Fe
  Fe10     1.0000 0.50000  0.00000  0.75000  Biso   1.000  Fe
  Fe11     1.0000 0.00000  0.75000  0.50000  Biso   1.000  Fe
  Fe12     1.0000 0.75000  0.50000  0.00000  Biso   1.000  Fe
  P1       1.0000 0.06541  0.62451  0.37549  Biso   1.000  P
  O49      1.0000 0.14853  0.64631  0.35369  Biso   1.000  O
  O50      1.0000 0.06784  0.56019  0.43981  Biso   1.000  O
  P2       1.0000 0.56541  0.12451  0.87549  Biso   1.000  P
  O51      1.0000 0.64853  0.14631  0.85369  Biso   1.000  O
  O52      1.0000 0.56784  0.06019  0.93981  Biso   1.000  O
  P3       1.0000 0.93459  0.37549  0.37549  Biso   1.000  P
  O53      1.0000 0.85147  0.35369  0.35369  Biso   1.000  O
  O54      1.0000 0.93216  0.43981  0.43981  Biso   1.000  O
  P4       1.0000 0.43459  0.87549  0.87549  Biso   1.000  P
  O55      1.0000 0.35147  0.85369  0.85369  Biso   1.000  O
  O56      1.0000 0.43216  0.93981  0.93981  Biso   1.000  O
  P5       1.0000 0.93459  0.62451  0.62451  Biso   1.000  P
  O57      1.0000 0.85147  0.64631  0.64631  Biso   1.000  O
  O58      1.0000 0.93216  0.56019  0.56019  Biso   1.000  O
  P6       1.0000 0.43459  0.12451  0.12451  Biso   1.000  P
  O59      1.0000 0.35147  0.14631  0.14631  Biso   1.000  O
  O60      1.0000 0.43216  0.06019  0.06019  Biso   1.000  O
  P7       1.0000 0.06541  0.37549  0.62451  Biso   1.000  P
  O61      1.0000 0.14853  0.35369  0.64631  Biso   1.000  O
  O62      1.0000 0.06784  0.43981  0.56019  Biso   1.000  O
  P8       1.0000 0.56541  0.87549  0.12451  Biso   1.000  P
  O63      1.0000 0.64853  0.85369  0.14631  Biso   1.000  O
  O64      1.0000 0.56784  0.93981  0.06019  Biso   1.000  O
  P9       1.0000 0.37549  0.06541  0.62451  Biso   1.000  P
  O65      1.0000 0.35369  0.14853  0.64631  Biso   1.000  O
  O66      1.0000 0.43981  0.06784  0.56019  Biso   1.000  O
  P10      1.0000 0.87549  0.56541  0.12451  Biso   1.000  P
  O67      1.0000 0.85369  0.64853  0.14631  Biso   1.000  O
  O68      1.0000 0.93981  0.56784  0.06019  Biso   1.000  O
  P11      1.0000 0.37549  0.93459  0.37549  Biso   1.000  P
  O69      1.0000 0.35369  0.85147  0.35369  Biso   1.000  O
  O70      1.0000 0.43981  0.93216  0.43981  Biso   1.000  O
  P12      1.0000 0.87549  0.43459  0.87549  Biso   1.000  P
  O71      1.0000 0.85369  0.35147  0.85369  Biso   1.000  O
  O72      1.0000 0.93981  0.43216  0.93981  Biso   1.000  O
  P13      1.0000 0.62451  0.93459  0.62451  Biso   1.000  P
  O73      1.0000 0.64631  0.85147  0.64631  Biso   1.000  O
  O74      1.0000 0.56019  0.93216  0.56019  Biso   1.000  O
  P14      1.0000 0.12451  0.43459  0.12451  Biso   1.000  P
  O75      1.0000 0.14631  0.35147  0.14631  Biso   1.000  O
  O76      1.0000 0.06019  0.43216  0.06019  Biso   1.000  O
  P15      1.0000 0.62451  0.06541  0.37549  Biso   1.000  P
  O77      1.0000 0.64631  0.14853  0.35369  Biso   1.000  O
  O78      1.0000 0.56019  0.06784  0.43981  Biso   1.000  O
  P16      1.0000 0.12451  0.56541  0.87549  Biso   1.000  P
  O79      1.0000 0.14631  0.64853  0.85369  Biso   1.000  O
  O80      1.0000 0.06019  0.56784  0.93981  Biso   1.000  O
  P17      1.0000 0.62451  0.37549  0.06541  Biso   1.000  P
  O81      1.0000 0.64631  0.35369  0.14853  Biso   1.000  O
  O82      1.0000 0.56019  0.43981  0.06784  Biso   1.000  O
  P18      1.0000 0.12451  0.87549  0.56541  Biso   1.000  P
  O83      1.0000 0.14631  0.85369  0.64853  Biso   1.000  O
  O84      1.0000 0.06019  0.93981  0.56784  Biso   1.000  O
  P19      1.0000 0.37549  0.37549  0.93459  Biso   1.000  P
  O85      1.0000 0.35369  0.35369  0.85147  Biso   1.000  O
  O86      1.0000 0.43981  0.43981  0.93216  Biso   1.000  O
  P20      1.0000 0.87549  0.87549  0.43459  Biso   1.000  P
  O87      1.0000 0.85369  0.85369  0.35147  Biso   1.000  O
  O88      1.0000 0.93981  0.93981  0.43216  Biso   1.000  O
  P21      1.0000 0.62451  0.62451  0.93459  Biso   1.000  P
  O89      1.0000 0.64631  0.64631  0.85147  Biso   1.000  O
  O90      1.0000 0.56019  0.56019  0.93216  Biso   1.000  O
  P22      1.0000 0.12451  0.12451  0.43459  Biso   1.000  P
  O91      1.0000 0.14631  0.14631  0.35147  Biso   1.000  O
  O92      1.0000 0.06019  0.06019  0.43216  Biso   1.000  O
  P23      1.0000 0.37549  0.62451  0.06541  Biso   1.000  P
  O93      1.0000 0.35369  0.64631  0.14853  Biso   1.000  O
  O94      1.0000 0.43981  0.56019  0.06784  Biso   1.000  O
  P24      1.0000 0.87549  0.12451  0.56541  Biso   1.000  P
  O95      1.0000 0.85369  0.14631  0.64853  Biso   1.000  O
  O96      1.0000 0.93981  0.06019  0.56784  Biso   1.000  O
