data_image0
_cell_length_a       16.944
_cell_length_b       16.944
_cell_length_c       16.944
_cell_angle_alpha    90
_cell_angle_beta     90
_cell_angle_gamma    90

_symmetry_space_group_name_H-M    "P 1"
_symmetry_int_tables_number       1

loop_
  _symmetry_equiv_pos_as_xyz
  'x, y, z'

loop_
  _atom_site_label
  _atom_site_occupancy
  _atom_site_fract_x
  _atom_site_fract_y
  _atom_site_fract_z
  _atom_site_thermal_displace_type
  _atom_site_B_iso_or_equiv
  _atom_site_type_symbol
  O1       1.0000 0.80543  0.51755  0.90550  Biso   1.000  O
  O2       1.0000 0.30543  0.01755  0.40550  Biso   1.000  O
  O3       1.0000 0.19457  0.48245  0.90550  Biso   1.000  O
  O4       1.0000 0.69457  0.98245  0.40550  Biso   1.000  O
  O5       1.0000 0.19457  0.51755  0.09450  Biso   1.000  O
  O6       1.0000 0.69457  0.01755  0.59450  Biso   1.000  O
  O7       1.0000 0.80543  0.48245  0.09450  Biso   1.000  O
  O8       1.0000 0.30543  0.98245  0.59450  Biso   1.000  O
  O9       1.0000 0.90550  0.80543  0.51755  Biso   1.000  O
  O10      1.0000 0.40550  0.30543  0.01755  Biso   1.000  O
  O11      1.0000 0.90550  0.19457  0.48245  Biso   1.000  O
  O12      1.0000 0.40550  0.69457  0.98245  Biso   1.000  O
  O13      1.0000 0.09450  0.19457  0.51755  Biso   1.000  O
  O14      1.0000 0.59450  0.69457  0.01755  Biso   1.000  O
  O15      1.0000 0.09450  0.80543  0.48245  Biso   1.000  O
  O16      1.0000 0.59450  0.30543  0.98245  Biso   1.000  O
  O17      1.0000 0.51755  0.90550  0.80543  Biso   1.000  O
  O18      1.0000 0.01755  0.40550  0.30543  Biso   1.000  O
  O19      1.0000 0.48245  0.90550  0.19457  Biso   1.000  O
  O20      1.0000 0.98245  0.40550  0.69457  Biso   1.000  O
  O21      1.0000 0.51755  0.09450  0.19457  Biso   1.000  O
  O22      1.0000 0.01755  0.59450  0.69457  Biso   1.000  O
  O23      1.0000 0.48245  0.09450  0.80543  Biso   1.000  O
  O24      1.0000 0.98245  0.59450  0.30543  Biso   1.000  O
  O25      1.0000 0.51755  0.80543  0.90550  Biso   1.000  O
  O26      1.0000 0.01755  0.30543  0.40550  Biso   1.000  O
  O27      1.0000 0.48245  0.19457  0.90550  Biso   1.000  O
  O28      1.0000 0.98245  0.69457  0.40550  Biso   1.000  O
  O29      1.0000 0.51755  0.19457  0.09450  Biso   1.000  O
  O30      1.0000 0.01755  0.69457  0.59450  Biso   1.000  O
  O31      1.0000 0.48245  0.80543  0.09450  Biso   1.000  O
  O32      1.0000 0.98245  0.30543  0.59450  Biso   1.000  O
  O33      1.0000 0.80543  0.90550  0.51755  Biso   1.000  O
  O34      1.0000 0.30543  0.40550  0.01755  Biso   1.000  O
  O35      1.0000 0.19457  0.90550  0.48245  Biso   1.000  O
  O36      1.0000 0.69457  0.40550  0.98245  Biso   1.000  O
  O37      1.0000 0.19457  0.09450  0.51755  Biso   1.000  O
  O38      1.0000 0.69457  0.59450  0.01755  Biso   1.000  O
  O39      1.0000 0.80543  0.09450  0.48245  Biso   1.000  O
  O40      1.0000 0.30543  0.59450  0.98245  Biso   1.000  O
  O41      1.0000 0.90550  0.51755  0.80543  Biso   1.000  O
  O42      1.0000 0.40550  0.01755  0.30543  Biso   1.000  O
  O43      1.0000 0.90550  0.48245  0.19457  Biso   1.000  O
  O44      1.0000 0.40550  0.98245  0.69457  Biso   1.000  O
  O45      1.0000 0.09450  0.51755  0.19457  Biso   1.000  O
  O46      1.0000 0.59450  0.01755  0.69457  Biso   1.000  O
  O47      1.0000 0.09450  0.48245  0.80543  Biso   1.000  O
  O48      1.0000 0.59450  0.98245  0.30543  Biso   1.000  O
  Ga1      1.0000 0.00000  0.50000  0.00000  Biso   1.000  Ga
  Ga2      1.0000 0.50000  0.00000  0.50000  Biso   1.000  Ga
  Ga3      1.0000 0.00000  0.00000  0.50000  Biso   1.000  Ga
  Ga4      1.0000 0.50000  0.50000  0.00000  Biso   1.000  Ga
  Ga5      1.0000 0.50000  0.00000  0.00000  Biso   1.000  Ga
  Ga6      1.0000 0.00000  0.50000  0.50000  Biso   1.000  Ga
  Mn1      1.0000 0.75000  0.50000  0.00000  Biso   1.000  Mn
  Mn2      1.0000 0.25000  0.50000  0.00000  Biso   1.000  Mn
  Mn3      1.0000 0.00000  0.75000  0.50000  Biso   1.000  Mn
  Mn4      1.0000 0.00000  0.25000  0.50000  Biso   1.000  Mn
  Mn5      1.0000 0.50000  0.00000  0.75000  Biso   1.000  Mn
  Mn6      1.0000 0.50000  0.00000  0.25000  Biso   1.000  Mn
  Mn7      1.0000 0.50000  0.75000  0.00000  Biso   1.000  Mn
  Mn8      1.0000 0.50000  0.25000  0.00000  Biso   1.000  Mn
  Mn9      1.0000 0.75000  0.00000  0.50000  Biso   1.000  Mn
  Mn10     1.0000 0.25000  0.00000  0.50000  Biso   1.000  Mn
  Mn11     1.0000 0.00000  0.50000  0.75000  Biso   1.000  Mn
  Mn12     1.0000 0.00000  0.50000  0.25000  Biso   1.000  Mn
  P1       1.0000 0.87601  0.56587  0.87601  Biso   1.000  P
  O49      1.0000 0.85450  0.64854  0.85450  Biso   1.000  O
  O50      1.0000 0.94015  0.56863  0.94015  Biso   1.000  O
  P2       1.0000 0.37601  0.06587  0.37601  Biso   1.000  P
  O51      1.0000 0.35450  0.14854  0.35450  Biso   1.000  O
  O52      1.0000 0.44015  0.06863  0.44015  Biso   1.000  O
  P3       1.0000 0.12399  0.43413  0.87601  Biso   1.000  P
  O53      1.0000 0.14550  0.35146  0.85450  Biso   1.000  O
  O54      1.0000 0.05985  0.43137  0.94015  Biso   1.000  O
  P4       1.0000 0.62399  0.93413  0.37601  Biso   1.000  P
  O55      1.0000 0.64550  0.85146  0.35450  Biso   1.000  O
  O56      1.0000 0.55985  0.93137  0.44015  Biso   1.000  O
  P5       1.0000 0.12399  0.56587  0.12399  Biso   1.000  P
  O57      1.0000 0.14550  0.64854  0.14550  Biso   1.000  O
  O58      1.0000 0.05985  0.56863  0.05985  Biso   1.000  O
  P6       1.0000 0.62399  0.06587  0.62399  Biso   1.000  P
  O59      1.0000 0.64550  0.14854  0.64550  Biso   1.000  O
  O60      1.0000 0.55985  0.06863  0.55985  Biso   1.000  O
  P7       1.0000 0.87601  0.43413  0.12399  Biso   1.000  P
  O61      1.0000 0.85450  0.35146  0.14550  Biso   1.000  O
  O62      1.0000 0.94015  0.43137  0.05985  Biso   1.000  O
  P8       1.0000 0.37601  0.93413  0.62399  Biso   1.000  P
  O63      1.0000 0.35450  0.85146  0.64550  Biso   1.000  O
  O64      1.0000 0.44015  0.93137  0.55985  Biso   1.000  O
  P9       1.0000 0.87601  0.87601  0.56587  Biso   1.000  P
  O65      1.0000 0.85450  0.85450  0.64854  Biso   1.000  O
  O66      1.0000 0.94015  0.94015  0.56863  Biso   1.000  O
  P10      1.0000 0.37601  0.37601  0.06587  Biso   1.000  P
  O67      1.0000 0.35450  0.35450  0.14854  Biso   1.000  O
  O68      1.0000 0.44015  0.44015  0.06863  Biso   1.000  O
  P11      1.0000 0.87601  0.12399  0.43413  Biso   1.000  P
  O69      1.0000 0.85450  0.14550  0.35146  Biso   1.000  O
  O70      1.0000 0.94015  0.05985  0.43137  Biso   1.000  O
  P12      1.0000 0.37601  0.62399  0.93413  Biso   1.000  P
  O71      1.0000 0.35450  0.64550  0.85146  Biso   1.000  O
  O72      1.0000 0.44015  0.55985  0.93137  Biso   1.000  O
  P13      1.0000 0.12399  0.12399  0.56587  Biso   1.000  P
  O73      1.0000 0.14550  0.14550  0.64854  Biso   1.000  O
  O74      1.0000 0.05985  0.05985  0.56863  Biso   1.000  O
  P14      1.0000 0.62399  0.62399  0.06587  Biso   1.000  P
  O75      1.0000 0.64550  0.64550  0.14854  Biso   1.000  O
  O76      1.0000 0.55985  0.55985  0.06863  Biso   1.000  O
  P15      1.0000 0.12399  0.87601  0.43413  Biso   1.000  P
  O77      1.0000 0.14550  0.85450  0.35146  Biso   1.000  O
  O78      1.0000 0.05985  0.94015  0.43137  Biso   1.000  O
  P16      1.0000 0.62399  0.37601  0.93413  Biso   1.000  P
  O79      1.0000 0.64550  0.35450  0.85146  Biso   1.000  O
  O80      1.0000 0.55985  0.44015  0.93137  Biso   1.000  O
  P17      1.0000 0.56587  0.87601  0.87601  Biso   1.000  P
  O81      1.0000 0.64854  0.85450  0.85450  Biso   1.000  O
  O82      1.0000 0.56863  0.94015  0.94015  Biso   1.000  O
  P18      1.0000 0.06587  0.37601  0.37601  Biso   1.000  P
  O83      1.0000 0.14854  0.35450  0.35450  Biso   1.000  O
  O84      1.0000 0.06863  0.44015  0.44015  Biso   1.000  O
  P19      1.0000 0.43413  0.87601  0.12399  Biso   1.000  P
  O85      1.0000 0.35146  0.85450  0.14550  Biso   1.000  O
  O86      1.0000 0.43137  0.94015  0.05985  Biso   1.000  O
  P20      1.0000 0.93413  0.37601  0.62399  Biso   1.000  P
  O87      1.0000 0.85146  0.35450  0.64550  Biso   1.000  O
  O88      1.0000 0.93137  0.44015  0.55985  Biso   1.000  O
  P21      1.0000 0.56587  0.12399  0.12399  Biso   1.000  P
  O89      1.0000 0.64854  0.14550  0.14550  Biso   1.000  O
  O90      1.0000 0.56863  0.05985  0.05985  Biso   1.000  O
  P22      1.0000 0.06587  0.62399  0.62399  Biso   1.000  P
  O91      1.0000 0.14854  0.64550  0.64550  Biso   1.000  O
  O92      1.0000 0.06863  0.55985  0.55985  Biso   1.000  O
  P23      1.0000 0.43413  0.12399  0.87601  Biso   1.000  P
  O93      1.0000 0.35146  0.14550  0.85450  Biso   1.000  O
  O94      1.0000 0.43137  0.05985  0.94015  Biso   1.000  O
  P24      1.0000 0.93413  0.62399  0.37601  Biso   1.000  P
  O95      1.0000 0.85146  0.64550  0.35450  Biso   1.000  O
  O96      1.0000 0.93137  0.55985  0.44015  Biso   1.000  O
