data_image0
_cell_length_a       16.8807
_cell_length_b       16.8807
_cell_length_c       16.8807
_cell_angle_alpha    90
_cell_angle_beta     90
_cell_angle_gamma    90

_symmetry_space_group_name_H-M    "P 1"
_symmetry_int_tables_number       1

loop_
  _symmetry_equiv_pos_as_xyz
  'x, y, z'

loop_
  _atom_site_label
  _atom_site_occupancy
  _atom_site_fract_x
  _atom_site_fract_y
  _atom_site_fract_z
  _atom_site_thermal_displace_type
  _atom_site_B_iso_or_equiv
  _atom_site_type_symbol
  O1       1.0000 0.80571  0.51454  0.90636  Biso   1.000  O
  O2       1.0000 0.30571  0.01454  0.40636  Biso   1.000  O
  O3       1.0000 0.19429  0.48546  0.90636  Biso   1.000  O
  O4       1.0000 0.69429  0.98546  0.40636  Biso   1.000  O
  O5       1.0000 0.19429  0.51454  0.09364  Biso   1.000  O
  O6       1.0000 0.69429  0.01454  0.59364  Biso   1.000  O
  O7       1.0000 0.80571  0.48546  0.09364  Biso   1.000  O
  O8       1.0000 0.30571  0.98546  0.59364  Biso   1.000  O
  O9       1.0000 0.90636  0.80571  0.51454  Biso   1.000  O
  O10      1.0000 0.40636  0.30571  0.01454  Biso   1.000  O
  O11      1.0000 0.90636  0.19429  0.48546  Biso   1.000  O
  O12      1.0000 0.40636  0.69429  0.98546  Biso   1.000  O
  O13      1.0000 0.09364  0.19429  0.51454  Biso   1.000  O
  O14      1.0000 0.59364  0.69429  0.01454  Biso   1.000  O
  O15      1.0000 0.09364  0.80571  0.48546  Biso   1.000  O
  O16      1.0000 0.59364  0.30571  0.98546  Biso   1.000  O
  O17      1.0000 0.51454  0.90636  0.80571  Biso   1.000  O
  O18      1.0000 0.01454  0.40636  0.30571  Biso   1.000  O
  O19      1.0000 0.48546  0.90636  0.19429  Biso   1.000  O
  O20      1.0000 0.98546  0.40636  0.69429  Biso   1.000  O
  O21      1.0000 0.51454  0.09364  0.19429  Biso   1.000  O
  O22      1.0000 0.01454  0.59364  0.69429  Biso   1.000  O
  O23      1.0000 0.48546  0.09364  0.80571  Biso   1.000  O
  O24      1.0000 0.98546  0.59364  0.30571  Biso   1.000  O
  O25      1.0000 0.51454  0.80571  0.90636  Biso   1.000  O
  O26      1.0000 0.01454  0.30571  0.40636  Biso   1.000  O
  O27      1.0000 0.48546  0.19429  0.90636  Biso   1.000  O
  O28      1.0000 0.98546  0.69429  0.40636  Biso   1.000  O
  O29      1.0000 0.51454  0.19429  0.09364  Biso   1.000  O
  O30      1.0000 0.01454  0.69429  0.59364  Biso   1.000  O
  O31      1.0000 0.48546  0.80571  0.09364  Biso   1.000  O
  O32      1.0000 0.98546  0.30571  0.59364  Biso   1.000  O
  O33      1.0000 0.80571  0.90636  0.51454  Biso   1.000  O
  O34      1.0000 0.30571  0.40636  0.01454  Biso   1.000  O
  O35      1.0000 0.19429  0.90636  0.48546  Biso   1.000  O
  O36      1.0000 0.69429  0.40636  0.98546  Biso   1.000  O
  O37      1.0000 0.19429  0.09364  0.51454  Biso   1.000  O
  O38      1.0000 0.69429  0.59364  0.01454  Biso   1.000  O
  O39      1.0000 0.80571  0.09364  0.48546  Biso   1.000  O
  O40      1.0000 0.30571  0.59364  0.98546  Biso   1.000  O
  O41      1.0000 0.90636  0.51454  0.80571  Biso   1.000  O
  O42      1.0000 0.40636  0.01454  0.30571  Biso   1.000  O
  O43      1.0000 0.90636  0.48546  0.19429  Biso   1.000  O
  O44      1.0000 0.40636  0.98546  0.69429  Biso   1.000  O
  O45      1.0000 0.09364  0.51454  0.19429  Biso   1.000  O
  O46      1.0000 0.59364  0.01454  0.69429  Biso   1.000  O
  O47      1.0000 0.09364  0.48546  0.80571  Biso   1.000  O
  O48      1.0000 0.59364  0.98546  0.30571  Biso   1.000  O
  Ga1      1.0000 0.00000  0.50000  0.00000  Biso   1.000  Ga
  Ga2      1.0000 0.50000  0.00000  0.50000  Biso   1.000  Ga
  Ga3      1.0000 0.00000  0.00000  0.50000  Biso   1.000  Ga
  Ga4      1.0000 0.50000  0.50000  0.00000  Biso   1.000  Ga
  Ga5      1.0000 0.50000  0.00000  0.00000  Biso   1.000  Ga
  Ga6      1.0000 0.00000  0.50000  0.50000  Biso   1.000  Ga
  Co1      1.0000 0.75000  0.50000  0.00000  Biso   1.000  Co
  Co2      1.0000 0.25000  0.50000  0.00000  Biso   1.000  Co
  Co3      1.0000 0.00000  0.75000  0.50000  Biso   1.000  Co
  Co4      1.0000 0.00000  0.25000  0.50000  Biso   1.000  Co
  Co5      1.0000 0.50000  0.00000  0.75000  Biso   1.000  Co
  Co6      1.0000 0.50000  0.00000  0.25000  Biso   1.000  Co
  Co7      1.0000 0.50000  0.75000  0.00000  Biso   1.000  Co
  Co8      1.0000 0.50000  0.25000  0.00000  Biso   1.000  Co
  Co9      1.0000 0.75000  0.00000  0.50000  Biso   1.000  Co
  Co10     1.0000 0.25000  0.00000  0.50000  Biso   1.000  Co
  Co11     1.0000 0.00000  0.50000  0.75000  Biso   1.000  Co
  Co12     1.0000 0.00000  0.50000  0.25000  Biso   1.000  Co
  P1       1.0000 0.87617  0.56411  0.87617  Biso   1.000  P
  O49      1.0000 0.85275  0.64663  0.85275  Biso   1.000  O
  O50      1.0000 0.94057  0.56861  0.94057  Biso   1.000  O
  P2       1.0000 0.37617  0.06411  0.37617  Biso   1.000  P
  O51      1.0000 0.35275  0.14663  0.35275  Biso   1.000  O
  O52      1.0000 0.44057  0.06861  0.44057  Biso   1.000  O
  P3       1.0000 0.12383  0.43589  0.87617  Biso   1.000  P
  O53      1.0000 0.14725  0.35337  0.85275  Biso   1.000  O
  O54      1.0000 0.05943  0.43139  0.94057  Biso   1.000  O
  P4       1.0000 0.62383  0.93589  0.37617  Biso   1.000  P
  O55      1.0000 0.64725  0.85337  0.35275  Biso   1.000  O
  O56      1.0000 0.55943  0.93139  0.44057  Biso   1.000  O
  P5       1.0000 0.12383  0.56411  0.12383  Biso   1.000  P
  O57      1.0000 0.14725  0.64663  0.14725  Biso   1.000  O
  O58      1.0000 0.05943  0.56861  0.05943  Biso   1.000  O
  P6       1.0000 0.62383  0.06411  0.62383  Biso   1.000  P
  O59      1.0000 0.64725  0.14663  0.64725  Biso   1.000  O
  O60      1.0000 0.55943  0.06861  0.55943  Biso   1.000  O
  P7       1.0000 0.87617  0.43589  0.12383  Biso   1.000  P
  O61      1.0000 0.85275  0.35337  0.14725  Biso   1.000  O
  O62      1.0000 0.94057  0.43139  0.05943  Biso   1.000  O
  P8       1.0000 0.37617  0.93589  0.62383  Biso   1.000  P
  O63      1.0000 0.35275  0.85337  0.64725  Biso   1.000  O
  O64      1.0000 0.44057  0.93139  0.55943  Biso   1.000  O
  P9       1.0000 0.87617  0.87617  0.56411  Biso   1.000  P
  O65      1.0000 0.85275  0.85275  0.64663  Biso   1.000  O
  O66      1.0000 0.94057  0.94057  0.56861  Biso   1.000  O
  P10      1.0000 0.37617  0.37617  0.06411  Biso   1.000  P
  O67      1.0000 0.35275  0.35275  0.14663  Biso   1.000  O
  O68      1.0000 0.44057  0.44057  0.06861  Biso   1.000  O
  P11      1.0000 0.87617  0.12383  0.43589  Biso   1.000  P
  O69      1.0000 0.85275  0.14725  0.35337  Biso   1.000  O
  O70      1.0000 0.94057  0.05943  0.43139  Biso   1.000  O
  P12      1.0000 0.37617  0.62383  0.93589  Biso   1.000  P
  O71      1.0000 0.35275  0.64725  0.85337  Biso   1.000  O
  O72      1.0000 0.44057  0.55943  0.93139  Biso   1.000  O
  P13      1.0000 0.12383  0.12383  0.56411  Biso   1.000  P
  O73      1.0000 0.14725  0.14725  0.64663  Biso   1.000  O
  O74      1.0000 0.05943  0.05943  0.56861  Biso   1.000  O
  P14      1.0000 0.62383  0.62383  0.06411  Biso   1.000  P
  O75      1.0000 0.64725  0.64725  0.14663  Biso   1.000  O
  O76      1.0000 0.55943  0.55943  0.06861  Biso   1.000  O
  P15      1.0000 0.12383  0.87617  0.43589  Biso   1.000  P
  O77      1.0000 0.14725  0.85275  0.35337  Biso   1.000  O
  O78      1.0000 0.05943  0.94057  0.43139  Biso   1.000  O
  P16      1.0000 0.62383  0.37617  0.93589  Biso   1.000  P
  O79      1.0000 0.64725  0.35275  0.85337  Biso   1.000  O
  O80      1.0000 0.55943  0.44057  0.93139  Biso   1.000  O
  P17      1.0000 0.56411  0.87617  0.87617  Biso   1.000  P
  O81      1.0000 0.64663  0.85275  0.85275  Biso   1.000  O
  O82      1.0000 0.56861  0.94057  0.94057  Biso   1.000  O
  P18      1.0000 0.06411  0.37617  0.37617  Biso   1.000  P
  O83      1.0000 0.14663  0.35275  0.35275  Biso   1.000  O
  O84      1.0000 0.06861  0.44057  0.44057  Biso   1.000  O
  P19      1.0000 0.43589  0.87617  0.12383  Biso   1.000  P
  O85      1.0000 0.35337  0.85275  0.14725  Biso   1.000  O
  O86      1.0000 0.43139  0.94057  0.05943  Biso   1.000  O
  P20      1.0000 0.93589  0.37617  0.62383  Biso   1.000  P
  O87      1.0000 0.85337  0.35275  0.64725  Biso   1.000  O
  O88      1.0000 0.93139  0.44057  0.55943  Biso   1.000  O
  P21      1.0000 0.56411  0.12383  0.12383  Biso   1.000  P
  O89      1.0000 0.64663  0.14725  0.14725  Biso   1.000  O
  O90      1.0000 0.56861  0.05943  0.05943  Biso   1.000  O
  P22      1.0000 0.06411  0.62383  0.62383  Biso   1.000  P
  O91      1.0000 0.14663  0.64725  0.64725  Biso   1.000  O
  O92      1.0000 0.06861  0.55943  0.55943  Biso   1.000  O
  P23      1.0000 0.43589  0.12383  0.87617  Biso   1.000  P
  O93      1.0000 0.35337  0.14725  0.85275  Biso   1.000  O
  O94      1.0000 0.43139  0.05943  0.94057  Biso   1.000  O
  P24      1.0000 0.93589  0.62383  0.37617  Biso   1.000  P
  O95      1.0000 0.85337  0.64725  0.35275  Biso   1.000  O
  O96      1.0000 0.93139  0.55943  0.44057  Biso   1.000  O
