data_MEFHUC_charged
_audit_creation_date              2014-07-02
_audit_creation_method            'Materials Studio'
_symmetry_space_group_name_H-M    'P1'
_symmetry_Int_Tables_number       1
_symmetry_cell_setting            triclinic
loop_
_symmetry_equiv_pos_as_xyz
  x,y,z
_cell_length_a                    22.3235
_cell_length_b                    22.3235
_cell_length_c                    22.3235
_cell_angle_alpha                 107.7420
_cell_angle_beta                  107.7420
_cell_angle_gamma                 107.7420
loop_
_atom_site_label
_atom_site_type_symbol
_atom_site_fract_x
_atom_site_fract_y
_atom_site_fract_z
_atom_site_U_iso_or_equiv
_atom_site_adp_type
_atom_site_occupancy
Zn1    Zn    0.03207   0.96751   0.54362   0.01267  Uiso   1.00
Zn2    Zn    0.12924   0.62085   0.02954   0.01267  Uiso   1.00
Zn3    Zn    0.54362   0.03207   0.96751   0.01267  Uiso   1.00
Zn4    Zn    0.02954   0.12924   0.62085   0.01267  Uiso   1.00
Zn5    Zn    0.96751   0.54362   0.03207   0.01267  Uiso   1.00
Zn6    Zn    0.62085   0.02954   0.12924   0.01267  Uiso   1.00
Zn7    Zn    0.96793   0.03249   0.45638   0.01267  Uiso   1.00
Zn8    Zn    0.87076   0.37915   0.97046   0.01267  Uiso   1.00
Zn9    Zn    0.45638   0.96793   0.03249   0.01267  Uiso   1.00
Zn10   Zn    0.97046   0.87076   0.37915   0.01267  Uiso   1.00
Zn11   Zn    0.03249   0.45638   0.96793   0.01267  Uiso   1.00
Zn12   Zn    0.37915   0.97046   0.87076   0.01267  Uiso   1.00
H1     H     0.97190   0.71880   0.37490   0.01267  Uiso   1.00
H2     H     0.75170   0.15310   0.29170   0.01267  Uiso   1.00
H3     H     0.04050   0.62610   0.87810   0.01267  Uiso   1.00
H4     H     0.97840   0.06820   0.86950   0.01267  Uiso   1.00
H5     H     0.00680   0.59960   0.62030   0.01267  Uiso   1.00
H6     H     0.00860   0.78920   0.59690   0.01267  Uiso   1.00
H7     H     0.96570   0.87740   0.77300   0.01267  Uiso   1.00
H8     H     0.97960   0.68590   0.60650   0.01267  Uiso   1.00
H9     H     0.99000   0.60130   0.71610   0.01267  Uiso   1.00
H10    H     0.94710   0.58590   0.41170   0.01267  Uiso   1.00
H11    H     0.88870   0.39290   0.53800   0.01267  Uiso   1.00
H12    H     0.95820   0.39930   0.63760   0.01267  Uiso   1.00
H13    H     0.88040   0.49580   0.41730   0.01267  Uiso   1.00
H14    H     0.18930   0.66210   0.91590   0.01267  Uiso   1.00
H15    H     0.99560   0.41000   0.74970   0.01267  Uiso   1.00
H16    H     0.75960   0.40610   0.36380   0.01267  Uiso   1.00
H17    H     0.67200   0.30270   0.25540   0.01267  Uiso   1.00
H18    H     0.30480   0.80670   0.91710   0.01267  Uiso   1.00
H19    H     0.22450   0.75790   0.87160   0.01267  Uiso   1.00
H20    H     0.27780   0.72540   0.88050   0.01267  Uiso   1.00
H21    H     0.86210   0.30470   0.42570   0.01267  Uiso   1.00
H22    H     0.00720   0.90770   0.65200   0.01267  Uiso   1.00
H23    H     0.32640   0.85820   0.02850   0.01267  Uiso   1.00
H24    H     0.31340   0.81540   0.07110   0.01267  Uiso   1.00
H25    H     0.25600   0.83610   0.03520   0.01267  Uiso   1.00
H26    H     0.37490   0.97190   0.71880   0.01267  Uiso   1.00
H27    H     0.29170   0.75170   0.15310   0.01267  Uiso   1.00
H28    H     0.87810   0.04050   0.62610   0.01267  Uiso   1.00
H29    H     0.86950   0.97840   0.06820   0.01267  Uiso   1.00
H30    H     0.62030   0.00680   0.59960   0.01267  Uiso   1.00
H31    H     0.59690   0.00860   0.78920   0.01267  Uiso   1.00
H32    H     0.77300   0.96570   0.87740   0.01267  Uiso   1.00
H33    H     0.60650   0.97960   0.68590   0.01267  Uiso   1.00
H34    H     0.71610   0.99000   0.60130   0.01267  Uiso   1.00
H35    H     0.41170   0.94710   0.58590   0.01267  Uiso   1.00
H36    H     0.53800   0.88870   0.39290   0.01267  Uiso   1.00
H37    H     0.63760   0.95820   0.39930   0.01267  Uiso   1.00
H38    H     0.41730   0.88040   0.49580   0.01267  Uiso   1.00
H39    H     0.91590   0.18930   0.66210   0.01267  Uiso   1.00
H40    H     0.74970   0.99560   0.41000   0.01267  Uiso   1.00
H41    H     0.36380   0.75960   0.40610   0.01267  Uiso   1.00
H42    H     0.25540   0.67200   0.30270   0.01267  Uiso   1.00
H43    H     0.91710   0.30480   0.80670   0.01267  Uiso   1.00
H44    H     0.87160   0.22450   0.75790   0.01267  Uiso   1.00
H45    H     0.88050   0.27780   0.72540   0.01267  Uiso   1.00
H46    H     0.42570   0.86210   0.30470   0.01267  Uiso   1.00
H47    H     0.65200   0.00720   0.90770   0.01267  Uiso   1.00
H48    H     0.02850   0.32640   0.85820   0.01267  Uiso   1.00
H49    H     0.07110   0.31340   0.81540   0.01267  Uiso   1.00
H50    H     0.03520   0.25600   0.83610   0.01267  Uiso   1.00
H51    H     0.71880   0.37490   0.97190   0.01267  Uiso   1.00
H52    H     0.15310   0.29170   0.75170   0.01267  Uiso   1.00
H53    H     0.62610   0.87810   0.04050   0.01267  Uiso   1.00
H54    H     0.06820   0.86950   0.97840   0.01267  Uiso   1.00
H55    H     0.59960   0.62030   0.00680   0.01267  Uiso   1.00
H56    H     0.78920   0.59690   0.00860   0.01267  Uiso   1.00
H57    H     0.87740   0.77300   0.96570   0.01267  Uiso   1.00
H58    H     0.68590   0.60650   0.97960   0.01267  Uiso   1.00
H59    H     0.60130   0.71610   0.99000   0.01267  Uiso   1.00
H60    H     0.58590   0.41170   0.94710   0.01267  Uiso   1.00
H61    H     0.39290   0.53800   0.88870   0.01267  Uiso   1.00
H62    H     0.39930   0.63760   0.95820   0.01267  Uiso   1.00
H63    H     0.49580   0.41730   0.88040   0.01267  Uiso   1.00
H64    H     0.66210   0.91590   0.18930   0.01267  Uiso   1.00
H65    H     0.41000   0.74970   0.99560   0.01267  Uiso   1.00
H66    H     0.40610   0.36380   0.75960   0.01267  Uiso   1.00
H67    H     0.30270   0.25540   0.67200   0.01267  Uiso   1.00
H68    H     0.80670   0.91710   0.30480   0.01267  Uiso   1.00
H69    H     0.75790   0.87160   0.22450   0.01267  Uiso   1.00
H70    H     0.72540   0.88050   0.27780   0.01267  Uiso   1.00
H71    H     0.30470   0.42570   0.86210   0.01267  Uiso   1.00
H72    H     0.90770   0.65200   0.00720   0.01267  Uiso   1.00
H73    H     0.85820   0.02850   0.32640   0.01267  Uiso   1.00
H74    H     0.81540   0.07110   0.31340   0.01267  Uiso   1.00
H75    H     0.83610   0.03520   0.25600   0.01267  Uiso   1.00
H76    H     0.02810   0.28120   0.62510   0.01267  Uiso   1.00
H77    H     0.24830   0.84690   0.70830   0.01267  Uiso   1.00
H78    H     0.95950   0.37390   0.12190   0.01267  Uiso   1.00
H79    H     0.02160   0.93180   0.13050   0.01267  Uiso   1.00
H80    H     0.99320   0.40040   0.37970   0.01267  Uiso   1.00
H81    H     0.99140   0.21080   0.40310   0.01267  Uiso   1.00
H82    H     0.03430   0.12260   0.22700   0.01267  Uiso   1.00
H83    H     0.02040   0.31410   0.39350   0.01267  Uiso   1.00
H84    H     0.01000   0.39870   0.28390   0.01267  Uiso   1.00
H85    H     0.05290   0.41410   0.58830   0.01267  Uiso   1.00
H86    H     0.11130   0.60710   0.46200   0.01267  Uiso   1.00
H87    H     0.04180   0.60070   0.36240   0.01267  Uiso   1.00
H88    H     0.11960   0.50420   0.58270   0.01267  Uiso   1.00
H89    H     0.81070   0.33790   0.08410   0.01267  Uiso   1.00
H90    H     0.00440   0.59000   0.25030   0.01267  Uiso   1.00
H91    H     0.24040   0.59390   0.63620   0.01267  Uiso   1.00
H92    H     0.32800   0.69730   0.74460   0.01267  Uiso   1.00
H93    H     0.69520   0.19330   0.08290   0.01267  Uiso   1.00
H94    H     0.77550   0.24210   0.12840   0.01267  Uiso   1.00
H95    H     0.72220   0.27460   0.11950   0.01267  Uiso   1.00
H96    H     0.13790   0.69530   0.57430   0.01267  Uiso   1.00
H97    H     0.99280   0.09230   0.34800   0.01267  Uiso   1.00
H98    H     0.67360   0.14180   0.97150   0.01267  Uiso   1.00
H99    H     0.68660   0.18460   0.92890   0.01267  Uiso   1.00
H100   H     0.74400   0.16390   0.96480   0.01267  Uiso   1.00
H101   H     0.62510   0.02810   0.28120   0.01267  Uiso   1.00
H102   H     0.70830   0.24830   0.84690   0.01267  Uiso   1.00
H103   H     0.12190   0.95950   0.37390   0.01267  Uiso   1.00
H104   H     0.13050   0.02160   0.93180   0.01267  Uiso   1.00
H105   H     0.37970   0.99320   0.40040   0.01267  Uiso   1.00
H106   H     0.40310   0.99140   0.21080   0.01267  Uiso   1.00
H107   H     0.22700   0.03430   0.12260   0.01267  Uiso   1.00
H108   H     0.39350   0.02040   0.31410   0.01267  Uiso   1.00
H109   H     0.28390   0.01000   0.39870   0.01267  Uiso   1.00
H110   H     0.58830   0.05290   0.41410   0.01267  Uiso   1.00
H111   H     0.46200   0.11130   0.60710   0.01267  Uiso   1.00
H112   H     0.36240   0.04180   0.60070   0.01267  Uiso   1.00
H113   H     0.58270   0.11960   0.50420   0.01267  Uiso   1.00
H114   H     0.08410   0.81070   0.33790   0.01267  Uiso   1.00
H115   H     0.25030   0.00440   0.59000   0.01267  Uiso   1.00
H116   H     0.63620   0.24040   0.59390   0.01267  Uiso   1.00
H117   H     0.74460   0.32800   0.69730   0.01267  Uiso   1.00
H118   H     0.08290   0.69520   0.19330   0.01267  Uiso   1.00
H119   H     0.12840   0.77550   0.24210   0.01267  Uiso   1.00
H120   H     0.11950   0.72220   0.27460   0.01267  Uiso   1.00
H121   H     0.57430   0.13790   0.69530   0.01267  Uiso   1.00
H122   H     0.34800   0.99280   0.09230   0.01267  Uiso   1.00
H123   H     0.97150   0.67360   0.14180   0.01267  Uiso   1.00
H124   H     0.92890   0.68660   0.18460   0.01267  Uiso   1.00
H125   H     0.96480   0.74400   0.16390   0.01267  Uiso   1.00
H126   H     0.28120   0.62510   0.02810   0.01267  Uiso   1.00
H127   H     0.84690   0.70830   0.24830   0.01267  Uiso   1.00
H128   H     0.37390   0.12190   0.95950   0.01267  Uiso   1.00
H129   H     0.93180   0.13050   0.02160   0.01267  Uiso   1.00
H130   H     0.40040   0.37970   0.99320   0.01267  Uiso   1.00
H131   H     0.21080   0.40310   0.99140   0.01267  Uiso   1.00
H132   H     0.12260   0.22700   0.03430   0.01267  Uiso   1.00
H133   H     0.31410   0.39350   0.02040   0.01267  Uiso   1.00
H134   H     0.39870   0.28390   0.01000   0.01267  Uiso   1.00
H135   H     0.41410   0.58830   0.05290   0.01267  Uiso   1.00
H136   H     0.60710   0.46200   0.11130   0.01267  Uiso   1.00
H137   H     0.60070   0.36240   0.04180   0.01267  Uiso   1.00
H138   H     0.50420   0.58270   0.11960   0.01267  Uiso   1.00
H139   H     0.33790   0.08410   0.81070   0.01267  Uiso   1.00
H140   H     0.59000   0.25030   0.00440   0.01267  Uiso   1.00
H141   H     0.59390   0.63620   0.24040   0.01267  Uiso   1.00
H142   H     0.69730   0.74460   0.32800   0.01267  Uiso   1.00
H143   H     0.19330   0.08290   0.69520   0.01267  Uiso   1.00
H144   H     0.24210   0.12840   0.77550   0.01267  Uiso   1.00
H145   H     0.27460   0.11950   0.72220   0.01267  Uiso   1.00
H146   H     0.69530   0.57430   0.13790   0.01267  Uiso   1.00
H147   H     0.09230   0.34800   0.99280   0.01267  Uiso   1.00
H148   H     0.14180   0.97150   0.67360   0.01267  Uiso   1.00
H149   H     0.18460   0.92890   0.68660   0.01267  Uiso   1.00
H150   H     0.16390   0.96480   0.74400   0.01267  Uiso   1.00
C1     C     0.98180   0.03570   0.83440   0.01267  Uiso   1.00
C2     C     0.00490   0.00710   0.73340   0.01267  Uiso   1.00
C3     C     0.99230   0.94070   0.72960   0.01267  Uiso   1.00
C4     C     0.97130   0.55810   0.58270   0.01267  Uiso   1.00
C5     C     0.98870   0.74880   0.49400   0.01267  Uiso   1.00
C6     C     0.02200   0.02660   0.68090   0.01267  Uiso   1.00
C7     C     0.99970   0.05420   0.78630   0.01267  Uiso   1.00
C8     C     0.99430   0.74780   0.55840   0.01267  Uiso   1.00
C9     C     0.01200   0.56550   0.78690   0.01267  Uiso   1.00
C10    C     0.94650   0.94730   0.87920   0.01267  Uiso   1.00
C11    C     0.96890   0.96950   0.83100   0.01267  Uiso   1.00
C12    C     0.97440   0.92220   0.77680   0.01267  Uiso   1.00
C13    C     0.03210   0.51260   0.87070   0.01267  Uiso   1.00
C14    C     0.90300   0.96980   0.90260   0.01267  Uiso   1.00
C15    C     0.99720   0.81250   0.48480   0.01267  Uiso   1.00
C16    C     0.97870   0.68600   0.56470   0.01267  Uiso   1.00
C17    C     0.01130   0.50690   0.79790   0.01267  Uiso   1.00
C18    C     0.97200   0.68650   0.44070   0.01267  Uiso   1.00
C19    C     0.87420   0.43250   0.46640   0.01267  Uiso   1.00
C20    C     0.99050   0.56190   0.72170   0.01267  Uiso   1.00
C21    C     0.96920   0.50120   0.66330   0.01267  Uiso   1.00
C22    C     0.96200   0.62520   0.51080   0.01267  Uiso   1.00
C23    C     0.94740   0.49670   0.59270   0.01267  Uiso   1.00
C24    C     0.94200   0.55680   0.51700   0.01267  Uiso   1.00
C25    C     0.95880   0.62700   0.44920   0.01267  Uiso   1.00
C26    C     0.90160   0.43450   0.53360   0.01267  Uiso   1.00
C27    C     0.97130   0.44130   0.67490   0.01267  Uiso   1.00
C28    C     0.89710   0.49620   0.46110   0.01267  Uiso   1.00
C29    C     0.21280   0.70140   0.95870   0.01267  Uiso   1.00
C30    C     0.66310   0.17660   0.21880   0.01267  Uiso   1.00
C31    C     0.99320   0.44810   0.74220   0.01267  Uiso   1.00
C32    C     0.77170   0.24190   0.32960   0.01267  Uiso   1.00
C33    C     0.71800   0.24520   0.28490   0.01267  Uiso   1.00
C34    C     0.76310   0.36410   0.35550   0.01267  Uiso   1.00
C35    C     0.70810   0.30190   0.28910   0.01267  Uiso   1.00
C36    C     0.26760   0.76230   0.90330   0.01267  Uiso   1.00
C37    C     0.82440   0.30510   0.39340   0.01267  Uiso   1.00
C38    C     0.81540   0.36550   0.40320   0.01267  Uiso   1.00
C39    C     0.29180   0.82220   0.03100   0.01267  Uiso   1.00
C40    C     0.83440   0.98180   0.03570   0.01267  Uiso   1.00
C41    C     0.73340   0.00490   0.00710   0.01267  Uiso   1.00
C42    C     0.72960   0.99230   0.94070   0.01267  Uiso   1.00
C43    C     0.58270   0.97130   0.55810   0.01267  Uiso   1.00
C44    C     0.49400   0.98870   0.74880   0.01267  Uiso   1.00
C45    C     0.68090   0.02200   0.02660   0.01267  Uiso   1.00
C46    C     0.78630   0.99970   0.05420   0.01267  Uiso   1.00
C47    C     0.55840   0.99430   0.74780   0.01267  Uiso   1.00
C48    C     0.78690   0.01200   0.56550   0.01267  Uiso   1.00
C49    C     0.87920   0.94650   0.94730   0.01267  Uiso   1.00
C50    C     0.83100   0.96890   0.96950   0.01267  Uiso   1.00
C51    C     0.77680   0.97440   0.92220   0.01267  Uiso   1.00
C52    C     0.87070   0.03210   0.51260   0.01267  Uiso   1.00
C53    C     0.90260   0.90300   0.96980   0.01267  Uiso   1.00
C54    C     0.48480   0.99720   0.81250   0.01267  Uiso   1.00
C55    C     0.56470   0.97870   0.68600   0.01267  Uiso   1.00
C56    C     0.79790   0.01130   0.50690   0.01267  Uiso   1.00
C57    C     0.44070   0.97200   0.68650   0.01267  Uiso   1.00
C58    C     0.46640   0.87420   0.43250   0.01267  Uiso   1.00
C59    C     0.72170   0.99050   0.56190   0.01267  Uiso   1.00
C60    C     0.66330   0.96920   0.50120   0.01267  Uiso   1.00
C61    C     0.51080   0.96200   0.62520   0.01267  Uiso   1.00
C62    C     0.59270   0.94740   0.49670   0.01267  Uiso   1.00
C63    C     0.51700   0.94200   0.55680   0.01267  Uiso   1.00
C64    C     0.44920   0.95880   0.62700   0.01267  Uiso   1.00
C65    C     0.53360   0.90160   0.43450   0.01267  Uiso   1.00
C66    C     0.67490   0.97130   0.44130   0.01267  Uiso   1.00
C67    C     0.46110   0.89710   0.49620   0.01267  Uiso   1.00
C68    C     0.95870   0.21280   0.70140   0.01267  Uiso   1.00
C69    C     0.21880   0.66310   0.17660   0.01267  Uiso   1.00
C70    C     0.74220   0.99320   0.44810   0.01267  Uiso   1.00
C71    C     0.32960   0.77170   0.24190   0.01267  Uiso   1.00
C72    C     0.28490   0.71800   0.24520   0.01267  Uiso   1.00
C73    C     0.35550   0.76310   0.36410   0.01267  Uiso   1.00
C74    C     0.28910   0.70810   0.30190   0.01267  Uiso   1.00
C75    C     0.90330   0.26760   0.76230   0.01267  Uiso   1.00
C76    C     0.39340   0.82440   0.30510   0.01267  Uiso   1.00
C77    C     0.40320   0.81540   0.36550   0.01267  Uiso   1.00
C78    C     0.03100   0.29180   0.82220   0.01267  Uiso   1.00
C79    C     0.03570   0.83440   0.98180   0.01267  Uiso   1.00
C80    C     0.00710   0.73340   0.00490   0.01267  Uiso   1.00
C81    C     0.94070   0.72960   0.99230   0.01267  Uiso   1.00
C82    C     0.55810   0.58270   0.97130   0.01267  Uiso   1.00
C83    C     0.74880   0.49400   0.98870   0.01267  Uiso   1.00
C84    C     0.02660   0.68090   0.02200   0.01267  Uiso   1.00
C85    C     0.05420   0.78630   0.99970   0.01267  Uiso   1.00
C86    C     0.74780   0.55840   0.99430   0.01267  Uiso   1.00
C87    C     0.56550   0.78690   0.01200   0.01267  Uiso   1.00
C88    C     0.94730   0.87920   0.94650   0.01267  Uiso   1.00
C89    C     0.96950   0.83100   0.96890   0.01267  Uiso   1.00
C90    C     0.92220   0.77680   0.97440   0.01267  Uiso   1.00
C91    C     0.51260   0.87070   0.03210   0.01267  Uiso   1.00
C92    C     0.96980   0.90260   0.90300   0.01267  Uiso   1.00
C93    C     0.81250   0.48480   0.99720   0.01267  Uiso   1.00
C94    C     0.68600   0.56470   0.97870   0.01267  Uiso   1.00
C95    C     0.50690   0.79790   0.01130   0.01267  Uiso   1.00
C96    C     0.68650   0.44070   0.97200   0.01267  Uiso   1.00
C97    C     0.43250   0.46640   0.87420   0.01267  Uiso   1.00
C98    C     0.56190   0.72170   0.99050   0.01267  Uiso   1.00
C99    C     0.50120   0.66330   0.96920   0.01267  Uiso   1.00
C100   C     0.62520   0.51080   0.96200   0.01267  Uiso   1.00
C101   C     0.49670   0.59270   0.94740   0.01267  Uiso   1.00
C102   C     0.55680   0.51700   0.94200   0.01267  Uiso   1.00
C103   C     0.62700   0.44920   0.95880   0.01267  Uiso   1.00
C104   C     0.43450   0.53360   0.90160   0.01267  Uiso   1.00
C105   C     0.44130   0.67490   0.97130   0.01267  Uiso   1.00
C106   C     0.49620   0.46110   0.89710   0.01267  Uiso   1.00
C107   C     0.70140   0.95870   0.21280   0.01267  Uiso   1.00
C108   C     0.17660   0.21880   0.66310   0.01267  Uiso   1.00
C109   C     0.44810   0.74220   0.99320   0.01267  Uiso   1.00
C110   C     0.24190   0.32960   0.77170   0.01267  Uiso   1.00
C111   C     0.24520   0.28490   0.71800   0.01267  Uiso   1.00
C112   C     0.36410   0.35550   0.76310   0.01267  Uiso   1.00
C113   C     0.30190   0.28910   0.70810   0.01267  Uiso   1.00
C114   C     0.76230   0.90330   0.26760   0.01267  Uiso   1.00
C115   C     0.30510   0.39340   0.82440   0.01267  Uiso   1.00
C116   C     0.36550   0.40320   0.81540   0.01267  Uiso   1.00
C117   C     0.82220   0.03100   0.29180   0.01267  Uiso   1.00
C118   C     0.01820   0.96430   0.16560   0.01267  Uiso   1.00
C119   C     0.99510   0.99290   0.26660   0.01267  Uiso   1.00
C120   C     0.00770   0.05930   0.27040   0.01267  Uiso   1.00
C121   C     0.02870   0.44190   0.41730   0.01267  Uiso   1.00
C122   C     0.01130   0.25120   0.50600   0.01267  Uiso   1.00
C123   C     0.97800   0.97340   0.31910   0.01267  Uiso   1.00
C124   C     0.00030   0.94580   0.21370   0.01267  Uiso   1.00
C125   C     0.00570   0.25220   0.44160   0.01267  Uiso   1.00
C126   C     0.98800   0.43450   0.21310   0.01267  Uiso   1.00
C127   C     0.05350   0.05270   0.12080   0.01267  Uiso   1.00
C128   C     0.03110   0.03050   0.16900   0.01267  Uiso   1.00
C129   C     0.02560   0.07780   0.22320   0.01267  Uiso   1.00
C130   C     0.96790   0.48740   0.12930   0.01267  Uiso   1.00
C131   C     0.09700   0.03020   0.09740   0.01267  Uiso   1.00
C132   C     0.00280   0.18750   0.51520   0.01267  Uiso   1.00
C133   C     0.02130   0.31400   0.43530   0.01267  Uiso   1.00
C134   C     0.98870   0.49310   0.20210   0.01267  Uiso   1.00
C135   C     0.02800   0.31350   0.55930   0.01267  Uiso   1.00
C136   C     0.12580   0.56750   0.53360   0.01267  Uiso   1.00
C137   C     0.00950   0.43810   0.27830   0.01267  Uiso   1.00
C138   C     0.03080   0.49880   0.33670   0.01267  Uiso   1.00
C139   C     0.03800   0.37480   0.48920   0.01267  Uiso   1.00
C140   C     0.05260   0.50330   0.40730   0.01267  Uiso   1.00
C141   C     0.05800   0.44320   0.48300   0.01267  Uiso   1.00
C142   C     0.04120   0.37300   0.55080   0.01267  Uiso   1.00
C143   C     0.09840   0.56550   0.46640   0.01267  Uiso   1.00
C144   C     0.02870   0.55870   0.32510   0.01267  Uiso   1.00
C145   C     0.10290   0.50380   0.53890   0.01267  Uiso   1.00
C146   C     0.78720   0.29860   0.04130   0.01267  Uiso   1.00
C147   C     0.33690   0.82340   0.78120   0.01267  Uiso   1.00
C148   C     0.00680   0.55190   0.25780   0.01267  Uiso   1.00
C149   C     0.22830   0.75810   0.67040   0.01267  Uiso   1.00
C150   C     0.28200   0.75480   0.71510   0.01267  Uiso   1.00
C151   C     0.23690   0.63590   0.64450   0.01267  Uiso   1.00
C152   C     0.29190   0.69810   0.71090   0.01267  Uiso   1.00
C153   C     0.73240   0.23770   0.09670   0.01267  Uiso   1.00
C154   C     0.17560   0.69490   0.60660   0.01267  Uiso   1.00
C155   C     0.18460   0.63450   0.59680   0.01267  Uiso   1.00
C156   C     0.70820   0.17780   0.96900   0.01267  Uiso   1.00
C157   C     0.16560   0.01820   0.96430   0.01267  Uiso   1.00
C158   C     0.26660   0.99510   0.99290   0.01267  Uiso   1.00
C159   C     0.27040   0.00770   0.05930   0.01267  Uiso   1.00
C160   C     0.41730   0.02870   0.44190   0.01267  Uiso   1.00
C161   C     0.50600   0.01130   0.25120   0.01267  Uiso   1.00
C162   C     0.31910   0.97800   0.97340   0.01267  Uiso   1.00
C163   C     0.21370   0.00030   0.94580   0.01267  Uiso   1.00
C164   C     0.44160   0.00570   0.25220   0.01267  Uiso   1.00
C165   C     0.21310   0.98800   0.43450   0.01267  Uiso   1.00
C166   C     0.12080   0.05350   0.05270   0.01267  Uiso   1.00
C167   C     0.16900   0.03110   0.03050   0.01267  Uiso   1.00
C168   C     0.22320   0.02560   0.07780   0.01267  Uiso   1.00
C169   C     0.12930   0.96790   0.48740   0.01267  Uiso   1.00
C170   C     0.09740   0.09700   0.03020   0.01267  Uiso   1.00
C171   C     0.51520   0.00280   0.18750   0.01267  Uiso   1.00
C172   C     0.43530   0.02130   0.31400   0.01267  Uiso   1.00
C173   C     0.20210   0.98870   0.49310   0.01267  Uiso   1.00
C174   C     0.55930   0.02800   0.31350   0.01267  Uiso   1.00
C175   C     0.53360   0.12580   0.56750   0.01267  Uiso   1.00
C176   C     0.27830   0.00950   0.43810   0.01267  Uiso   1.00
C177   C     0.33670   0.03080   0.49880   0.01267  Uiso   1.00
C178   C     0.48920   0.03800   0.37480   0.01267  Uiso   1.00
C179   C     0.40730   0.05260   0.50330   0.01267  Uiso   1.00
C180   C     0.48300   0.05800   0.44320   0.01267  Uiso   1.00
C181   C     0.55080   0.04120   0.37300   0.01267  Uiso   1.00
C182   C     0.46640   0.09840   0.56550   0.01267  Uiso   1.00
C183   C     0.32510   0.02870   0.55870   0.01267  Uiso   1.00
C184   C     0.53890   0.10290   0.50380   0.01267  Uiso   1.00
C185   C     0.04130   0.78720   0.29860   0.01267  Uiso   1.00
C186   C     0.78120   0.33690   0.82340   0.01267  Uiso   1.00
C187   C     0.25780   0.00680   0.55190   0.01267  Uiso   1.00
C188   C     0.67040   0.22830   0.75810   0.01267  Uiso   1.00
C189   C     0.71510   0.28200   0.75480   0.01267  Uiso   1.00
C190   C     0.64450   0.23690   0.63590   0.01267  Uiso   1.00
C191   C     0.71090   0.29190   0.69810   0.01267  Uiso   1.00
C192   C     0.09670   0.73240   0.23770   0.01267  Uiso   1.00
C193   C     0.60660   0.17560   0.69490   0.01267  Uiso   1.00
C194   C     0.59680   0.18460   0.63450   0.01267  Uiso   1.00
C195   C     0.96900   0.70820   0.17780   0.01267  Uiso   1.00
C196   C     0.96430   0.16560   0.01820   0.01267  Uiso   1.00
C197   C     0.99290   0.26660   0.99510   0.01267  Uiso   1.00
C198   C     0.05930   0.27040   0.00770   0.01267  Uiso   1.00
C199   C     0.44190   0.41730   0.02870   0.01267  Uiso   1.00
C200   C     0.25120   0.50600   0.01130   0.01267  Uiso   1.00
C201   C     0.97340   0.31910   0.97800   0.01267  Uiso   1.00
C202   C     0.94580   0.21370   0.00030   0.01267  Uiso   1.00
C203   C     0.25220   0.44160   0.00570   0.01267  Uiso   1.00
C204   C     0.43450   0.21310   0.98800   0.01267  Uiso   1.00
C205   C     0.05270   0.12080   0.05350   0.01267  Uiso   1.00
C206   C     0.03050   0.16900   0.03110   0.01267  Uiso   1.00
C207   C     0.07780   0.22320   0.02560   0.01267  Uiso   1.00
C208   C     0.48740   0.12930   0.96790   0.01267  Uiso   1.00
C209   C     0.03020   0.09740   0.09700   0.01267  Uiso   1.00
C210   C     0.18750   0.51520   0.00280   0.01267  Uiso   1.00
C211   C     0.31400   0.43530   0.02130   0.01267  Uiso   1.00
C212   C     0.49310   0.20210   0.98870   0.01267  Uiso   1.00
C213   C     0.31350   0.55930   0.02800   0.01267  Uiso   1.00
C214   C     0.56750   0.53360   0.12580   0.01267  Uiso   1.00
C215   C     0.43810   0.27830   0.00950   0.01267  Uiso   1.00
C216   C     0.49880   0.33670   0.03080   0.01267  Uiso   1.00
C217   C     0.37480   0.48920   0.03800   0.01267  Uiso   1.00
C218   C     0.50330   0.40730   0.05260   0.01267  Uiso   1.00
C219   C     0.44320   0.48300   0.05800   0.01267  Uiso   1.00
C220   C     0.37300   0.55080   0.04120   0.01267  Uiso   1.00
C221   C     0.56550   0.46640   0.09840   0.01267  Uiso   1.00
C222   C     0.55870   0.32510   0.02870   0.01267  Uiso   1.00
C223   C     0.50380   0.53890   0.10290   0.01267  Uiso   1.00
C224   C     0.29860   0.04130   0.78720   0.01267  Uiso   1.00
C225   C     0.82340   0.78120   0.33690   0.01267  Uiso   1.00
C226   C     0.55190   0.25780   0.00680   0.01267  Uiso   1.00
C227   C     0.75810   0.67040   0.22830   0.01267  Uiso   1.00
C228   C     0.75480   0.71510   0.28200   0.01267  Uiso   1.00
C229   C     0.63590   0.64450   0.23690   0.01267  Uiso   1.00
C230   C     0.69810   0.71090   0.29190   0.01267  Uiso   1.00
C231   C     0.23770   0.09670   0.73240   0.01267  Uiso   1.00
C232   C     0.69490   0.60660   0.17560   0.01267  Uiso   1.00
C233   C     0.63450   0.59680   0.18460   0.01267  Uiso   1.00
C234   C     0.17780   0.96900   0.70820   0.01267  Uiso   1.00
N1     N     0.26090   0.75760   0.96810   0.01267  Uiso   1.00
N2     N     0.96810   0.26090   0.75760   0.01267  Uiso   1.00
N3     N     0.75760   0.96810   0.26090   0.01267  Uiso   1.00
N4     N     0.73910   0.24240   0.03190   0.01267  Uiso   1.00
N5     N     0.03190   0.73910   0.24240   0.01267  Uiso   1.00
N6     N     0.24240   0.03190   0.73910   0.01267  Uiso   1.00
O1     O     0.05280   0.56990   0.92020   0.01267  Uiso   1.00
O2     O     0.02047   0.98061   0.63032   0.01267  Uiso   1.00
O3     O     0.00530   0.86500   0.53460   0.01267  Uiso   1.00
O4     O     0.95143   0.93465   0.45072   0.01267  Uiso   1.00
O5     O     0.99760   0.81230   0.42790   0.01267  Uiso   1.00
O6     O     0.03950   0.08945   0.69115   0.01267  Uiso   1.00
O7     O     0.02440   0.45650   0.87630   0.01267  Uiso   1.00
O8     O     0.67830   0.12980   0.20570   0.01267  Uiso   1.00
O9     O     0.19770   0.70050   0.00980   0.01267  Uiso   1.00
O10    O     0.60820   0.17550   0.17850   0.01267  Uiso   1.00
O11    O     0.96410   0.68040   0.37520   0.01267  Uiso   1.00
O12    O     0.78290   0.18790   0.32710   0.01267  Uiso   1.00
O13    O     0.02720   0.62830   0.84060   0.01267  Uiso   1.00
O14    O     0.99520   0.89060   0.67660   0.01267  Uiso   1.00
O15    O     0.92020   0.05280   0.56990   0.01267  Uiso   1.00
O16    O     0.63032   0.02047   0.98061   0.01267  Uiso   1.00
O17    O     0.53460   0.00530   0.86500   0.01267  Uiso   1.00
O18    O     0.45072   0.95143   0.93465   0.01267  Uiso   1.00
O19    O     0.42790   0.99760   0.81230   0.01267  Uiso   1.00
O20    O     0.69115   0.03950   0.08945   0.01267  Uiso   1.00
O21    O     0.87630   0.02440   0.45650   0.01267  Uiso   1.00
O22    O     0.20570   0.67830   0.12980   0.01267  Uiso   1.00
O23    O     0.00980   0.19770   0.70050   0.01267  Uiso   1.00
O24    O     0.17850   0.60820   0.17550   0.01267  Uiso   1.00
O25    O     0.37520   0.96410   0.68040   0.01267  Uiso   1.00
O26    O     0.32710   0.78290   0.18790   0.01267  Uiso   1.00
O27    O     0.84060   0.02720   0.62830   0.01267  Uiso   1.00
O28    O     0.67660   0.99520   0.89060   0.01267  Uiso   1.00
O29    O     0.56990   0.92020   0.05280   0.01267  Uiso   1.00
O30    O     0.98061   0.63032   0.02047   0.01267  Uiso   1.00
O31    O     0.86500   0.53460   0.00530   0.01267  Uiso   1.00
O32    O     0.93465   0.45072   0.95143   0.01267  Uiso   1.00
O33    O     0.81230   0.42790   0.99760   0.01267  Uiso   1.00
O34    O     0.08945   0.69115   0.03950   0.01267  Uiso   1.00
O35    O     0.45650   0.87630   0.02440   0.01267  Uiso   1.00
O36    O     0.12980   0.20570   0.67830   0.01267  Uiso   1.00
O37    O     0.70050   0.00980   0.19770   0.01267  Uiso   1.00
O38    O     0.17550   0.17850   0.60820   0.01267  Uiso   1.00
O39    O     0.68040   0.37520   0.96410   0.01267  Uiso   1.00
O40    O     0.18790   0.32710   0.78290   0.01267  Uiso   1.00
O41    O     0.62830   0.84060   0.02720   0.01267  Uiso   1.00
O42    O     0.89060   0.67660   0.99520   0.01267  Uiso   1.00
O43    O     0.94720   0.43010   0.07980   0.01267  Uiso   1.00
O44    O     0.97953   0.01939   0.36968   0.01267  Uiso   1.00
O45    O     0.99470   0.13500   0.46540   0.01267  Uiso   1.00
O46    O     0.04857   0.06535   0.54928   0.01267  Uiso   1.00
O47    O     0.00240   0.18770   0.57210   0.01267  Uiso   1.00
O48    O     0.96050   0.91055   0.30885   0.01267  Uiso   1.00
O49    O     0.97560   0.54350   0.12370   0.01267  Uiso   1.00
O50    O     0.32170   0.87020   0.79430   0.01267  Uiso   1.00
O51    O     0.80230   0.29950   0.99020   0.01267  Uiso   1.00
O52    O     0.39180   0.82450   0.82150   0.01267  Uiso   1.00
O53    O     0.03590   0.31960   0.62480   0.01267  Uiso   1.00
O54    O     0.21710   0.81210   0.67290   0.01267  Uiso   1.00
O55    O     0.97280   0.37170   0.15940   0.01267  Uiso   1.00
O56    O     0.00480   0.10940   0.32340   0.01267  Uiso   1.00
O57    O     0.07980   0.94720   0.43010   0.01267  Uiso   1.00
O58    O     0.36968   0.97953   0.01939   0.01267  Uiso   1.00
O59    O     0.46540   0.99470   0.13500   0.01267  Uiso   1.00
O60    O     0.54928   0.04857   0.06535   0.01267  Uiso   1.00
O61    O     0.57210   0.00240   0.18770   0.01267  Uiso   1.00
O62    O     0.30885   0.96050   0.91055   0.01267  Uiso   1.00
O63    O     0.12370   0.97560   0.54350   0.01267  Uiso   1.00
O64    O     0.79430   0.32170   0.87020   0.01267  Uiso   1.00
O65    O     0.99020   0.80230   0.29950   0.01267  Uiso   1.00
O66    O     0.82150   0.39180   0.82450   0.01267  Uiso   1.00
O67    O     0.62480   0.03590   0.31960   0.01267  Uiso   1.00
O68    O     0.67290   0.21710   0.81210   0.01267  Uiso   1.00
O69    O     0.15940   0.97280   0.37170   0.01267  Uiso   1.00
O70    O     0.32340   0.00480   0.10940   0.01267  Uiso   1.00
O71    O     0.43010   0.07980   0.94720   0.01267  Uiso   1.00
O72    O     0.01939   0.36968   0.97953   0.01267  Uiso   1.00
O73    O     0.13500   0.46540   0.99470   0.01267  Uiso   1.00
O74    O     0.06535   0.54928   0.04857   0.01267  Uiso   1.00
O75    O     0.18770   0.57210   0.00240   0.01267  Uiso   1.00
O76    O     0.91055   0.30885   0.96050   0.01267  Uiso   1.00
O77    O     0.54350   0.12370   0.97560   0.01267  Uiso   1.00
O78    O     0.87020   0.79430   0.32170   0.01267  Uiso   1.00
O79    O     0.29950   0.99020   0.80230   0.01267  Uiso   1.00
O80    O     0.82450   0.82150   0.39180   0.01267  Uiso   1.00
O81    O     0.31960   0.62480   0.03590   0.01267  Uiso   1.00
O82    O     0.81210   0.67290   0.21710   0.01267  Uiso   1.00
O83    O     0.37170   0.15940   0.97280   0.01267  Uiso   1.00
O84    O     0.10940   0.32340   0.00480   0.01267  Uiso   1.00
