data_image0
_cell_length_a       23.3024
_cell_length_b       23.3024
_cell_length_c       23.3024
_cell_angle_alpha    90
_cell_angle_beta     90
_cell_angle_gamma    90

_symmetry_space_group_name_H-M    "P 1"
_symmetry_int_tables_number       1

loop_
  _symmetry_equiv_pos_as_xyz
  'x, y, z'

loop_
  _atom_site_label
  _atom_site_occupancy
  _atom_site_fract_x
  _atom_site_fract_y
  _atom_site_fract_z
  _atom_site_thermal_displace_type
  _atom_site_B_iso_or_equiv
  _atom_site_type_symbol
  Zn1      1.0000 0.17884  0.70760  0.76299  Biso   1.000  Zn
  O1       1.0000 0.05440  0.56410  0.95340  Biso   1.000  O
  O2       1.0000 0.06490  0.55790  0.04790  Biso   1.000  O
  O3       1.0000 0.16900  0.69560  0.84450  Biso   1.000  O
  O4       1.0000 0.24290  0.74200  0.88520  Biso   1.000  O
  O5       1.0000 0.26250  0.73350  0.09860  Biso   1.000  O
  O6       1.0000 0.21310  0.66790  0.14380  Biso   1.000  O
  C1       1.0000 0.12220  0.62290  0.99850  Biso   1.000  C
  C2       1.0000 0.13720  0.64770  0.94680  Biso   1.000  C
  H1       1.0000 0.11820  0.63710  0.91330  Biso   1.000  H
  C3       1.0000 0.18100  0.68870  0.94490  Biso   1.000  C
  C4       1.0000 0.20800  0.70690  0.99240  Biso   1.000  C
  H2       1.0000 0.23520  0.73610  0.99060  Biso   1.000  H
  C5       1.0000 0.19390  0.68030  0.04610  Biso   1.000  C
  C6       1.0000 0.15040  0.63990  0.04890  Biso   1.000  C
  H3       1.0000 0.13990  0.62420  0.08410  Biso   1.000  H
  C7       1.0000 0.07630  0.57820  0.00190  Biso   1.000  C
  C8       1.0000 0.19810  0.71060  0.88470  Biso   1.000  C
  C9       1.0000 0.22490  0.69850  0.10010  Biso   1.000  C
  Zn2      1.0000 0.67884  0.20760  0.26299  Biso   1.000  Zn
  O7       1.0000 0.55440  0.06410  0.45340  Biso   1.000  O
  O8       1.0000 0.56490  0.05790  0.54790  Biso   1.000  O
  O9       1.0000 0.66900  0.19560  0.34450  Biso   1.000  O
  O10      1.0000 0.74290  0.24200  0.38520  Biso   1.000  O
  O11      1.0000 0.76250  0.23350  0.59860  Biso   1.000  O
  O12      1.0000 0.71310  0.16790  0.64380  Biso   1.000  O
  C10      1.0000 0.62220  0.12290  0.49850  Biso   1.000  C
  C11      1.0000 0.63720  0.14770  0.44680  Biso   1.000  C
  H4       1.0000 0.61820  0.13710  0.41330  Biso   1.000  H
  C12      1.0000 0.68100  0.18870  0.44490  Biso   1.000  C
  C13      1.0000 0.70800  0.20690  0.49240  Biso   1.000  C
  H5       1.0000 0.73520  0.23610  0.49060  Biso   1.000  H
  C14      1.0000 0.69390  0.18030  0.54610  Biso   1.000  C
  C15      1.0000 0.65040  0.13990  0.54890  Biso   1.000  C
  H6       1.0000 0.63990  0.12420  0.58410  Biso   1.000  H
  C16      1.0000 0.57630  0.07820  0.50190  Biso   1.000  C
  C17      1.0000 0.69810  0.21060  0.38470  Biso   1.000  C
  C18      1.0000 0.72490  0.19850  0.60010  Biso   1.000  C
  Zn3      1.0000 0.82116  0.29240  0.76299  Biso   1.000  Zn
  O13      1.0000 0.94560  0.43590  0.95340  Biso   1.000  O
  O14      1.0000 0.93510  0.44210  0.04790  Biso   1.000  O
  O15      1.0000 0.83100  0.30440  0.84450  Biso   1.000  O
  O16      1.0000 0.75710  0.25800  0.88520  Biso   1.000  O
  O17      1.0000 0.73750  0.26650  0.09860  Biso   1.000  O
  O18      1.0000 0.78690  0.33210  0.14380  Biso   1.000  O
  C19      1.0000 0.87780  0.37710  0.99850  Biso   1.000  C
  C20      1.0000 0.86280  0.35230  0.94680  Biso   1.000  C
  H7       1.0000 0.88180  0.36290  0.91330  Biso   1.000  H
  C21      1.0000 0.81900  0.31130  0.94490  Biso   1.000  C
  C22      1.0000 0.79200  0.29310  0.99240  Biso   1.000  C
  H8       1.0000 0.76480  0.26390  0.99060  Biso   1.000  H
  C23      1.0000 0.80610  0.31970  0.04610  Biso   1.000  C
  C24      1.0000 0.84960  0.36010  0.04890  Biso   1.000  C
  H9       1.0000 0.86010  0.37580  0.08410  Biso   1.000  H
  C25      1.0000 0.92370  0.42180  0.00190  Biso   1.000  C
  C26      1.0000 0.80190  0.28940  0.88470  Biso   1.000  C
  C27      1.0000 0.77510  0.30150  0.10010  Biso   1.000  C
  Zn4      1.0000 0.32116  0.79240  0.26299  Biso   1.000  Zn
  O19      1.0000 0.44560  0.93590  0.45340  Biso   1.000  O
  O20      1.0000 0.43510  0.94210  0.54790  Biso   1.000  O
  O21      1.0000 0.33100  0.80440  0.34450  Biso   1.000  O
  O22      1.0000 0.25710  0.75800  0.38520  Biso   1.000  O
  O23      1.0000 0.23750  0.76650  0.59860  Biso   1.000  O
  O24      1.0000 0.28690  0.83210  0.64380  Biso   1.000  O
  C28      1.0000 0.37780  0.87710  0.49850  Biso   1.000  C
  C29      1.0000 0.36280  0.85230  0.44680  Biso   1.000  C
  H10      1.0000 0.38180  0.86290  0.41330  Biso   1.000  H
  C30      1.0000 0.31900  0.81130  0.44490  Biso   1.000  C
  C31      1.0000 0.29200  0.79310  0.49240  Biso   1.000  C
  H11      1.0000 0.26480  0.76390  0.49060  Biso   1.000  H
  C32      1.0000 0.30610  0.81970  0.54610  Biso   1.000  C
  C33      1.0000 0.34960  0.86010  0.54890  Biso   1.000  C
  H12      1.0000 0.36010  0.87580  0.58410  Biso   1.000  H
  C34      1.0000 0.42370  0.92180  0.50190  Biso   1.000  C
  C35      1.0000 0.30190  0.78940  0.38470  Biso   1.000  C
  C36      1.0000 0.27510  0.80150  0.60010  Biso   1.000  C
  Zn5      1.0000 0.82116  0.70760  0.23701  Biso   1.000  Zn
  O25      1.0000 0.94560  0.56410  0.04660  Biso   1.000  O
  O26      1.0000 0.93510  0.55790  0.95210  Biso   1.000  O
  O27      1.0000 0.83100  0.69560  0.15550  Biso   1.000  O
  O28      1.0000 0.75710  0.74200  0.11480  Biso   1.000  O
  O29      1.0000 0.73750  0.73350  0.90140  Biso   1.000  O
  O30      1.0000 0.78690  0.66790  0.85620  Biso   1.000  O
  C37      1.0000 0.87780  0.62290  0.00150  Biso   1.000  C
  C38      1.0000 0.86280  0.64770  0.05320  Biso   1.000  C
  H13      1.0000 0.88180  0.63710  0.08670  Biso   1.000  H
  C39      1.0000 0.81900  0.68870  0.05510  Biso   1.000  C
  C40      1.0000 0.79200  0.70690  0.00760  Biso   1.000  C
  H14      1.0000 0.76480  0.73610  0.00940  Biso   1.000  H
  C41      1.0000 0.80610  0.68030  0.95390  Biso   1.000  C
  C42      1.0000 0.84960  0.63990  0.95110  Biso   1.000  C
  H15      1.0000 0.86010  0.62420  0.91590  Biso   1.000  H
  C43      1.0000 0.92370  0.57820  0.99810  Biso   1.000  C
  C44      1.0000 0.80190  0.71060  0.11530  Biso   1.000  C
  C45      1.0000 0.77510  0.69850  0.89990  Biso   1.000  C
  Zn6      1.0000 0.32116  0.20760  0.73701  Biso   1.000  Zn
  O31      1.0000 0.44560  0.06410  0.54660  Biso   1.000  O
  O32      1.0000 0.43510  0.05790  0.45210  Biso   1.000  O
  O33      1.0000 0.33100  0.19560  0.65550  Biso   1.000  O
  O34      1.0000 0.25710  0.24200  0.61480  Biso   1.000  O
  O35      1.0000 0.23750  0.23350  0.40140  Biso   1.000  O
  O36      1.0000 0.28690  0.16790  0.35620  Biso   1.000  O
  C46      1.0000 0.37780  0.12290  0.50150  Biso   1.000  C
  C47      1.0000 0.36280  0.14770  0.55320  Biso   1.000  C
  H16      1.0000 0.38180  0.13710  0.58670  Biso   1.000  H
  C48      1.0000 0.31900  0.18870  0.55510  Biso   1.000  C
  C49      1.0000 0.29200  0.20690  0.50760  Biso   1.000  C
  H17      1.0000 0.26480  0.23610  0.50940  Biso   1.000  H
  C50      1.0000 0.30610  0.18030  0.45390  Biso   1.000  C
  C51      1.0000 0.34960  0.13990  0.45110  Biso   1.000  C
  H18      1.0000 0.36010  0.12420  0.41590  Biso   1.000  H
  C52      1.0000 0.42370  0.07820  0.49810  Biso   1.000  C
  C53      1.0000 0.30190  0.21060  0.61530  Biso   1.000  C
  C54      1.0000 0.27510  0.19850  0.39990  Biso   1.000  C
  Zn7      1.0000 0.17884  0.29240  0.23701  Biso   1.000  Zn
  O37      1.0000 0.05440  0.43590  0.04660  Biso   1.000  O
  O38      1.0000 0.06490  0.44210  0.95210  Biso   1.000  O
  O39      1.0000 0.16900  0.30440  0.15550  Biso   1.000  O
  O40      1.0000 0.24290  0.25800  0.11480  Biso   1.000  O
  O41      1.0000 0.26250  0.26650  0.90140  Biso   1.000  O
  O42      1.0000 0.21310  0.33210  0.85620  Biso   1.000  O
  C55      1.0000 0.12220  0.37710  0.00150  Biso   1.000  C
  C56      1.0000 0.13720  0.35230  0.05320  Biso   1.000  C
  H19      1.0000 0.11820  0.36290  0.08670  Biso   1.000  H
  C57      1.0000 0.18100  0.31130  0.05510  Biso   1.000  C
  C58      1.0000 0.20800  0.29310  0.00760  Biso   1.000  C
  H20      1.0000 0.23520  0.26390  0.00940  Biso   1.000  H
  C59      1.0000 0.19390  0.31970  0.95390  Biso   1.000  C
  C60      1.0000 0.15040  0.36010  0.95110  Biso   1.000  C
  H21      1.0000 0.13990  0.37580  0.91590  Biso   1.000  H
  C61      1.0000 0.07630  0.42180  0.99810  Biso   1.000  C
  C62      1.0000 0.19810  0.28940  0.11530  Biso   1.000  C
  C63      1.0000 0.22490  0.30150  0.89990  Biso   1.000  C
  Zn8      1.0000 0.67884  0.79240  0.73701  Biso   1.000  Zn
  O43      1.0000 0.55440  0.93590  0.54660  Biso   1.000  O
  O44      1.0000 0.56490  0.94210  0.45210  Biso   1.000  O
  O45      1.0000 0.66900  0.80440  0.65550  Biso   1.000  O
  O46      1.0000 0.74290  0.75800  0.61480  Biso   1.000  O
  O47      1.0000 0.76250  0.76650  0.40140  Biso   1.000  O
  O48      1.0000 0.71310  0.83210  0.35620  Biso   1.000  O
  C64      1.0000 0.62220  0.87710  0.50150  Biso   1.000  C
  C65      1.0000 0.63720  0.85230  0.55320  Biso   1.000  C
  H22      1.0000 0.61820  0.86290  0.58670  Biso   1.000  H
  C66      1.0000 0.68100  0.81130  0.55510  Biso   1.000  C
  C67      1.0000 0.70800  0.79310  0.50760  Biso   1.000  C
  H23      1.0000 0.73520  0.76390  0.50940  Biso   1.000  H
  C68      1.0000 0.69390  0.81970  0.45390  Biso   1.000  C
  C69      1.0000 0.65040  0.86010  0.45110  Biso   1.000  C
  H24      1.0000 0.63990  0.87580  0.41590  Biso   1.000  H
  C70      1.0000 0.57630  0.92180  0.49810  Biso   1.000  C
  C71      1.0000 0.69810  0.78940  0.61530  Biso   1.000  C
  C72      1.0000 0.72490  0.80150  0.39990  Biso   1.000  C
  Zn9      1.0000 0.76299  0.17884  0.70760  Biso   1.000  Zn
  O49      1.0000 0.95340  0.05440  0.56410  Biso   1.000  O
  O50      1.0000 0.04790  0.06490  0.55790  Biso   1.000  O
  O51      1.0000 0.84450  0.16900  0.69560  Biso   1.000  O
  O52      1.0000 0.88520  0.24290  0.74200  Biso   1.000  O
  O53      1.0000 0.09860  0.26250  0.73350  Biso   1.000  O
  O54      1.0000 0.14380  0.21310  0.66790  Biso   1.000  O
  C73      1.0000 0.99850  0.12220  0.62290  Biso   1.000  C
  C74      1.0000 0.94680  0.13720  0.64770  Biso   1.000  C
  H25      1.0000 0.91330  0.11820  0.63710  Biso   1.000  H
  C75      1.0000 0.94490  0.18100  0.68870  Biso   1.000  C
  C76      1.0000 0.99240  0.20800  0.70690  Biso   1.000  C
  H26      1.0000 0.99060  0.23520  0.73610  Biso   1.000  H
  C77      1.0000 0.04610  0.19390  0.68030  Biso   1.000  C
  C78      1.0000 0.04890  0.15040  0.63990  Biso   1.000  C
  H27      1.0000 0.08410  0.13990  0.62420  Biso   1.000  H
  C79      1.0000 0.00190  0.07630  0.57820  Biso   1.000  C
  C80      1.0000 0.88470  0.19810  0.71060  Biso   1.000  C
  C81      1.0000 0.10010  0.22490  0.69850  Biso   1.000  C
  Zn10     1.0000 0.26299  0.67884  0.20760  Biso   1.000  Zn
  O55      1.0000 0.45340  0.55440  0.06410  Biso   1.000  O
  O56      1.0000 0.54790  0.56490  0.05790  Biso   1.000  O
  O57      1.0000 0.34450  0.66900  0.19560  Biso   1.000  O
  O58      1.0000 0.38520  0.74290  0.24200  Biso   1.000  O
  O59      1.0000 0.59860  0.76250  0.23350  Biso   1.000  O
  O60      1.0000 0.64380  0.71310  0.16790  Biso   1.000  O
  C82      1.0000 0.49850  0.62220  0.12290  Biso   1.000  C
  C83      1.0000 0.44680  0.63720  0.14770  Biso   1.000  C
  H28      1.0000 0.41330  0.61820  0.13710  Biso   1.000  H
  C84      1.0000 0.44490  0.68100  0.18870  Biso   1.000  C
  C85      1.0000 0.49240  0.70800  0.20690  Biso   1.000  C
  H29      1.0000 0.49060  0.73520  0.23610  Biso   1.000  H
  C86      1.0000 0.54610  0.69390  0.18030  Biso   1.000  C
  C87      1.0000 0.54890  0.65040  0.13990  Biso   1.000  C
  H30      1.0000 0.58410  0.63990  0.12420  Biso   1.000  H
  C88      1.0000 0.50190  0.57630  0.07820  Biso   1.000  C
  C89      1.0000 0.38470  0.69810  0.21060  Biso   1.000  C
  C90      1.0000 0.60010  0.72490  0.19850  Biso   1.000  C
  Zn11     1.0000 0.76299  0.82116  0.29240  Biso   1.000  Zn
  O61      1.0000 0.95340  0.94560  0.43590  Biso   1.000  O
  O62      1.0000 0.04790  0.93510  0.44210  Biso   1.000  O
  O63      1.0000 0.84450  0.83100  0.30440  Biso   1.000  O
  O64      1.0000 0.88520  0.75710  0.25800  Biso   1.000  O
  O65      1.0000 0.09860  0.73750  0.26650  Biso   1.000  O
  O66      1.0000 0.14380  0.78690  0.33210  Biso   1.000  O
  C91      1.0000 0.99850  0.87780  0.37710  Biso   1.000  C
  C92      1.0000 0.94680  0.86280  0.35230  Biso   1.000  C
  H31      1.0000 0.91330  0.88180  0.36290  Biso   1.000  H
  C93      1.0000 0.94490  0.81900  0.31130  Biso   1.000  C
  C94      1.0000 0.99240  0.79200  0.29310  Biso   1.000  C
  H32      1.0000 0.99060  0.76480  0.26390  Biso   1.000  H
  C95      1.0000 0.04610  0.80610  0.31970  Biso   1.000  C
  C96      1.0000 0.04890  0.84960  0.36010  Biso   1.000  C
  H33      1.0000 0.08410  0.86010  0.37580  Biso   1.000  H
  C97      1.0000 0.00190  0.92370  0.42180  Biso   1.000  C
  C98      1.0000 0.88470  0.80190  0.28940  Biso   1.000  C
  C99      1.0000 0.10010  0.77510  0.30150  Biso   1.000  C
  Zn12     1.0000 0.26299  0.32116  0.79240  Biso   1.000  Zn
  O67      1.0000 0.45340  0.44560  0.93590  Biso   1.000  O
  O68      1.0000 0.54790  0.43510  0.94210  Biso   1.000  O
  O69      1.0000 0.34450  0.33100  0.80440  Biso   1.000  O
  O70      1.0000 0.38520  0.25710  0.75800  Biso   1.000  O
  O71      1.0000 0.59860  0.23750  0.76650  Biso   1.000  O
  O72      1.0000 0.64380  0.28690  0.83210  Biso   1.000  O
  C100     1.0000 0.49850  0.37780  0.87710  Biso   1.000  C
  C101     1.0000 0.44680  0.36280  0.85230  Biso   1.000  C
  H34      1.0000 0.41330  0.38180  0.86290  Biso   1.000  H
  C102     1.0000 0.44490  0.31900  0.81130  Biso   1.000  C
  C103     1.0000 0.49240  0.29200  0.79310  Biso   1.000  C
  H35      1.0000 0.49060  0.26480  0.76390  Biso   1.000  H
  C104     1.0000 0.54610  0.30610  0.81970  Biso   1.000  C
  C105     1.0000 0.54890  0.34960  0.86010  Biso   1.000  C
  H36      1.0000 0.58410  0.36010  0.87580  Biso   1.000  H
  C106     1.0000 0.50190  0.42370  0.92180  Biso   1.000  C
  C107     1.0000 0.38470  0.30190  0.78940  Biso   1.000  C
  C108     1.0000 0.60010  0.27510  0.80150  Biso   1.000  C
  Zn13     1.0000 0.23701  0.82116  0.70760  Biso   1.000  Zn
  O73      1.0000 0.04660  0.94560  0.56410  Biso   1.000  O
  O74      1.0000 0.95210  0.93510  0.55790  Biso   1.000  O
  O75      1.0000 0.15550  0.83100  0.69560  Biso   1.000  O
  O76      1.0000 0.11480  0.75710  0.74200  Biso   1.000  O
  O77      1.0000 0.90140  0.73750  0.73350  Biso   1.000  O
  O78      1.0000 0.85620  0.78690  0.66790  Biso   1.000  O
  C109     1.0000 0.00150  0.87780  0.62290  Biso   1.000  C
  C110     1.0000 0.05320  0.86280  0.64770  Biso   1.000  C
  H37      1.0000 0.08670  0.88180  0.63710  Biso   1.000  H
  C111     1.0000 0.05510  0.81900  0.68870  Biso   1.000  C
  C112     1.0000 0.00760  0.79200  0.70690  Biso   1.000  C
  H38      1.0000 0.00940  0.76480  0.73610  Biso   1.000  H
  C113     1.0000 0.95390  0.80610  0.68030  Biso   1.000  C
  C114     1.0000 0.95110  0.84960  0.63990  Biso   1.000  C
  H39      1.0000 0.91590  0.86010  0.62420  Biso   1.000  H
  C115     1.0000 0.99810  0.92370  0.57820  Biso   1.000  C
  C116     1.0000 0.11530  0.80190  0.71060  Biso   1.000  C
  C117     1.0000 0.89990  0.77510  0.69850  Biso   1.000  C
  Zn14     1.0000 0.73701  0.32116  0.20760  Biso   1.000  Zn
  O79      1.0000 0.54660  0.44560  0.06410  Biso   1.000  O
  O80      1.0000 0.45210  0.43510  0.05790  Biso   1.000  O
  O81      1.0000 0.65550  0.33100  0.19560  Biso   1.000  O
  O82      1.0000 0.61480  0.25710  0.24200  Biso   1.000  O
  O83      1.0000 0.40140  0.23750  0.23350  Biso   1.000  O
  O84      1.0000 0.35620  0.28690  0.16790  Biso   1.000  O
  C118     1.0000 0.50150  0.37780  0.12290  Biso   1.000  C
  C119     1.0000 0.55320  0.36280  0.14770  Biso   1.000  C
  H40      1.0000 0.58670  0.38180  0.13710  Biso   1.000  H
  C120     1.0000 0.55510  0.31900  0.18870  Biso   1.000  C
  C121     1.0000 0.50760  0.29200  0.20690  Biso   1.000  C
  H41      1.0000 0.50940  0.26480  0.23610  Biso   1.000  H
  C122     1.0000 0.45390  0.30610  0.18030  Biso   1.000  C
  C123     1.0000 0.45110  0.34960  0.13990  Biso   1.000  C
  H42      1.0000 0.41590  0.36010  0.12420  Biso   1.000  H
  C124     1.0000 0.49810  0.42370  0.07820  Biso   1.000  C
  C125     1.0000 0.61530  0.30190  0.21060  Biso   1.000  C
  C126     1.0000 0.39990  0.27510  0.19850  Biso   1.000  C
  Zn15     1.0000 0.23701  0.17884  0.29240  Biso   1.000  Zn
  O85      1.0000 0.04660  0.05440  0.43590  Biso   1.000  O
  O86      1.0000 0.95210  0.06490  0.44210  Biso   1.000  O
  O87      1.0000 0.15550  0.16900  0.30440  Biso   1.000  O
  O88      1.0000 0.11480  0.24290  0.25800  Biso   1.000  O
  O89      1.0000 0.90140  0.26250  0.26650  Biso   1.000  O
  O90      1.0000 0.85620  0.21310  0.33210  Biso   1.000  O
  C127     1.0000 0.00150  0.12220  0.37710  Biso   1.000  C
  C128     1.0000 0.05320  0.13720  0.35230  Biso   1.000  C
  H43      1.0000 0.08670  0.11820  0.36290  Biso   1.000  H
  C129     1.0000 0.05510  0.18100  0.31130  Biso   1.000  C
  C130     1.0000 0.00760  0.20800  0.29310  Biso   1.000  C
  H44      1.0000 0.00940  0.23520  0.26390  Biso   1.000  H
  C131     1.0000 0.95390  0.19390  0.31970  Biso   1.000  C
  C132     1.0000 0.95110  0.15040  0.36010  Biso   1.000  C
  H45      1.0000 0.91590  0.13990  0.37580  Biso   1.000  H
  C133     1.0000 0.99810  0.07630  0.42180  Biso   1.000  C
  C134     1.0000 0.11530  0.19810  0.28940  Biso   1.000  C
  C135     1.0000 0.89990  0.22490  0.30150  Biso   1.000  C
  Zn16     1.0000 0.73701  0.67884  0.79240  Biso   1.000  Zn
  O91      1.0000 0.54660  0.55440  0.93590  Biso   1.000  O
  O92      1.0000 0.45210  0.56490  0.94210  Biso   1.000  O
  O93      1.0000 0.65550  0.66900  0.80440  Biso   1.000  O
  O94      1.0000 0.61480  0.74290  0.75800  Biso   1.000  O
  O95      1.0000 0.40140  0.76250  0.76650  Biso   1.000  O
  O96      1.0000 0.35620  0.71310  0.83210  Biso   1.000  O
  C136     1.0000 0.50150  0.62220  0.87710  Biso   1.000  C
  C137     1.0000 0.55320  0.63720  0.85230  Biso   1.000  C
  H46      1.0000 0.58670  0.61820  0.86290  Biso   1.000  H
  C138     1.0000 0.55510  0.68100  0.81130  Biso   1.000  C
  C139     1.0000 0.50760  0.70800  0.79310  Biso   1.000  C
  H47      1.0000 0.50940  0.73520  0.76390  Biso   1.000  H
  C140     1.0000 0.45390  0.69390  0.81970  Biso   1.000  C
  C141     1.0000 0.45110  0.65040  0.86010  Biso   1.000  C
  H48      1.0000 0.41590  0.63990  0.87580  Biso   1.000  H
  C142     1.0000 0.49810  0.57630  0.92180  Biso   1.000  C
  C143     1.0000 0.61530  0.69810  0.78940  Biso   1.000  C
  C144     1.0000 0.39990  0.72490  0.80150  Biso   1.000  C
  Zn17     1.0000 0.70760  0.76299  0.17884  Biso   1.000  Zn
  O97      1.0000 0.56410  0.95340  0.05440  Biso   1.000  O
  O98      1.0000 0.55790  0.04790  0.06490  Biso   1.000  O
  O99      1.0000 0.69560  0.84450  0.16900  Biso   1.000  O
  O100     1.0000 0.74200  0.88520  0.24290  Biso   1.000  O
  O101     1.0000 0.73350  0.09860  0.26250  Biso   1.000  O
  O102     1.0000 0.66790  0.14380  0.21310  Biso   1.000  O
  C145     1.0000 0.62290  0.99850  0.12220  Biso   1.000  C
  C146     1.0000 0.64770  0.94680  0.13720  Biso   1.000  C
  H49      1.0000 0.63710  0.91330  0.11820  Biso   1.000  H
  C147     1.0000 0.68870  0.94490  0.18100  Biso   1.000  C
  C148     1.0000 0.70690  0.99240  0.20800  Biso   1.000  C
  H50      1.0000 0.73610  0.99060  0.23520  Biso   1.000  H
  C149     1.0000 0.68030  0.04610  0.19390  Biso   1.000  C
  C150     1.0000 0.63990  0.04890  0.15040  Biso   1.000  C
  H51      1.0000 0.62420  0.08410  0.13990  Biso   1.000  H
  C151     1.0000 0.57820  0.00190  0.07630  Biso   1.000  C
  C152     1.0000 0.71060  0.88470  0.19810  Biso   1.000  C
  C153     1.0000 0.69850  0.10010  0.22490  Biso   1.000  C
  Zn18     1.0000 0.20760  0.26299  0.67884  Biso   1.000  Zn
  O103     1.0000 0.06410  0.45340  0.55440  Biso   1.000  O
  O104     1.0000 0.05790  0.54790  0.56490  Biso   1.000  O
  O105     1.0000 0.19560  0.34450  0.66900  Biso   1.000  O
  O106     1.0000 0.24200  0.38520  0.74290  Biso   1.000  O
  O107     1.0000 0.23350  0.59860  0.76250  Biso   1.000  O
  O108     1.0000 0.16790  0.64380  0.71310  Biso   1.000  O
  C154     1.0000 0.12290  0.49850  0.62220  Biso   1.000  C
  C155     1.0000 0.14770  0.44680  0.63720  Biso   1.000  C
  H52      1.0000 0.13710  0.41330  0.61820  Biso   1.000  H
  C156     1.0000 0.18870  0.44490  0.68100  Biso   1.000  C
  C157     1.0000 0.20690  0.49240  0.70800  Biso   1.000  C
  H53      1.0000 0.23610  0.49060  0.73520  Biso   1.000  H
  C158     1.0000 0.18030  0.54610  0.69390  Biso   1.000  C
  C159     1.0000 0.13990  0.54890  0.65040  Biso   1.000  C
  H54      1.0000 0.12420  0.58410  0.63990  Biso   1.000  H
  C160     1.0000 0.07820  0.50190  0.57630  Biso   1.000  C
  C161     1.0000 0.21060  0.38470  0.69810  Biso   1.000  C
  C162     1.0000 0.19850  0.60010  0.72490  Biso   1.000  C
  Zn19     1.0000 0.29240  0.76299  0.82116  Biso   1.000  Zn
  O109     1.0000 0.43590  0.95340  0.94560  Biso   1.000  O
  O110     1.0000 0.44210  0.04790  0.93510  Biso   1.000  O
  O111     1.0000 0.30440  0.84450  0.83100  Biso   1.000  O
  O112     1.0000 0.25800  0.88520  0.75710  Biso   1.000  O
  O113     1.0000 0.26650  0.09860  0.73750  Biso   1.000  O
  O114     1.0000 0.33210  0.14380  0.78690  Biso   1.000  O
  C163     1.0000 0.37710  0.99850  0.87780  Biso   1.000  C
  C164     1.0000 0.35230  0.94680  0.86280  Biso   1.000  C
  H55      1.0000 0.36290  0.91330  0.88180  Biso   1.000  H
  C165     1.0000 0.31130  0.94490  0.81900  Biso   1.000  C
  C166     1.0000 0.29310  0.99240  0.79200  Biso   1.000  C
  H56      1.0000 0.26390  0.99060  0.76480  Biso   1.000  H
  C167     1.0000 0.31970  0.04610  0.80610  Biso   1.000  C
  C168     1.0000 0.36010  0.04890  0.84960  Biso   1.000  C
  H57      1.0000 0.37580  0.08410  0.86010  Biso   1.000  H
  C169     1.0000 0.42180  0.00190  0.92370  Biso   1.000  C
  C170     1.0000 0.28940  0.88470  0.80190  Biso   1.000  C
  C171     1.0000 0.30150  0.10010  0.77510  Biso   1.000  C
  Zn20     1.0000 0.79240  0.26299  0.32116  Biso   1.000  Zn
  O115     1.0000 0.93590  0.45340  0.44560  Biso   1.000  O
  O116     1.0000 0.94210  0.54790  0.43510  Biso   1.000  O
  O117     1.0000 0.80440  0.34450  0.33100  Biso   1.000  O
  O118     1.0000 0.75800  0.38520  0.25710  Biso   1.000  O
  O119     1.0000 0.76650  0.59860  0.23750  Biso   1.000  O
  O120     1.0000 0.83210  0.64380  0.28690  Biso   1.000  O
  C172     1.0000 0.87710  0.49850  0.37780  Biso   1.000  C
  C173     1.0000 0.85230  0.44680  0.36280  Biso   1.000  C
  H58      1.0000 0.86290  0.41330  0.38180  Biso   1.000  H
  C174     1.0000 0.81130  0.44490  0.31900  Biso   1.000  C
  C175     1.0000 0.79310  0.49240  0.29200  Biso   1.000  C
  H59      1.0000 0.76390  0.49060  0.26480  Biso   1.000  H
  C176     1.0000 0.81970  0.54610  0.30610  Biso   1.000  C
  C177     1.0000 0.86010  0.54890  0.34960  Biso   1.000  C
  H60      1.0000 0.87580  0.58410  0.36010  Biso   1.000  H
  C178     1.0000 0.92180  0.50190  0.42370  Biso   1.000  C
  C179     1.0000 0.78940  0.38470  0.30190  Biso   1.000  C
  C180     1.0000 0.80150  0.60010  0.27510  Biso   1.000  C
  Zn21     1.0000 0.70760  0.23701  0.82116  Biso   1.000  Zn
  O121     1.0000 0.56410  0.04660  0.94560  Biso   1.000  O
  O122     1.0000 0.55790  0.95210  0.93510  Biso   1.000  O
  O123     1.0000 0.69560  0.15550  0.83100  Biso   1.000  O
  O124     1.0000 0.74200  0.11480  0.75710  Biso   1.000  O
  O125     1.0000 0.73350  0.90140  0.73750  Biso   1.000  O
  O126     1.0000 0.66790  0.85620  0.78690  Biso   1.000  O
  C181     1.0000 0.62290  0.00150  0.87780  Biso   1.000  C
  C182     1.0000 0.64770  0.05320  0.86280  Biso   1.000  C
  H61      1.0000 0.63710  0.08670  0.88180  Biso   1.000  H
  C183     1.0000 0.68870  0.05510  0.81900  Biso   1.000  C
  C184     1.0000 0.70690  0.00760  0.79200  Biso   1.000  C
  H62      1.0000 0.73610  0.00940  0.76480  Biso   1.000  H
  C185     1.0000 0.68030  0.95390  0.80610  Biso   1.000  C
  C186     1.0000 0.63990  0.95110  0.84960  Biso   1.000  C
  H63      1.0000 0.62420  0.91590  0.86010  Biso   1.000  H
  C187     1.0000 0.57820  0.99810  0.92370  Biso   1.000  C
  C188     1.0000 0.71060  0.11530  0.80190  Biso   1.000  C
  C189     1.0000 0.69850  0.89990  0.77510  Biso   1.000  C
  Zn22     1.0000 0.20760  0.73701  0.32116  Biso   1.000  Zn
  O127     1.0000 0.06410  0.54660  0.44560  Biso   1.000  O
  O128     1.0000 0.05790  0.45210  0.43510  Biso   1.000  O
  O129     1.0000 0.19560  0.65550  0.33100  Biso   1.000  O
  O130     1.0000 0.24200  0.61480  0.25710  Biso   1.000  O
  O131     1.0000 0.23350  0.40140  0.23750  Biso   1.000  O
  O132     1.0000 0.16790  0.35620  0.28690  Biso   1.000  O
  C190     1.0000 0.12290  0.50150  0.37780  Biso   1.000  C
  C191     1.0000 0.14770  0.55320  0.36280  Biso   1.000  C
  H64      1.0000 0.13710  0.58670  0.38180  Biso   1.000  H
  C192     1.0000 0.18870  0.55510  0.31900  Biso   1.000  C
  C193     1.0000 0.20690  0.50760  0.29200  Biso   1.000  C
  H65      1.0000 0.23610  0.50940  0.26480  Biso   1.000  H
  C194     1.0000 0.18030  0.45390  0.30610  Biso   1.000  C
  C195     1.0000 0.13990  0.45110  0.34960  Biso   1.000  C
  H66      1.0000 0.12420  0.41590  0.36010  Biso   1.000  H
  C196     1.0000 0.07820  0.49810  0.42370  Biso   1.000  C
  C197     1.0000 0.21060  0.61530  0.30190  Biso   1.000  C
  C198     1.0000 0.19850  0.39990  0.27510  Biso   1.000  C
  Zn23     1.0000 0.29240  0.23701  0.17884  Biso   1.000  Zn
  O133     1.0000 0.43590  0.04660  0.05440  Biso   1.000  O
  O134     1.0000 0.44210  0.95210  0.06490  Biso   1.000  O
  O135     1.0000 0.30440  0.15550  0.16900  Biso   1.000  O
  O136     1.0000 0.25800  0.11480  0.24290  Biso   1.000  O
  O137     1.0000 0.26650  0.90140  0.26250  Biso   1.000  O
  O138     1.0000 0.33210  0.85620  0.21310  Biso   1.000  O
  C199     1.0000 0.37710  0.00150  0.12220  Biso   1.000  C
  C200     1.0000 0.35230  0.05320  0.13720  Biso   1.000  C
  H67      1.0000 0.36290  0.08670  0.11820  Biso   1.000  H
  C201     1.0000 0.31130  0.05510  0.18100  Biso   1.000  C
  C202     1.0000 0.29310  0.00760  0.20800  Biso   1.000  C
  H68      1.0000 0.26390  0.00940  0.23520  Biso   1.000  H
  C203     1.0000 0.31970  0.95390  0.19390  Biso   1.000  C
  C204     1.0000 0.36010  0.95110  0.15040  Biso   1.000  C
  H69      1.0000 0.37580  0.91590  0.13990  Biso   1.000  H
  C205     1.0000 0.42180  0.99810  0.07630  Biso   1.000  C
  C206     1.0000 0.28940  0.11530  0.19810  Biso   1.000  C
  C207     1.0000 0.30150  0.89990  0.22490  Biso   1.000  C
  Zn24     1.0000 0.79240  0.73701  0.67884  Biso   1.000  Zn
  O139     1.0000 0.93590  0.54660  0.55440  Biso   1.000  O
  O140     1.0000 0.94210  0.45210  0.56490  Biso   1.000  O
  O141     1.0000 0.80440  0.65550  0.66900  Biso   1.000  O
  O142     1.0000 0.75800  0.61480  0.74290  Biso   1.000  O
  O143     1.0000 0.76650  0.40140  0.76250  Biso   1.000  O
  O144     1.0000 0.83210  0.35620  0.71310  Biso   1.000  O
  C208     1.0000 0.87710  0.50150  0.62220  Biso   1.000  C
  C209     1.0000 0.85230  0.55320  0.63720  Biso   1.000  C
  H70      1.0000 0.86290  0.58670  0.61820  Biso   1.000  H
  C210     1.0000 0.81130  0.55510  0.68100  Biso   1.000  C
  C211     1.0000 0.79310  0.50760  0.70800  Biso   1.000  C
  H71      1.0000 0.76390  0.50940  0.73520  Biso   1.000  H
  C212     1.0000 0.81970  0.45390  0.69390  Biso   1.000  C
  C213     1.0000 0.86010  0.45110  0.65040  Biso   1.000  C
  H72      1.0000 0.87580  0.41590  0.63990  Biso   1.000  H
  C214     1.0000 0.92180  0.49810  0.57630  Biso   1.000  C
  C215     1.0000 0.78940  0.61530  0.69810  Biso   1.000  C
  C216     1.0000 0.80150  0.39990  0.72490  Biso   1.000  C
  Zn25     1.0000 0.00000  0.50000  0.93678  Biso   1.000  Zn
  Zn26     1.0000 0.50000  0.00000  0.43678  Biso   1.000  Zn
  Zn27     1.0000 0.00000  0.50000  0.06322  Biso   1.000  Zn
  Zn28     1.0000 0.50000  0.00000  0.56322  Biso   1.000  Zn
  Zn29     1.0000 0.93678  0.00000  0.50000  Biso   1.000  Zn
  Zn30     1.0000 0.43678  0.50000  0.00000  Biso   1.000  Zn
  Zn31     1.0000 0.06322  0.00000  0.50000  Biso   1.000  Zn
  Zn32     1.0000 0.56322  0.50000  0.00000  Biso   1.000  Zn
  Zn33     1.0000 0.50000  0.93678  0.00000  Biso   1.000  Zn
  Zn34     1.0000 0.00000  0.43678  0.50000  Biso   1.000  Zn
  Zn35     1.0000 0.50000  0.06322  0.00000  Biso   1.000  Zn
  Zn36     1.0000 0.00000  0.56322  0.50000  Biso   1.000  Zn
  O145     1.0000 0.25110  0.74890  0.74890  Biso   1.000  O
  O146     1.0000 0.75110  0.24890  0.24890  Biso   1.000  O
  O147     1.0000 0.74890  0.25110  0.74890  Biso   1.000  O
  O148     1.0000 0.24890  0.75110  0.24890  Biso   1.000  O
  O149     1.0000 0.74890  0.74890  0.25110  Biso   1.000  O
  O150     1.0000 0.24890  0.24890  0.75110  Biso   1.000  O
  O151     1.0000 0.25110  0.25110  0.25110  Biso   1.000  O
  O152     1.0000 0.75110  0.75110  0.75110  Biso   1.000  O
