data_MEGBAD_clean
_audit_creation_date              2014-07-02
_audit_creation_method            'Materials Studio'
_symmetry_space_group_name_H-M    'P1'
_symmetry_Int_Tables_number       1
_symmetry_cell_setting            triclinic
loop_
_symmetry_equiv_pos_as_xyz
  x,y,z
_cell_length_a                    18.7772
_cell_length_b                    18.7772
_cell_length_c                    19.7440
_cell_angle_alpha                 112.8810
_cell_angle_beta                  112.8810
_cell_angle_gamma                 100.5050
loop_
_atom_site_label
_atom_site_type_symbol
_atom_site_fract_x
_atom_site_fract_y
_atom_site_fract_z
_atom_site_U_iso_or_equiv
_atom_site_adp_type
_atom_site_occupancy
Mn1    Mn    0.31527   0.31527   0.30246   0.01267  Uiso   1.00
Mn2    Mn    0.98719   0.98719   0.30246   0.01267  Uiso   1.00
Mn3    Mn    0.68473   0.68473   0.69754   0.01267  Uiso   1.00
Mn4    Mn    0.01281   0.01281   0.69754   0.01267  Uiso   1.00
Mn5    Mn    0.50000   0.50000   0.50000   0.01267  Uiso   1.00
Mn6    Mn    1.00000  -0.00000   0.50000   0.01267  Uiso   1.00
Mn7    Mn    0.03029   0.58589   0.00000   0.01267  Uiso   1.00
Mn8    Mn    0.96971   0.41411   0.00000   0.01267  Uiso   1.00
Mn9    Mn    0.41411   0.96971   0.00000   0.01267  Uiso   1.00
Mn10   Mn    0.58589   0.03029   0.00000   0.01267  Uiso   1.00
Ni1    Ni    0.50000  -0.00000   0.50000   0.01267  Uiso   1.00
Ni2    Ni    1.00000   0.50000   0.50000   0.01267  Uiso   1.00
H1     H     0.29410   0.73810   0.44140   0.01267  Uiso   1.00
H2     H     0.44670   0.71910   0.26540   0.01267  Uiso   1.00
H3     H     0.42640   0.66340   0.40980   0.01267  Uiso   1.00
H4     H     0.22590   0.46470   0.20480   0.01267  Uiso   1.00
H5     H     0.26020   0.69040   0.23180   0.01267  Uiso   1.00
H6     H     0.14730   0.70330   0.44140   0.01267  Uiso   1.00
H7     H     0.81870   0.54630   0.26540   0.01267  Uiso   1.00
H8     H     0.98340   0.74640   0.40980   0.01267  Uiso   1.00
H9     H     0.97890   0.74010   0.20480   0.01267  Uiso   1.00
H10    H     0.97160   0.54140   0.23180   0.01267  Uiso   1.00
H11    H     0.26190   0.70590   0.55860   0.01267  Uiso   1.00
H12    H     0.28090   0.55330   0.73460   0.01267  Uiso   1.00
H13    H     0.33660   0.57360   0.59020   0.01267  Uiso   1.00
H14    H     0.53530   0.77410   0.79520   0.01267  Uiso   1.00
H15    H     0.30960   0.73980   0.76820   0.01267  Uiso   1.00
H16    H     0.29670   0.85270   0.55860   0.01267  Uiso   1.00
H17    H     0.45370   0.18130   0.73460   0.01267  Uiso   1.00
H18    H     0.25360   0.01660   0.59020   0.01267  Uiso   1.00
H19    H     0.25990   0.02110   0.79520   0.01267  Uiso   1.00
H20    H     0.45860   0.02840   0.76820   0.01267  Uiso   1.00
H21    H     0.70590   0.26190   0.55860   0.01267  Uiso   1.00
H22    H     0.55330   0.28090   0.73460   0.01267  Uiso   1.00
H23    H     0.57360   0.33660   0.59020   0.01267  Uiso   1.00
H24    H     0.77410   0.53530   0.79520   0.01267  Uiso   1.00
H25    H     0.73980   0.30960   0.76820   0.01267  Uiso   1.00
H26    H     0.85270   0.29670   0.55860   0.01267  Uiso   1.00
H27    H     0.18130   0.45370   0.73460   0.01267  Uiso   1.00
H28    H     0.01660   0.25360   0.59020   0.01267  Uiso   1.00
H29    H     0.02110   0.25990   0.79520   0.01267  Uiso   1.00
H30    H     0.02840   0.45860   0.76820   0.01267  Uiso   1.00
H31    H     0.73810   0.29410   0.44140   0.01267  Uiso   1.00
H32    H     0.71910   0.44670   0.26540   0.01267  Uiso   1.00
H33    H     0.66340   0.42640   0.40980   0.01267  Uiso   1.00
H34    H     0.46470   0.22590   0.20480   0.01267  Uiso   1.00
H35    H     0.69040   0.26020   0.23180   0.01267  Uiso   1.00
H36    H     0.70330   0.14730   0.44140   0.01267  Uiso   1.00
H37    H     0.54630   0.81870   0.26540   0.01267  Uiso   1.00
H38    H     0.74640   0.98340   0.40980   0.01267  Uiso   1.00
H39    H     0.74010   0.97890   0.20480   0.01267  Uiso   1.00
H40    H     0.54140   0.97160   0.23180   0.01267  Uiso   1.00
C1     C     0.32590   0.79510   0.46800   0.01267  Uiso   1.00
C2     C     0.38260   0.83240   0.44840   0.01267  Uiso   1.00
C3     C     0.39753   0.78633   0.38406   0.01267  Uiso   1.00
C4     C     0.45140   0.82360   0.36720   0.01267  Uiso   1.00
C5     C     0.46970   0.77710   0.30100   0.01267  Uiso   1.00
C6     C     0.34900   0.69280   0.33200   0.01267  Uiso   1.00
C7     C     0.37610   0.64090   0.35900   0.01267  Uiso   1.00
C8     C     0.32900   0.55400   0.31120   0.01267  Uiso   1.00
C9     C     0.25740   0.52240   0.23660   0.01267  Uiso   1.00
C10    C     0.22920   0.57220   0.20620   0.01267  Uiso   1.00
C11    C     0.27674   0.65634   0.25328   0.01267  Uiso   1.00
C12    C     0.14630   0.53530   0.12380   0.01267  Uiso   1.00
C13    C     0.36120   0.49920   0.34280   0.01267  Uiso   1.00
C14    C     0.14210   0.67290   0.46800   0.01267  Uiso   1.00
C15    C     0.06580   0.61600   0.44840   0.01267  Uiso   1.00
C16    C     0.98653   0.59773   0.38406   0.01267  Uiso   1.00
C17    C     0.91580   0.54360   0.36720   0.01267  Uiso   1.00
C18    C     0.83130   0.52390   0.30100   0.01267  Uiso   1.00
C19    C     0.98300   0.63920   0.33200   0.01267  Uiso   1.00
C20    C     0.98290   0.71810   0.35900   0.01267  Uiso   1.00
C21    C     0.98220   0.75720   0.31120   0.01267  Uiso   1.00
C22    C     0.97920   0.71420   0.23660   0.01267  Uiso   1.00
C23    C     0.97700   0.63400   0.20620   0.01267  Uiso   1.00
C24    C     0.97654   0.59694   0.25328   0.01267  Uiso   1.00
C25    C     0.97750   0.58850   0.12380   0.01267  Uiso   1.00
C26    C     0.98160   0.84360   0.34280   0.01267  Uiso   1.00
C27    C     0.20490   0.67410   0.53200   0.01267  Uiso   1.00
C28    C     0.16760   0.61740   0.55160   0.01267  Uiso   1.00
C29    C     0.21367   0.60247   0.61594   0.01267  Uiso   1.00
C30    C     0.17640   0.54860   0.63280   0.01267  Uiso   1.00
C31    C     0.22290   0.53030   0.69900   0.01267  Uiso   1.00
C32    C     0.30720   0.65100   0.66800   0.01267  Uiso   1.00
C33    C     0.35910   0.62390   0.64100   0.01267  Uiso   1.00
C34    C     0.44600   0.67100   0.68880   0.01267  Uiso   1.00
C35    C     0.47760   0.74260   0.76340   0.01267  Uiso   1.00
C36    C     0.42780   0.77080   0.79380   0.01267  Uiso   1.00
C37    C     0.34366   0.72326   0.74672   0.01267  Uiso   1.00
C38    C     0.46470   0.85370   0.87620   0.01267  Uiso   1.00
C39    C     0.50080   0.63880   0.65720   0.01267  Uiso   1.00
C40    C     0.32710   0.85790   0.53200   0.01267  Uiso   1.00
C41    C     0.38400   0.93420   0.55160   0.01267  Uiso   1.00
C42    C     0.40227   0.01347   0.61594   0.01267  Uiso   1.00
C43    C     0.45640   0.08420   0.63280   0.01267  Uiso   1.00
C44    C     0.47610   0.16870   0.69900   0.01267  Uiso   1.00
C45    C     0.36080   0.01700   0.66800   0.01267  Uiso   1.00
C46    C     0.28190   0.01710   0.64100   0.01267  Uiso   1.00
C47    C     0.24280   0.01780   0.68880   0.01267  Uiso   1.00
C48    C     0.28580   0.02080   0.76340   0.01267  Uiso   1.00
C49    C     0.36600   0.02300   0.79380   0.01267  Uiso   1.00
C50    C     0.40306   0.02346   0.74672   0.01267  Uiso   1.00
C51    C     0.41150   0.02250   0.87620   0.01267  Uiso   1.00
C52    C     0.15640   0.01840   0.65720   0.01267  Uiso   1.00
C53    C     0.67410   0.20490   0.53200   0.01267  Uiso   1.00
C54    C     0.61740   0.16760   0.55160   0.01267  Uiso   1.00
C55    C     0.60247   0.21367   0.61594   0.01267  Uiso   1.00
C56    C     0.54860   0.17640   0.63280   0.01267  Uiso   1.00
C57    C     0.53030   0.22290   0.69900   0.01267  Uiso   1.00
C58    C     0.65100   0.30720   0.66800   0.01267  Uiso   1.00
C59    C     0.62390   0.35910   0.64100   0.01267  Uiso   1.00
C60    C     0.67100   0.44600   0.68880   0.01267  Uiso   1.00
C61    C     0.74260   0.47760   0.76340   0.01267  Uiso   1.00
C62    C     0.77080   0.42780   0.79380   0.01267  Uiso   1.00
C63    C     0.72326   0.34366   0.74672   0.01267  Uiso   1.00
C64    C     0.85370   0.46470   0.87620   0.01267  Uiso   1.00
C65    C     0.63880   0.50080   0.65720   0.01267  Uiso   1.00
C66    C     0.85790   0.32710   0.53200   0.01267  Uiso   1.00
C67    C     0.93420   0.38400   0.55160   0.01267  Uiso   1.00
C68    C     0.01347   0.40227   0.61594   0.01267  Uiso   1.00
C69    C     0.08420   0.45640   0.63280   0.01267  Uiso   1.00
C70    C     0.16870   0.47610   0.69900   0.01267  Uiso   1.00
C71    C     0.01700   0.36080   0.66800   0.01267  Uiso   1.00
C72    C     0.01710   0.28190   0.64100   0.01267  Uiso   1.00
C73    C     0.01780   0.24280   0.68880   0.01267  Uiso   1.00
C74    C     0.02080   0.28580   0.76340   0.01267  Uiso   1.00
C75    C     0.02300   0.36600   0.79380   0.01267  Uiso   1.00
C76    C     0.02346   0.40306   0.74672   0.01267  Uiso   1.00
C77    C     0.02250   0.41150   0.87620   0.01267  Uiso   1.00
C78    C     0.01840   0.15640   0.65720   0.01267  Uiso   1.00
C79    C     0.79510   0.32590   0.46800   0.01267  Uiso   1.00
C80    C     0.83240   0.38260   0.44840   0.01267  Uiso   1.00
C81    C     0.78633   0.39753   0.38406   0.01267  Uiso   1.00
C82    C     0.82360   0.45140   0.36720   0.01267  Uiso   1.00
C83    C     0.77710   0.46970   0.30100   0.01267  Uiso   1.00
C84    C     0.69280   0.34900   0.33200   0.01267  Uiso   1.00
C85    C     0.64090   0.37610   0.35900   0.01267  Uiso   1.00
C86    C     0.55400   0.32900   0.31120   0.01267  Uiso   1.00
C87    C     0.52240   0.25740   0.23660   0.01267  Uiso   1.00
C88    C     0.57220   0.22920   0.20620   0.01267  Uiso   1.00
C89    C     0.65634   0.27674   0.25328   0.01267  Uiso   1.00
C90    C     0.53530   0.14630   0.12380   0.01267  Uiso   1.00
C91    C     0.49920   0.36120   0.34280   0.01267  Uiso   1.00
C92    C     0.67290   0.14210   0.46800   0.01267  Uiso   1.00
C93    C     0.61600   0.06580   0.44840   0.01267  Uiso   1.00
C94    C     0.59773   0.98653   0.38406   0.01267  Uiso   1.00
C95    C     0.54360   0.91580   0.36720   0.01267  Uiso   1.00
C96    C     0.52390   0.83130   0.30100   0.01267  Uiso   1.00
C97    C     0.63920   0.98300   0.33200   0.01267  Uiso   1.00
C98    C     0.71810   0.98290   0.35900   0.01267  Uiso   1.00
C99    C     0.75720   0.98220   0.31120   0.01267  Uiso   1.00
C100   C     0.71420   0.97920   0.23660   0.01267  Uiso   1.00
C101   C     0.63400   0.97700   0.20620   0.01267  Uiso   1.00
C102   C     0.59694   0.97654   0.25328   0.01267  Uiso   1.00
C103   C     0.58850   0.97750   0.12380   0.01267  Uiso   1.00
C104   C     0.84360   0.98160   0.34280   0.01267  Uiso   1.00
N1     N     0.41900   0.91900   0.50000   0.01267  Uiso   1.00
N2     N     0.08100   0.58100   0.50000   0.01267  Uiso   1.00
N3     N     0.58100   0.08100   0.50000   0.01267  Uiso   1.00
N4     N     0.91900   0.41900   0.50000   0.01267  Uiso   1.00
N5     N     0.49840   0.90620   0.40460   0.01267  Uiso   1.00
N6     N     0.90620   0.49840   0.40460   0.01267  Uiso   1.00
N7     N     0.09380   0.50160   0.59540   0.01267  Uiso   1.00
N8     N     0.50160   0.09380   0.59540   0.01267  Uiso   1.00
Cl1    Cl    0.08857   0.70677  -0.00000   0.01267  Uiso   1.00
Cl2    Cl    0.91143   0.29323   0.00000   0.01267  Uiso   1.00
Cl3    Cl    0.29323   0.91143   0.00000   0.01267  Uiso   1.00
Cl4    Cl    0.70677   0.08857  -0.00000   0.01267  Uiso   1.00
O1     O     0.13303   0.58323   0.09506   0.01267  Uiso   1.00
O2     O     0.09654   0.46334   0.09328   0.01267  Uiso   1.00
O3     O     0.31730   0.42390   0.29660   0.01267  Uiso   1.00
O4     O     0.42714   0.53342   0.41236   0.01267  Uiso   1.00
O5     O     0.96203   0.51183   0.09506   0.01267  Uiso   1.00
O6     O     0.99674   0.62994   0.09328   0.01267  Uiso   1.00
O7     O     0.97930   0.87270   0.29660   0.01267  Uiso   1.00
O8     O     0.98522   0.87894   0.41236   0.01267  Uiso   1.00
O9     O     0.41677   0.86697   0.90494   0.01267  Uiso   1.00
O10    O     0.53666   0.90346   0.90672   0.01267  Uiso   1.00
O11    O     0.57610   0.68270   0.70340   0.01267  Uiso   1.00
O12    O     0.46658   0.57286   0.58764   0.01267  Uiso   1.00
O13    O     0.48817   0.03797   0.90494   0.01267  Uiso   1.00
O14    O     0.37006   0.00326   0.90672   0.01267  Uiso   1.00
O15    O     0.12730   0.02070   0.70340   0.01267  Uiso   1.00
O16    O     0.12106   0.01478   0.58764   0.01267  Uiso   1.00
O17    O     0.86697   0.41677   0.90494   0.01267  Uiso   1.00
O18    O     0.90346   0.53666   0.90672   0.01267  Uiso   1.00
O19    O     0.68270   0.57610   0.70340   0.01267  Uiso   1.00
O20    O     0.57286   0.46658   0.58764   0.01267  Uiso   1.00
O21    O     0.03797   0.48817   0.90494   0.01267  Uiso   1.00
O22    O     0.00326   0.37006   0.90672   0.01267  Uiso   1.00
O23    O     0.02070   0.12730   0.70340   0.01267  Uiso   1.00
O24    O     0.01478   0.12106   0.58764   0.01267  Uiso   1.00
O25    O     0.58323   0.13303   0.09506   0.01267  Uiso   1.00
O26    O     0.46334   0.09654   0.09328   0.01267  Uiso   1.00
O27    O     0.42390   0.31730   0.29660   0.01267  Uiso   1.00
O28    O     0.53342   0.42714   0.41236   0.01267  Uiso   1.00
O29    O     0.51183   0.96203   0.09506   0.01267  Uiso   1.00
O30    O     0.62994   0.99674   0.09328   0.01267  Uiso   1.00
O31    O     0.87270   0.97930   0.29660   0.01267  Uiso   1.00
O32    O     0.87894   0.98522   0.41236   0.01267  Uiso   1.00
O33    O     0.38270   0.38270   0.44740   0.01267  Uiso   1.00
O34    O     0.06470   0.06470   0.44740   0.01267  Uiso   1.00
O35    O     0.61730   0.61730   0.55260   0.01267  Uiso   1.00
O36    O     0.93530   0.93530   0.55260   0.01267  Uiso   1.00
