data_MEGBEH_clean5b
_audit_creation_date              2014-07-02
_audit_creation_method            'Materials Studio'
_symmetry_space_group_name_H-M    'P1'
_symmetry_Int_Tables_number       1
_symmetry_cell_setting            triclinic
loop_
_symmetry_equiv_pos_as_xyz
  x,y,z
_cell_length_a                    18.9416
_cell_length_b                    18.9416
_cell_length_c                    19.9740
_cell_angle_alpha                 112.6380
_cell_angle_beta                  112.6380
_cell_angle_gamma                 100.8500
loop_
_atom_site_label
_atom_site_type_symbol
_atom_site_fract_x
_atom_site_fract_y
_atom_site_fract_z
_atom_site_U_iso_or_equiv
_atom_site_adp_type
_atom_site_occupancy
Mn1    Mn    1.00000   0.50000   0.50000   0.01267  Uiso   1.00
Mn2    Mn    0.50000  -0.00000   0.50000   0.01267  Uiso   1.00
Cd1    Cd    0.52972   0.08668   0.00000   0.01267  Uiso   1.00
Cd2    Cd    0.47028   0.91332   0.00000   0.01267  Uiso   1.00
Cd3    Cd    0.91332   0.47028   0.00000   0.01267  Uiso   1.00
Cd4    Cd    0.08668   0.52972   0.00000   0.01267  Uiso   1.00
Cd5    Cd    1.00000  -0.00000   0.50000   0.01267  Uiso   1.00
Cd6    Cd    0.50000   0.50000   0.50000   0.01267  Uiso   1.00
Cd7    Cd    0.81701   0.81701   0.30802   0.01267  Uiso   1.00
Cd8    Cd    0.49101   0.49101   0.30802   0.01267  Uiso   1.00
Cd9    Cd    0.18299   0.18299   0.69198   0.01267  Uiso   1.00
Cd10   Cd    0.50899   0.50899   0.69198   0.01267  Uiso   1.00
H1     H     0.94510   0.21650   0.26800   0.01267  Uiso   1.00
H2     H     0.79310   0.23830   0.43300   0.01267  Uiso   1.00
H3     H     0.75250   0.18350   0.22440   0.01267  Uiso   1.00
H4     H     0.72180   0.96040   0.20760   0.01267  Uiso   1.00
H5     H     0.92450   0.16330   0.40400   0.01267  Uiso   1.00
H6     H     0.32290   0.05150   0.26800   0.01267  Uiso   1.00
H7     H     0.63990   0.19470   0.43300   0.01267  Uiso   1.00
H8     H     0.47190   0.04090   0.22440   0.01267  Uiso   1.00
H9     H     0.48580   0.24720   0.20760   0.01267  Uiso   1.00
H10    H     0.47950   0.24070   0.40400   0.01267  Uiso   1.00
H11    H     0.78350   0.05490   0.73200   0.01267  Uiso   1.00
H12    H     0.76170   0.20690   0.56700   0.01267  Uiso   1.00
H13    H     0.81650   0.24750   0.77560   0.01267  Uiso   1.00
H14    H     0.03960   0.27820   0.79240   0.01267  Uiso   1.00
H15    H     0.83670   0.07550   0.59600   0.01267  Uiso   1.00
H16    H     0.94850   0.67710   0.73200   0.01267  Uiso   1.00
H17    H     0.80530   0.36010   0.56700   0.01267  Uiso   1.00
H18    H     0.95910   0.52810   0.77560   0.01267  Uiso   1.00
H19    H     0.75280   0.51420   0.79240   0.01267  Uiso   1.00
H20    H     0.75930   0.52050   0.59600   0.01267  Uiso   1.00
H21    H     0.05490   0.78350   0.73200   0.01267  Uiso   1.00
H22    H     0.20690   0.76170   0.56700   0.01267  Uiso   1.00
H23    H     0.24750   0.81650   0.77560   0.01267  Uiso   1.00
H24    H     0.27820   0.03960   0.79240   0.01267  Uiso   1.00
H25    H     0.07550   0.83670   0.59600   0.01267  Uiso   1.00
H26    H     0.67710   0.94850   0.73200   0.01267  Uiso   1.00
H27    H     0.36010   0.80530   0.56700   0.01267  Uiso   1.00
H28    H     0.52810   0.95910   0.77560   0.01267  Uiso   1.00
H29    H     0.51420   0.75280   0.79240   0.01267  Uiso   1.00
H30    H     0.52050   0.75930   0.59600   0.01267  Uiso   1.00
H31    H     0.21650   0.94510   0.26800   0.01267  Uiso   1.00
H32    H     0.23830   0.79310   0.43300   0.01267  Uiso   1.00
H33    H     0.18350   0.75250   0.22440   0.01267  Uiso   1.00
H34    H     0.96040   0.72180   0.20760   0.01267  Uiso   1.00
H35    H     0.16330   0.92450   0.40400   0.01267  Uiso   1.00
H36    H     0.05150   0.32290   0.26800   0.01267  Uiso   1.00
H37    H     0.19470   0.63990   0.43300   0.01267  Uiso   1.00
H38    H     0.04090   0.47190   0.22440   0.01267  Uiso   1.00
H39    H     0.24720   0.48580   0.20760   0.01267  Uiso   1.00
H40    H     0.24070   0.47950   0.40400   0.01267  Uiso   1.00
C1     C     0.96640   0.27400   0.30180   0.01267  Uiso   1.00
C2     C     0.94360   0.32140   0.36780   0.01267  Uiso   1.00
C3     C     0.89450   0.28610   0.38720   0.01267  Uiso   1.00
C4     C     0.88880   0.34320   0.45620   0.01267  Uiso   1.00
C5     C     0.82620   0.29500   0.46420   0.01267  Uiso   1.00
C6     C     0.84620   0.18740   0.32120   0.01267  Uiso   1.00
C7     C     0.77140   0.15100   0.24620   0.01267  Uiso   1.00
C8     C     0.72470   0.06590   0.20360   0.01267  Uiso   1.00
C9     C     0.75290   0.01730   0.23600   0.01267  Uiso   1.00
C10    C     0.82780   0.05380   0.31120   0.01267  Uiso   1.00
C11    C     0.87440   0.13880   0.35360   0.01267  Uiso   1.00
C12    C     0.64830   0.05070   0.12540   0.01267  Uiso   1.00
C13    C     0.86160   0.00260   0.34920   0.01267  Uiso   1.00
C14    C     0.33540   0.02780   0.30180   0.01267  Uiso   1.00
C15    C     0.42420   0.04640   0.36780   0.01267  Uiso   1.00
C16    C     0.49270   0.10110   0.38720   0.01267  Uiso   1.00
C17    C     0.56740   0.11300   0.45620   0.01267  Uiso   1.00
C18    C     0.63800   0.16920   0.46420   0.01267  Uiso   1.00
C19    C     0.47500   0.13380   0.32120   0.01267  Uiso   1.00
C20    C     0.47480   0.09520   0.24620   0.01267  Uiso   1.00
C21    C     0.47890   0.13770   0.20360   0.01267  Uiso   1.00
C22    C     0.48310   0.21870   0.23600   0.01267  Uiso   1.00
C23    C     0.48340   0.25740   0.31120   0.01267  Uiso   1.00
C24    C     0.47920   0.21480   0.35360   0.01267  Uiso   1.00
C25    C     0.47710   0.07470   0.12540   0.01267  Uiso   1.00
C26    C     0.48760   0.34660   0.34920   0.01267  Uiso   1.00
C27    C     0.72600   0.03360   0.69820   0.01267  Uiso   1.00
C28    C     0.67860   0.05640   0.63220   0.01267  Uiso   1.00
C29    C     0.71390   0.10550   0.61280   0.01267  Uiso   1.00
C30    C     0.65680   0.11120   0.54380   0.01267  Uiso   1.00
C31    C     0.70500   0.17380   0.53580   0.01267  Uiso   1.00
C32    C     0.81260   0.15380   0.67880   0.01267  Uiso   1.00
C33    C     0.84900   0.22860   0.75380   0.01267  Uiso   1.00
C34    C     0.93410   0.27530   0.79640   0.01267  Uiso   1.00
C35    C     0.98270   0.24710   0.76400   0.01267  Uiso   1.00
C36    C     0.94620   0.17220   0.68880   0.01267  Uiso   1.00
C37    C     0.86120   0.12560   0.64640   0.01267  Uiso   1.00
C38    C     0.94930   0.35170   0.87460   0.01267  Uiso   1.00
C39    C     0.99740   0.13840   0.65080   0.01267  Uiso   1.00
C40    C     0.97220   0.66460   0.69820   0.01267  Uiso   1.00
C41    C     0.95360   0.57580   0.63220   0.01267  Uiso   1.00
C42    C     0.89890   0.50730   0.61280   0.01267  Uiso   1.00
C43    C     0.88700   0.43260   0.54380   0.01267  Uiso   1.00
C44    C     0.83080   0.36200   0.53580   0.01267  Uiso   1.00
C45    C     0.86620   0.52500   0.67880   0.01267  Uiso   1.00
C46    C     0.90480   0.52520   0.75380   0.01267  Uiso   1.00
C47    C     0.86230   0.52110   0.79640   0.01267  Uiso   1.00
C48    C     0.78130   0.51690   0.76400   0.01267  Uiso   1.00
C49    C     0.74260   0.51660   0.68880   0.01267  Uiso   1.00
C50    C     0.78520   0.52080   0.64640   0.01267  Uiso   1.00
C51    C     0.92530   0.52290   0.87460   0.01267  Uiso   1.00
C52    C     0.65340   0.51240   0.65080   0.01267  Uiso   1.00
C53    C     0.03360   0.72600   0.69820   0.01267  Uiso   1.00
C54    C     0.05640   0.67860   0.63220   0.01267  Uiso   1.00
C55    C     0.10550   0.71390   0.61280   0.01267  Uiso   1.00
C56    C     0.11120   0.65680   0.54380   0.01267  Uiso   1.00
C57    C     0.17380   0.70500   0.53580   0.01267  Uiso   1.00
C58    C     0.15380   0.81260   0.67880   0.01267  Uiso   1.00
C59    C     0.22860   0.84900   0.75380   0.01267  Uiso   1.00
C60    C     0.27530   0.93410   0.79640   0.01267  Uiso   1.00
C61    C     0.24710   0.98270   0.76400   0.01267  Uiso   1.00
C62    C     0.17220   0.94620   0.68880   0.01267  Uiso   1.00
C63    C     0.12560   0.86120   0.64640   0.01267  Uiso   1.00
C64    C     0.35170   0.94930   0.87460   0.01267  Uiso   1.00
C65    C     0.13840   0.99740   0.65080   0.01267  Uiso   1.00
C66    C     0.66460   0.97220   0.69820   0.01267  Uiso   1.00
C67    C     0.57580   0.95360   0.63220   0.01267  Uiso   1.00
C68    C     0.50730   0.89890   0.61280   0.01267  Uiso   1.00
C69    C     0.43260   0.88700   0.54380   0.01267  Uiso   1.00
C70    C     0.36200   0.83080   0.53580   0.01267  Uiso   1.00
C71    C     0.52500   0.86620   0.67880   0.01267  Uiso   1.00
C72    C     0.52520   0.90480   0.75380   0.01267  Uiso   1.00
C73    C     0.52110   0.86230   0.79640   0.01267  Uiso   1.00
C74    C     0.51690   0.78130   0.76400   0.01267  Uiso   1.00
C75    C     0.51660   0.74260   0.68880   0.01267  Uiso   1.00
C76    C     0.52080   0.78520   0.64640   0.01267  Uiso   1.00
C77    C     0.52290   0.92530   0.87460   0.01267  Uiso   1.00
C78    C     0.51240   0.65340   0.65080   0.01267  Uiso   1.00
C79    C     0.27400   0.96640   0.30180   0.01267  Uiso   1.00
C80    C     0.32140   0.94360   0.36780   0.01267  Uiso   1.00
C81    C     0.28610   0.89450   0.38720   0.01267  Uiso   1.00
C82    C     0.34320   0.88880   0.45620   0.01267  Uiso   1.00
C83    C     0.29500   0.82620   0.46420   0.01267  Uiso   1.00
C84    C     0.18740   0.84620   0.32120   0.01267  Uiso   1.00
C85    C     0.15100   0.77140   0.24620   0.01267  Uiso   1.00
C86    C     0.06590   0.72470   0.20360   0.01267  Uiso   1.00
C87    C     0.01730   0.75290   0.23600   0.01267  Uiso   1.00
C88    C     0.05380   0.82780   0.31120   0.01267  Uiso   1.00
C89    C     0.13880   0.87440   0.35360   0.01267  Uiso   1.00
C90    C     0.05070   0.64830   0.12540   0.01267  Uiso   1.00
C91    C     0.00260   0.86160   0.34920   0.01267  Uiso   1.00
C92    C     0.02780   0.33540   0.30180   0.01267  Uiso   1.00
C93    C     0.04640   0.42420   0.36780   0.01267  Uiso   1.00
C94    C     0.10110   0.49270   0.38720   0.01267  Uiso   1.00
C95    C     0.11300   0.56740   0.45620   0.01267  Uiso   1.00
C96    C     0.16920   0.63800   0.46420   0.01267  Uiso   1.00
C97    C     0.13380   0.47500   0.32120   0.01267  Uiso   1.00
C98    C     0.09520   0.47480   0.24620   0.01267  Uiso   1.00
C99    C     0.13770   0.47890   0.20360   0.01267  Uiso   1.00
C100   C     0.21870   0.48310   0.23600   0.01267  Uiso   1.00
C101   C     0.25740   0.48340   0.31120   0.01267  Uiso   1.00
C102   C     0.21480   0.47920   0.35360   0.01267  Uiso   1.00
C103   C     0.07470   0.47710   0.12540   0.01267  Uiso   1.00
C104   C     0.34660   0.48760   0.34920   0.01267  Uiso   1.00
N1     N     0.00290   0.40910   0.41200   0.01267  Uiso   1.00
N2     N     0.40910   0.00290   0.41200   0.01267  Uiso   1.00
N3     N     0.59090   0.99710   0.58800   0.01267  Uiso   1.00
N4     N     0.99710   0.59090   0.58800   0.01267  Uiso   1.00
N5     N     0.93330   0.43330   0.50000   0.01267  Uiso   1.00
N6     N     0.56670   0.06670   0.50000   0.01267  Uiso   1.00
N7     N     0.06670   0.56670   0.50000   0.01267  Uiso   1.00
N8     N     0.43330   0.93330   0.50000   0.01267  Uiso   1.00
Cl1    Cl    0.88770   0.88770   0.47120   0.01267  Uiso   1.00
Cl2    Cl    0.58350   0.58350   0.47120   0.01267  Uiso   1.00
Cl3    Cl    0.11230   0.11230   0.52880   0.01267  Uiso   1.00
Cl4    Cl    0.41650   0.41650   0.52880   0.01267  Uiso   1.00
Cl6    Cl    0.50470   0.88610   0.39080   0.01267  Uiso   1.00
Cl8    Cl    0.11390   0.49530   0.60920   0.01267  Uiso   1.00
O1     O     0.62470   0.09070   0.09720   0.01267  Uiso   1.00
O2     O     0.61120   0.97600   0.09300   0.01267  Uiso   1.00
O3     O     0.81690   0.92750   0.30820   0.01267  Uiso   1.00
O4     O     0.92850   0.03370   0.41640   0.01267  Uiso   1.00
O5     O     0.47250   0.00650   0.09720   0.01267  Uiso   1.00
O6     O     0.48180   0.11700   0.09300   0.01267  Uiso   1.00
O7     O     0.49130   0.38070   0.30820   0.01267  Uiso   1.00
O8     O     0.48790   0.38270   0.41640   0.01267  Uiso   1.00
O9     O     0.90930   0.37530   0.90280   0.01267  Uiso   1.00
O10    O     0.02400   0.38880   0.90700   0.01267  Uiso   1.00
O11    O     0.07250   0.18310   0.69180   0.01267  Uiso   1.00
O12    O     0.96630   0.07150   0.58360   0.01267  Uiso   1.00
O13    O     0.99350   0.52750   0.90280   0.01267  Uiso   1.00
O14    O     0.88300   0.51820   0.90700   0.01267  Uiso   1.00
O15    O     0.61930   0.50870   0.69180   0.01267  Uiso   1.00
O16    O     0.61730   0.51210   0.58360   0.01267  Uiso   1.00
O17    O     0.37530   0.90930   0.90280   0.01267  Uiso   1.00
O18    O     0.38880   0.02400   0.90700   0.01267  Uiso   1.00
O19    O     0.18310   0.07250   0.69180   0.01267  Uiso   1.00
O20    O     0.07150   0.96630   0.58360   0.01267  Uiso   1.00
O21    O     0.52750   0.99350   0.90280   0.01267  Uiso   1.00
O22    O     0.51820   0.88300   0.90700   0.01267  Uiso   1.00
O23    O     0.50870   0.61930   0.69180   0.01267  Uiso   1.00
O24    O     0.51210   0.61730   0.58360   0.01267  Uiso   1.00
O25    O     0.09070   0.62470   0.09720   0.01267  Uiso   1.00
O26    O     0.97600   0.61120   0.09300   0.01267  Uiso   1.00
O27    O     0.92750   0.81690   0.30820   0.01267  Uiso   1.00
O28    O     0.03370   0.92850   0.41640   0.01267  Uiso   1.00
O29    O     0.00650   0.47250   0.09720   0.01267  Uiso   1.00
O30    O     0.11700   0.48180   0.09300   0.01267  Uiso   1.00
O31    O     0.38070   0.49130   0.30820   0.01267  Uiso   1.00
O32    O     0.38270   0.48790   0.41640   0.01267  Uiso   1.00
loop_
_geom_bond_atom_site_label_1
_geom_bond_atom_site_label_2
_geom_bond_distance
_geom_bond_site_symmetry_2
_ccdc_geom_bond_type
Mn1    N4      1.959   .     S
Mn1    N5      1.610   .     S
Mn1    N1      1.959   1_655 S
Mn1    N7      1.610   1_655 S
Mn1    Cl8     2.453   1_655 S
Mn2    N2      1.959   .     S
Mn2    N6      1.610   .     S
Mn2    N3      1.959   1_545 S
Mn2    N8      1.610   1_545 S
Mn2    Cl6     2.453   1_545 S
Cd1    O1      2.039   .     S
Cd1    O6      2.297   .     S
Cd1    O18     2.297   1_554 S
Cd1    O21     2.039   1_544 S
Cd2    O2      2.297   .     S
Cd2    O5      2.039   1_565 S
Cd2    O17     2.039   1_554 S
Cd2    O22     2.297   1_554 S
Cd3    O26     2.297   .     S
Cd3    O9      2.039   1_554 S
Cd3    O14     2.297   1_554 S
Cd3    O29     2.039   1_655 S
Cd4    O25     2.039   .     S
Cd4    O30     2.297   .     S
Cd4    O10     2.297   1_554 S
Cd4    O13     2.039   1_454 S
Cd5    O4      2.106   .     S
Cd5    O12     2.106   .     S
Cd5    Cl1     2.407   1_545 S
Cd5    Cl3     2.407   1_655 S
Cd5    O20     2.106   1_645 S
Cd5    O28     2.106   1_645 S
Cd6    Cl2     2.407   .     S
Cd6    Cl4     2.407   .     S
Cd6    O8      2.106   .     S
Cd6    O16     2.106   .     S
Cd6    O24     2.106   .     S
Cd6    O32     2.106   .     S
Cd7    Cl1     2.611   .     S
Cd7    O3      2.092   .     S
Cd7    O27     2.092   .     S
Cd8    Cl2     2.611   .     S
Cd8    O7      2.092   .     S
Cd8    O31     2.092   .     S
Cd9    Cl3     2.611   .     S
Cd9    O11     2.092   .     S
Cd9    O19     2.092   .     S
Cd10   Cl4     2.611   .     S
Cd10   O15     2.092   .     S
Cd10   O23     2.092   .     S
H1     C1      0.929   .     S
H2     C5      0.930   .     S
H3     C7      0.931   .     S
H4     C9      0.929   1_565 S
H5     C11     0.932   .     S
H6     C14     0.929   .     S
H7     C18     0.930   .     S
H8     C20     0.931   .     S
H9     C22     0.929   .     S
H10    C24     0.932   .     S
H11    C27     0.929   .     S
H12    C31     0.930   .     S
H13    C33     0.931   .     S
H14    C35     0.929   1_455 S
H15    C37     0.932   .     S
H16    C40     0.929   .     S
H17    C44     0.930   .     S
H18    C46     0.931   .     S
H19    C48     0.929   .     S
H20    C50     0.932   .     S
H21    C53     0.929   .     S
H22    C57     0.930   .     S
H23    C59     0.931   .     S
H24    C61     0.929   1_545 S
H25    C63     0.932   .     S
H26    C66     0.929   .     S
H27    C70     0.930   .     S
H28    C72     0.931   .     S
H29    C74     0.929   .     S
H30    C76     0.932   .     S
H31    C79     0.929   .     S
H32    C83     0.930   .     S
H33    C85     0.931   .     S
H34    C87     0.929   1_655 S
H35    C89     0.932   .     S
H36    C92     0.929   .     S
H37    C96     0.930   .     S
H38    C98     0.931   .     S
H39    C100    0.929   .     S
H40    C102    0.932   .     S
C1     C2      1.550   .     S
C1     C92     1.482   1_655 S
C2     C3      1.306   .     S
C2     N1      1.485   1_655 S
C3     C4      1.446   .     D
C3     C6      1.613   .     S
C4     C5      1.455   .     S
C4     N5      1.459   .     S
C5     C44     1.459   .     D
C6     C7      1.389   .     A
C6     C11     1.389   .     A
C7     C8      1.390   .     A
C8     C9      1.389   .     A
C8     C12     1.541   .     S
C9     C10     1.392   .     A
C9     H4      0.929   1_545 S
C10    C11     1.389   .     A
C10    C13     1.534   .     S
C12    O1      1.163   .     A
C12    O2      1.219   1_545 S
C13    O4      1.247   .     A
C13    O3      1.236   1_545 S
C14    C15     1.550   .     S
C14    C79     1.482   1_545 S
C15    C16     1.306   .     S
C15    N2      1.485   .     D
C16    C17     1.446   .     D
C16    C19     1.613   .     S
C17    C18     1.455   .     S
C17    N6      1.459   .     S
C18    C31     1.459   .     D
C19    C20     1.389   .     A
C19    C24     1.389   .     A
C20    C21     1.390   .     A
C21    C22     1.389   .     A
C21    C25     1.541   .     S
C22    C23     1.392   .     A
C23    C24     1.389   .     A
C23    C26     1.534   .     S
C25    O5      1.163   .     A
C25    O6      1.219   .     A
C26    O7      1.236   .     A
C26    O8      1.247   .     A
C27    C28     1.550   .     S
C27    C66     1.482   1_545 S
C28    C29     1.306   .     D
C28    N3      1.485   1_545 S
C29    C30     1.446   .     S
C29    C32     1.613   .     S
C30    C31     1.455   .     S
C30    N6      1.459   .     D
C32    C33     1.389   .     A
C32    C37     1.389   .     A
C33    C34     1.390   .     A
C34    C35     1.389   .     A
C34    C38     1.541   .     S
C35    C36     1.392   .     A
C35    H14     0.929   1_655 S
C36    C37     1.389   .     A
C36    C39     1.534   .     S
C38    O9      1.163   .     A
C38    O10     1.219   1_655 S
C39    O12     1.247   .     A
C39    O11     1.236   1_655 S
C40    C41     1.550   .     S
C40    C53     1.482   1_655 S
C41    C42     1.306   .     D
C41    N4      1.485   .     S
C42    C43     1.446   .     S
C42    C45     1.613   .     S
C43    C44     1.455   .     S
C43    N5      1.459   .     D
C45    C46     1.389   .     A
C45    C50     1.389   .     A
C46    C47     1.390   .     A
C47    C48     1.389   .     A
C47    C51     1.541   .     S
C48    C49     1.392   .     A
C49    C50     1.389   .     A
C49    C52     1.534   .     S
C51    O13     1.163   .     A
C51    O14     1.219   .     A
C52    O15     1.236   .     A
C52    O16     1.247   .     A
C53    C54     1.550   .     S
C53    C40     1.482   1_455 S
C54    C55     1.306   .     S
C54    N4      1.485   1_455 S
C55    C56     1.446   .     D
C55    C58     1.613   .     S
C56    C57     1.455   .     S
C56    N7      1.459   .     S
C57    C96     1.459   .     D
C58    C59     1.389   .     A
C58    C63     1.389   .     A
C59    C60     1.390   .     A
C60    C61     1.389   .     A
C60    C64     1.541   .     S
C61    C62     1.392   .     A
C61    H24     0.929   1_565 S
C62    C63     1.389   .     A
C62    C65     1.534   .     S
C64    O17     1.163   .     A
C64    O18     1.219   1_565 S
C65    O20     1.247   .     A
C65    O19     1.236   1_565 S
C66    C67     1.550   .     S
C66    C27     1.482   1_565 S
C67    C68     1.306   .     S
C67    N3      1.485   .     D
C68    C69     1.446   .     D
C68    C71     1.613   .     S
C69    C70     1.455   .     S
C69    N8      1.459   .     S
C70    C83     1.459   .     D
C71    C72     1.389   .     A
C71    C76     1.389   .     A
C72    C73     1.390   .     A
C73    C74     1.389   .     A
C73    C77     1.541   .     S
C74    C75     1.392   .     A
C75    C76     1.389   .     A
C75    C78     1.534   .     S
C77    O21     1.163   .     A
C77    O22     1.219   .     A
C78    O23     1.236   .     A
C78    O24     1.247   .     A
C79    C80     1.550   .     S
C79    C14     1.482   1_565 S
C80    C81     1.306   .     D
C80    N2      1.485   1_565 S
C81    C82     1.446   .     S
C81    C84     1.613   .     S
C82    C83     1.455   .     S
C82    N8      1.459   .     D
C84    C85     1.389   .     A
C84    C89     1.389   .     A
C85    C86     1.390   .     A
C86    C87     1.389   .     A
C86    C90     1.541   .     S
C87    C88     1.392   .     A
C87    H34     0.929   1_455 S
C88    C89     1.389   .     A
C88    C91     1.534   .     S
C90    O25     1.163   .     A
C90    O26     1.219   1_455 S
C91    O28     1.247   .     A
C91    O27     1.236   1_455 S
C92    C93     1.550   .     S
C92    C1      1.482   1_455 S
C93    C94     1.306   .     D
C93    N1      1.485   .     S
C94    C95     1.446   .     S
C94    C97     1.613   .     S
C95    C96     1.455   .     S
C95    N7      1.459   .     D
C97    C98     1.389   .     A
C97    C102    1.389   .     A
C98    C99     1.390   .     A
C99    C100    1.389   .     A
C99    C103    1.541   .     S
C100   C101    1.392   .     A
C101   C102    1.389   .     A
C101   C104    1.534   .     S
C103   O29     1.163   .     A
C103   O30     1.219   .     A
C104   O31     1.236   .     A
C104   O32     1.247   .     A
N1     Mn1     1.959   1_455 S
N1     C2      1.485   1_455 S
N2     C80     1.485   1_545 S
N3     Mn2     1.959   1_565 S
N3     C28     1.485   1_565 S
N4     C54     1.485   1_655 S
N7     Mn1     1.610   1_455 S
N8     Mn2     1.610   1_565 S
Cl1    Cd5     2.407   1_565 S
Cl3    Cd5     2.407   1_455 S
Cl6    Mn2     2.453   1_565 S
Cl8    Mn1     2.453   1_455 S
O2     C12     1.219   1_565 S
O3     C13     1.236   1_565 S
O5     Cd2     2.039   1_545 S
O9     Cd3     2.039   1_556 S
O10    Cd4     2.297   1_556 S
O10    C38     1.219   1_455 S
O11    C39     1.236   1_455 S
O13    Cd4     2.039   1_656 S
O14    Cd3     2.297   1_556 S
O17    Cd2     2.039   1_556 S
O18    Cd1     2.297   1_556 S
O18    C64     1.219   1_545 S
O19    C65     1.236   1_545 S
O20    Cd5     2.106   1_465 S
O21    Cd1     2.039   1_566 S
O22    Cd2     2.297   1_556 S
O26    C90     1.219   1_655 S
O27    C91     1.236   1_655 S
O28    Cd5     2.106   1_465 S
O29    Cd3     2.039   1_455 S
