data_MEHPAQ_clean
_audit_creation_date              2014-07-02
_audit_creation_method            'Materials Studio'
_symmetry_space_group_name_H-M    'P1'
_symmetry_Int_Tables_number       1
_symmetry_cell_setting            triclinic
loop_
_symmetry_equiv_pos_as_xyz
  x,y,z
_cell_length_a                    7.2214
_cell_length_b                    10.2950
_cell_length_c                    11.0410
_cell_angle_alpha                 90.0000
_cell_angle_beta                  90.0000
_cell_angle_gamma                 90.0000
loop_
_atom_site_label
_atom_site_type_symbol
_atom_site_fract_x
_atom_site_fract_y
_atom_site_fract_z
_atom_site_U_iso_or_equiv
_atom_site_adp_type
_atom_site_occupancy
Cu1    Cu    0.39940   0.93303   0.02927   0.01267  Uiso   1.00
Cu2    Cu    0.10060   0.06697   0.52927   0.01267  Uiso   1.00
H1     H     0.33020   0.71520   0.77080   0.01267  Uiso   1.00
H2     H     0.32010   0.96450   0.81300   0.01267  Uiso   1.00
H3     H     0.18320   0.86410   0.86740   0.01267  Uiso   1.00
H4     H     0.50590   0.88370   0.64270   0.01267  Uiso   1.00
H5     H     0.61150   0.76540   0.67350   0.01267  Uiso   1.00
H6     H     0.66610   0.97770   0.81080   0.01267  Uiso   1.00
H7     H     0.77070   0.84700   0.81330   0.01267  Uiso   1.00
H8     H     0.16980   0.28480   0.27080   0.01267  Uiso   1.00
H9     H     0.17990   0.03550   0.31300   0.01267  Uiso   1.00
H10    H     0.31680   0.13590   0.36740   0.01267  Uiso   1.00
H11    H     0.99410   0.11630   0.14270   0.01267  Uiso   1.00
H12    H     0.88850   0.23460   0.17350   0.01267  Uiso   1.00
H13    H     0.83390   0.02230   0.31080   0.01267  Uiso   1.00
H14    H     0.72930   0.15300   0.31330   0.01267  Uiso   1.00
C1     C     0.52800   0.71630   0.91010   0.01267  Uiso   1.00
C2     C     0.42110   0.78340   0.81010   0.01267  Uiso   1.00
C3     C     0.54950   0.83220   0.71200   0.01267  Uiso   1.00
C4     C     0.70800   0.91820   0.75620   0.01267  Uiso   1.00
C5     C     0.82700   0.96760   0.65410   0.01267  Uiso   1.00
C6     C     0.97200   0.28370   0.41010   0.01267  Uiso   1.00
C7     C     0.07890   0.21660   0.31010   0.01267  Uiso   1.00
C8     C     0.95050   0.16780   0.21200   0.01267  Uiso   1.00
C9     C     0.79200   0.08180   0.25620   0.01267  Uiso   1.00
C10    C     0.67300   0.03240   0.15410   0.01267  Uiso   1.00
N1     N     0.30860   0.89090   0.86290   0.01267  Uiso   1.00
N2     N     0.19140   0.10910   0.36290   0.01267  Uiso   1.00
O1     O     0.51860   0.76270   0.01690   0.01267  Uiso   1.00
O2     O     0.62460   0.62030   0.88140   0.01267  Uiso   1.00
O3     O     0.97510   0.02910   0.68440   0.01267  Uiso   1.00
O4     O     0.78510   0.94990   0.54700   0.01267  Uiso   1.00
O5     O     0.98140   0.23730   0.51690   0.01267  Uiso   1.00
O6     O     0.87540   0.37970   0.38140   0.01267  Uiso   1.00
O7     O     0.52490   0.97090   0.18440   0.01267  Uiso   1.00
O8     O     0.71490   0.05010   0.04700   0.01267  Uiso   1.00
Cu3    Cu    0.60060   0.43303   0.47073   0.01267  Uiso   1.00
Cu4    Cu    0.89940   0.56697   0.97073   0.01267  Uiso   1.00
H15    H     0.66980   0.21520   0.72920   0.01267  Uiso   1.00
H16    H     0.67990   0.46450   0.68700   0.01267  Uiso   1.00
H17    H     0.81680   0.36410   0.63260   0.01267  Uiso   1.00
H18    H     0.49410   0.38370   0.85730   0.01267  Uiso   1.00
H19    H     0.38850   0.26540   0.82650   0.01267  Uiso   1.00
H20    H     0.33390   0.47770   0.68920   0.01267  Uiso   1.00
H21    H     0.22930   0.34700   0.68670   0.01267  Uiso   1.00
H22    H     0.83020   0.78480   0.22920   0.01267  Uiso   1.00
H23    H     0.82010   0.53550   0.18700   0.01267  Uiso   1.00
H24    H     0.68320   0.63590   0.13260   0.01267  Uiso   1.00
H25    H     0.00590   0.61630   0.35730   0.01267  Uiso   1.00
H26    H     0.11150   0.73460   0.32650   0.01267  Uiso   1.00
H27    H     0.16610   0.52230   0.18920   0.01267  Uiso   1.00
H28    H     0.27070   0.65300   0.18670   0.01267  Uiso   1.00
C11    C     0.47200   0.21630   0.58990   0.01267  Uiso   1.00
C12    C     0.57890   0.28340   0.68990   0.01267  Uiso   1.00
C13    C     0.45050   0.33220   0.78800   0.01267  Uiso   1.00
C14    C     0.29200   0.41820   0.74380   0.01267  Uiso   1.00
C15    C     0.17300   0.46760   0.84590   0.01267  Uiso   1.00
C16    C     0.02800   0.78370   0.08990   0.01267  Uiso   1.00
C17    C     0.92110   0.71660   0.18990   0.01267  Uiso   1.00
C18    C     0.04950   0.66780   0.28800   0.01267  Uiso   1.00
C19    C     0.20800   0.58180   0.24380   0.01267  Uiso   1.00
C20    C     0.32700   0.53240   0.34590   0.01267  Uiso   1.00
N3     N     0.69140   0.39090   0.63710   0.01267  Uiso   1.00
N4     N     0.80860   0.60910   0.13710   0.01267  Uiso   1.00
O9     O     0.48140   0.26270   0.48310   0.01267  Uiso   1.00
O10    O     0.37540   0.12030   0.61860   0.01267  Uiso   1.00
O11    O     0.02490   0.52910   0.81560   0.01267  Uiso   1.00
O12    O     0.21490   0.44990   0.95300   0.01267  Uiso   1.00
O13    O     0.01860   0.73730   0.98310   0.01267  Uiso   1.00
O14    O     0.12460   0.87970   0.11860   0.01267  Uiso   1.00
O15    O     0.47510   0.47090   0.31560   0.01267  Uiso   1.00
O16    O     0.28510   0.55010   0.45300   0.01267  Uiso   1.00
