data_MEJZEI_clean
_audit_creation_date              2014-07-02
_audit_creation_method            'Materials Studio'
_symmetry_space_group_name_H-M    'P1'
_symmetry_Int_Tables_number       1
_symmetry_cell_setting            triclinic
loop_
_symmetry_equiv_pos_as_xyz
  x,y,z
_cell_length_a                    15.2688
_cell_length_b                    15.3552
_cell_length_c                    15.4030
_cell_angle_alpha                 106.7870
_cell_angle_beta                  117.0590
_cell_angle_gamma                 103.1950
loop_
_atom_site_label
_atom_site_type_symbol
_atom_site_fract_x
_atom_site_fract_y
_atom_site_fract_z
_atom_site_U_iso_or_equiv
_atom_site_adp_type
_atom_site_occupancy
La1    La    0.94298   0.80254   0.63424   0.01267  Uiso   1.00
La2    La    0.67839   0.81607   0.38335   0.01267  Uiso   1.00
La3    La    0.91512   0.14639   0.56324   0.01267  Uiso   1.00
La4    La    0.05702   0.19746   0.36576   0.01267  Uiso   1.00
La5    La    0.32161   0.18393   0.61665   0.01267  Uiso   1.00
La6    La    0.08488   0.85361   0.43676   0.01267  Uiso   1.00
P1     P     0.87410   0.98320   0.69100   0.01267  Uiso   1.00
P2     P     0.80330   0.69340   0.32440   0.01267  Uiso   1.00
P3     P     0.11750   0.02510   0.64390   0.01267  Uiso   1.00
P4     P     0.12590   0.01680   0.30900   0.01267  Uiso   1.00
P5     P     0.19670   0.30660   0.67560   0.01267  Uiso   1.00
P6     P     0.88250   0.97490   0.35610   0.01267  Uiso   1.00
H1     H     0.29330   0.52470   0.17670   0.01267  Uiso   1.00
H2     H     0.66240   0.94510   0.60860   0.01267  Uiso   1.00
H3     H     0.84130   0.56220   0.40420   0.01267  Uiso   1.00
H4     H     0.25420   0.21410   0.82060   0.01267  Uiso   1.00
H5     H     0.82720   0.01010   0.81660   0.01267  Uiso   1.00
H6     H     0.77790   0.89490   0.74180   0.01267  Uiso   1.00
H7     H     0.59510   0.81710   0.63690   0.01267  Uiso   1.00
H8     H     0.61090   0.89560   0.74060   0.01267  Uiso   1.00
H9     H     0.42940   0.82730   0.59500   0.01267  Uiso   1.00
H10    H     0.46400   0.85690   0.52230   0.01267  Uiso   1.00
H11    H     0.49150   0.99290   0.71040   0.01267  Uiso   1.00
H12    H     0.57490   0.12550   0.69150   0.01267  Uiso   1.00
H13    H     0.55820   0.05240   0.58460   0.01267  Uiso   1.00
H14    H     0.70170   0.07970   0.79740   0.01267  Uiso   1.00
H15    H     0.73630   0.10960   0.72480   0.01267  Uiso   1.00
H16    H     0.70070   0.52440   0.19640   0.01267  Uiso   1.00
H17    H     0.66090   0.55040   0.27420   0.01267  Uiso   1.00
H18    H     0.78490   0.41850   0.20870   0.01267  Uiso   1.00
H19    H     0.88770   0.52140   0.28070   0.01267  Uiso   1.00
H20    H     0.96920   0.47540   0.41690   0.01267  Uiso   1.00
H21    H     0.93260   0.38860   0.30690   0.01267  Uiso   1.00
H22    H     0.78580   0.29240   0.29350   0.01267  Uiso   1.00
H23    H     0.83890   0.44540   0.48740   0.01267  Uiso   1.00
H24    H     0.73800   0.34090   0.41560   0.01267  Uiso   1.00
H25    H     0.68500   0.46480   0.37680   0.01267  Uiso   1.00
H26    H     0.66270   0.38230   0.27150   0.01267  Uiso   1.00
H27    H     0.27580   0.06160   0.80620   0.01267  Uiso   1.00
H28    H     0.17760   0.03540   0.81750   0.01267  Uiso   1.00
H29    H     0.09570   0.16650   0.81490   0.01267  Uiso   1.00
H30    H     0.16460   0.17210   0.93080   0.01267  Uiso   1.00
H31    H     0.19290   0.33710   0.88450   0.01267  Uiso   1.00
H32    H     0.14320   0.31980   0.95090   0.01267  Uiso   1.00
H33    H     0.30910   0.34500   0.09500   0.01267  Uiso   1.00
H34    H     0.40420   0.37150   0.97900   0.01267  Uiso   1.00
H35    H     0.46210   0.37040   0.09260   0.01267  Uiso   1.00
H36    H     0.34900   0.19720   0.01020   0.01267  Uiso   1.00
H37    H     0.40730   0.21250   0.95050   0.01267  Uiso   1.00
H38    H     0.27800   0.68300   0.06220   0.01267  Uiso   1.00
H39    H     0.13510   0.68770   0.92320   0.01267  Uiso   1.00
H40    H     0.34190   0.91470   0.94040   0.01267  Uiso   1.00
H41    H     0.48570   0.91580   0.08710   0.01267  Uiso   1.00
H42    H     0.50860   0.53520   0.67120   0.01267  Uiso   1.00
H43    H     0.63110   0.65670   0.67310   0.01267  Uiso   1.00
H44    H     0.72870   0.45760   0.56070   0.01267  Uiso   1.00
H45    H     0.60370   0.33220   0.55270   0.01267  Uiso   1.00
H46    H     0.70670   0.47530   0.82330   0.01267  Uiso   1.00
H47    H     0.33760   0.05490   0.39140   0.01267  Uiso   1.00
H48    H     0.15870   0.43780   0.59580   0.01267  Uiso   1.00
H49    H     0.74580   0.78590   0.17940   0.01267  Uiso   1.00
H50    H     0.17280   0.98990   0.18340   0.01267  Uiso   1.00
H51    H     0.22210   0.10510   0.25820   0.01267  Uiso   1.00
H52    H     0.40490   0.18290   0.36310   0.01267  Uiso   1.00
H53    H     0.38910   0.10440   0.25940   0.01267  Uiso   1.00
H54    H     0.57060   0.17270   0.40500   0.01267  Uiso   1.00
H55    H     0.53600   0.14310   0.47770   0.01267  Uiso   1.00
H56    H     0.50850   0.00710   0.28960   0.01267  Uiso   1.00
H57    H     0.42510   0.87450   0.30850   0.01267  Uiso   1.00
H58    H     0.44180   0.94760   0.41540   0.01267  Uiso   1.00
H59    H     0.29830   0.92030   0.20260   0.01267  Uiso   1.00
H60    H     0.26370   0.89040   0.27520   0.01267  Uiso   1.00
H61    H     0.29930   0.47560   0.80360   0.01267  Uiso   1.00
H62    H     0.33910   0.44960   0.72580   0.01267  Uiso   1.00
H63    H     0.21510   0.58150   0.79130   0.01267  Uiso   1.00
H64    H     0.11230   0.47860   0.71930   0.01267  Uiso   1.00
H65    H     0.03080   0.52460   0.58310   0.01267  Uiso   1.00
H66    H     0.06740   0.61140   0.69310   0.01267  Uiso   1.00
H67    H     0.21420   0.70760   0.70650   0.01267  Uiso   1.00
H68    H     0.16110   0.55460   0.51260   0.01267  Uiso   1.00
H69    H     0.26200   0.65910   0.58440   0.01267  Uiso   1.00
H70    H     0.31500   0.53520   0.62320   0.01267  Uiso   1.00
H71    H     0.33730   0.61770   0.72850   0.01267  Uiso   1.00
H72    H     0.72420   0.93840   0.19380   0.01267  Uiso   1.00
H73    H     0.82240   0.96460   0.18250   0.01267  Uiso   1.00
H74    H     0.90430   0.83350   0.18510   0.01267  Uiso   1.00
H75    H     0.83540   0.82790   0.06920   0.01267  Uiso   1.00
H76    H     0.80710   0.66290   0.11550   0.01267  Uiso   1.00
H77    H     0.85680   0.68020   0.04910   0.01267  Uiso   1.00
H78    H     0.69090   0.65500   0.90500   0.01267  Uiso   1.00
H79    H     0.59580   0.62850   0.02100   0.01267  Uiso   1.00
H80    H     0.53790   0.62960   0.90740   0.01267  Uiso   1.00
H81    H     0.65100   0.80280   0.98980   0.01267  Uiso   1.00
H82    H     0.59270   0.78750   0.04950   0.01267  Uiso   1.00
H83    H     0.72200   0.31700   0.93780   0.01267  Uiso   1.00
H84    H     0.86490   0.31230   0.07680   0.01267  Uiso   1.00
H85    H     0.65810   0.08530   0.05960   0.01267  Uiso   1.00
H86    H     0.51430   0.08420   0.91290   0.01267  Uiso   1.00
H87    H     0.49140   0.46480   0.32880   0.01267  Uiso   1.00
H88    H     0.36890   0.34330   0.32690   0.01267  Uiso   1.00
H89    H     0.27130   0.54240   0.43930   0.01267  Uiso   1.00
H90    H     0.39630   0.66780   0.44730   0.01267  Uiso   1.00
C1     C     0.78880   0.95950   0.74150   0.01267  Uiso   1.00
C2     C     0.59500   0.88170   0.66810   0.01267  Uiso   1.00
C3     C     0.48270   0.87730   0.59650   0.01267  Uiso   1.00
C4     C     0.47900   0.97780   0.63830   0.01267  Uiso   1.00
C5     C     0.57250   0.06090   0.65540   0.01267  Uiso   1.00
C6     C     0.68170   0.06060   0.72290   0.01267  Uiso   1.00
C7     C     0.36920   0.97530   0.56680   0.01267  Uiso   1.00
C8     C     0.72480   0.55940   0.27210   0.01267  Uiso   1.00
C9     C     0.84060   0.46920   0.28320   0.01267  Uiso   1.00
C10    C     0.90650   0.42240   0.34680   0.01267  Uiso   1.00
C11    C     0.84280   0.34880   0.36560   0.01267  Uiso   1.00
C12    C     0.78550   0.39280   0.41320   0.01267  Uiso   1.00
C13    C     0.71940   0.43580   0.34420   0.01267  Uiso   1.00
C14    C     0.91000   0.30530   0.43420   0.01267  Uiso   1.00
C15    C     0.21210   0.07360   0.79270   0.01267  Uiso   1.00
C16    C     0.16710   0.20020   0.88260   0.01267  Uiso   1.00
C17    C     0.19590   0.31010   0.93500   0.01267  Uiso   1.00
C18    C     0.31110   0.36770   0.04230   0.01267  Uiso   1.00
C19    C     0.39320   0.34190   0.02300   0.01267  Uiso   1.00
C20    C     0.35470   0.22660   0.96400   0.01267  Uiso   1.00
C21    C     0.33940   0.47970   0.08970   0.01267  Uiso   1.00
C22    C     0.49070   0.79240   0.17620   0.01267  Uiso   1.00
C23    C     0.39700   0.79340   0.08450   0.01267  Uiso   1.00
C24    C     0.29170   0.73000   0.03780   0.01267  Uiso   1.00
C25    C     0.20550   0.73390   0.95590   0.01267  Uiso   1.00
C26    C     0.22350   0.80590   0.92240   0.01267  Uiso   1.00
C27    C     0.32880   0.86980   0.96730   0.01267  Uiso   1.00
C28    C     0.41570   0.86780   0.05210   0.01267  Uiso   1.00
C29    C     0.12900   0.81050   0.83100   0.01267  Uiso   1.00
C30    C     0.45890   0.33700   0.60020   0.01267  Uiso   1.00
C31    C     0.53820   0.41790   0.60490   0.01267  Uiso   1.00
C32    C     0.55070   0.51860   0.64640   0.01267  Uiso   1.00
C33    C     0.62620   0.59180   0.64960   0.01267  Uiso   1.00
C34    C     0.69380   0.57210   0.61950   0.01267  Uiso   1.00
C35    C     0.68370   0.47270   0.58190   0.01267  Uiso   1.00
C36    C     0.60790   0.39700   0.57600   0.01267  Uiso   1.00
C37    C     0.77380   0.64980   0.62230   0.01267  Uiso   1.00
C38    C     0.21120   0.04050   0.25850   0.01267  Uiso   1.00
C39    C     0.40500   0.11830   0.33190   0.01267  Uiso   1.00
C40    C     0.51730   0.12270   0.40350   0.01267  Uiso   1.00
C41    C     0.52100   0.02220   0.36170   0.01267  Uiso   1.00
C42    C     0.42750   0.93910   0.34460   0.01267  Uiso   1.00
C43    C     0.31830   0.93940   0.27710   0.01267  Uiso   1.00
C44    C     0.63080   0.02470   0.43320   0.01267  Uiso   1.00
C45    C     0.27520   0.44060   0.72790   0.01267  Uiso   1.00
C46    C     0.15940   0.53080   0.71680   0.01267  Uiso   1.00
C47    C     0.09350   0.57760   0.65320   0.01267  Uiso   1.00
C48    C     0.15720   0.65120   0.63440   0.01267  Uiso   1.00
C49    C     0.21450   0.60720   0.58680   0.01267  Uiso   1.00
C50    C     0.28060   0.56420   0.65580   0.01267  Uiso   1.00
C51    C     0.09000   0.69470   0.56580   0.01267  Uiso   1.00
C52    C     0.78790   0.92640   0.20730   0.01267  Uiso   1.00
C53    C     0.83290   0.79980   0.11740   0.01267  Uiso   1.00
C54    C     0.80410   0.68990   0.06500   0.01267  Uiso   1.00
C55    C     0.68890   0.63230   0.95770   0.01267  Uiso   1.00
C56    C     0.60680   0.65810   0.97700   0.01267  Uiso   1.00
C57    C     0.64530   0.77340   0.03600   0.01267  Uiso   1.00
C58    C     0.66060   0.52030   0.91030   0.01267  Uiso   1.00
C59    C     0.50930   0.20760   0.82380   0.01267  Uiso   1.00
C60    C     0.60300   0.20660   0.91550   0.01267  Uiso   1.00
C61    C     0.70830   0.27000   0.96220   0.01267  Uiso   1.00
C62    C     0.79450   0.26610   0.04410   0.01267  Uiso   1.00
C63    C     0.77650   0.19410   0.07760   0.01267  Uiso   1.00
C64    C     0.67120   0.13020   0.03270   0.01267  Uiso   1.00
C65    C     0.58430   0.13220   0.94790   0.01267  Uiso   1.00
C66    C     0.87100   0.18950   0.16900   0.01267  Uiso   1.00
C67    C     0.54110   0.66300   0.39980   0.01267  Uiso   1.00
C68    C     0.46180   0.58210   0.39510   0.01267  Uiso   1.00
C69    C     0.44930   0.48140   0.35360   0.01267  Uiso   1.00
C70    C     0.37380   0.40820   0.35040   0.01267  Uiso   1.00
C71    C     0.30620   0.42790   0.38050   0.01267  Uiso   1.00
C72    C     0.31630   0.52730   0.41810   0.01267  Uiso   1.00
C73    C     0.39210   0.60300   0.42400   0.01267  Uiso   1.00
C74    C     0.22620   0.35020   0.37770   0.01267  Uiso   1.00
N1     N     0.67900   0.95970   0.67670   0.01267  Uiso   1.00
N2     N     0.78840   0.51350   0.33620   0.01267  Uiso   1.00
N3     N     0.24800   0.18170   0.85920   0.01267  Uiso   1.00
N4     N     0.32100   0.04030   0.32330   0.01267  Uiso   1.00
N5     N     0.21160   0.48650   0.66380   0.01267  Uiso   1.00
N6     N     0.75200   0.81830   0.14080   0.01267  Uiso   1.00
O1     O     0.97640   0.97470   0.76620   0.01267  Uiso   1.00
O2     O     0.81330   0.89170   0.57850   0.01267  Uiso   1.00
O3     O     0.88620   0.08100   0.68500   0.01267  Uiso   1.00
O4     O     0.28750   0.90330   0.53880   0.01267  Uiso   1.00
O5     O     0.36470   0.04470   0.53920   0.01267  Uiso   1.00
O6     O     0.72080   0.72230   0.25020   0.01267  Uiso   1.00
O7     O     0.82470   0.74400   0.43760   0.01267  Uiso   1.00
O8     O     0.90310   0.70740   0.32280   0.01267  Uiso   1.00
O9     O     0.86960   0.25680   0.46890   0.01267  Uiso   1.00
O10    O     0.00340   0.32190   0.45050   0.01267  Uiso   1.00
O11    O     0.05710   0.91110   0.59740   0.01267  Uiso   1.00
O12    O     0.04690   0.08030   0.62880   0.01267  Uiso   1.00
O13    O     0.18220   0.03910   0.59280   0.01267  Uiso   1.00
O14    O     0.27660   0.50720   0.11170   0.01267  Uiso   1.00
O15    O     0.41980   0.53190   0.10300   0.01267  Uiso   1.00
O16    O     0.47490   0.72790   0.20800   0.01267  Uiso   1.00
O17    O     0.58340   0.85930   0.22450   0.01267  Uiso   1.00
O18    O     0.03610   0.76550   0.80440   0.01267  Uiso   1.00
O19    O     0.14840   0.85920   0.78340   0.01267  Uiso   1.00
O20    O     0.40700   0.36120   0.64070   0.01267  Uiso   1.00
O21    O     0.44390   0.24930   0.55580   0.01267  Uiso   1.00
O22    O     0.79800   0.74120   0.67570   0.01267  Uiso   1.00
O23    O     0.81610   0.62460   0.57220   0.01267  Uiso   1.00
O24    O     0.02360   0.02530   0.23380   0.01267  Uiso   1.00
O25    O     0.18670   0.10830   0.42150   0.01267  Uiso   1.00
O26    O     0.11380   0.91900   0.31500   0.01267  Uiso   1.00
O27    O     0.71250   0.09670   0.46120   0.01267  Uiso   1.00
O28    O     0.63530   0.95530   0.46080   0.01267  Uiso   1.00
O29    O     0.27920   0.27770   0.74980   0.01267  Uiso   1.00
O30    O     0.17530   0.25600   0.56240   0.01267  Uiso   1.00
O31    O     0.09690   0.29260   0.67720   0.01267  Uiso   1.00
O32    O     0.13040   0.74320   0.53110   0.01267  Uiso   1.00
O33    O     0.99660   0.67810   0.54950   0.01267  Uiso   1.00
O34    O     0.94290   0.08890   0.40260   0.01267  Uiso   1.00
O35    O     0.95310   0.91970   0.37120   0.01267  Uiso   1.00
O36    O     0.81780   0.96090   0.40720   0.01267  Uiso   1.00
O37    O     0.72340   0.49280   0.88830   0.01267  Uiso   1.00
O38    O     0.58020   0.46810   0.89700   0.01267  Uiso   1.00
O39    O     0.52510   0.27210   0.79200   0.01267  Uiso   1.00
O40    O     0.41660   0.14070   0.77550   0.01267  Uiso   1.00
O41    O     0.96390   0.23450   0.19560   0.01267  Uiso   1.00
O42    O     0.85160   0.14080   0.21660   0.01267  Uiso   1.00
O43    O     0.59300   0.63880   0.35930   0.01267  Uiso   1.00
O44    O     0.55610   0.75070   0.44420   0.01267  Uiso   1.00
O45    O     0.20200   0.25880   0.32430   0.01267  Uiso   1.00
O46    O     0.18390   0.37540   0.42780   0.01267  Uiso   1.00
