data_MEJZOS_clean
_audit_creation_date              2014-07-02
_audit_creation_method            'Materials Studio'
_symmetry_space_group_name_H-M    'P1'
_symmetry_Int_Tables_number       1
_symmetry_cell_setting            triclinic
loop_
_symmetry_equiv_pos_as_xyz
  x,y,z
_cell_length_a                    15.1220
_cell_length_b                    15.1670
_cell_length_c                    15.2420
_cell_angle_alpha                 106.1990
_cell_angle_beta                  103.3500
_cell_angle_gamma                 116.9900
loop_
_atom_site_label
_atom_site_type_symbol
_atom_site_fract_x
_atom_site_fract_y
_atom_site_fract_z
_atom_site_U_iso_or_equiv
_atom_site_adp_type
_atom_site_occupancy
Pr1    Pr    0.81893   0.11428   0.68211   0.01267  Uiso   1.00
Pr2    Pr    0.55711   0.86584   0.69764   0.01267  Uiso   1.00
Pr3    Pr    0.41521   0.06337   0.64476   0.01267  Uiso   1.00
Pr4    Pr    0.18107   0.88572   0.31789   0.01267  Uiso   1.00
Pr5    Pr    0.44289   0.13416   0.30236   0.01267  Uiso   1.00
Pr6    Pr    0.58479   0.93663   0.35524   0.01267  Uiso   1.00
P1     P     0.61670   0.14240   0.52360   0.01267  Uiso   1.00
P2     P     0.69490   0.17420   0.80370   0.01267  Uiso   1.00
P3     P     0.62530   0.80840   0.51850   0.01267  Uiso   1.00
P4     P     0.38330   0.85760   0.47640   0.01267  Uiso   1.00
P5     P     0.30510   0.82580   0.19630   0.01267  Uiso   1.00
P6     P     0.37470   0.19160   0.48150   0.01267  Uiso   1.00
H1     H     0.79910   0.62690   0.06530   0.01267  Uiso   1.00
H2     H     0.75130   0.31910   0.71110   0.01267  Uiso   1.00
H3     H     0.65830   0.09670   0.93920   0.01267  Uiso   1.00
H4     H     0.83940   0.89180   0.55580   0.01267  Uiso   1.00
H5     H     0.67310   0.31450   0.52840   0.01267  Uiso   1.00
H6     H     0.77340   0.30430   0.55690   0.01267  Uiso   1.00
H7     H     0.84610   0.51240   0.69410   0.01267  Uiso   1.00
H8     H     0.90630   0.45290   0.70910   0.01267  Uiso   1.00
H9     H     0.96570   0.59490   0.86540   0.01267  Uiso   1.00
H10    H     0.90410   0.47990   0.86680   0.01267  Uiso   1.00
H11    H     0.80480   0.59730   0.84010   0.01267  Uiso   1.00
H12    H     0.64120   0.45150   0.81690   0.01267  Uiso   1.00
H13    H     0.69400   0.38610   0.83490   0.01267  Uiso   1.00
H14    H     0.58920   0.31470   0.65990   0.01267  Uiso   1.00
H15    H     0.66220   0.43230   0.66670   0.01267  Uiso   1.00
H16    H     0.83740   0.22170   0.94790   0.01267  Uiso   1.00
H17    H     0.80180   0.30360   0.97270   0.01267  Uiso   1.00
H18    H     0.71800   0.29320   0.08090   0.01267  Uiso   1.00
H19    H     0.61390   0.22300   0.97870   0.01267  Uiso   1.00
H20    H     0.56570   0.19350   0.10740   0.01267  Uiso   1.00
H21    H     0.52980   0.08270   0.02440   0.01267  Uiso   1.00
H22    H     0.71410   0.20630   0.20620   0.01267  Uiso   1.00
H23    H     0.76620   0.08820   0.16320   0.01267  Uiso   1.00
H24    H     0.66280   0.01270   0.06070   0.01267  Uiso   1.00
H25    H     0.80990   0.11630   0.03220   0.01267  Uiso   1.00
H26    H     0.83750   0.22500   0.11190   0.01267  Uiso   1.00
H27    H     0.67030   0.68070   0.48640   0.01267  Uiso   1.00
H28    H     0.71890   0.74710   0.60250   0.01267  Uiso   1.00
H29    H     0.88760   0.75460   0.60020   0.01267  Uiso   1.00
H30    H     0.90460   0.85440   0.68320   0.01267  Uiso   1.00
H31    H     0.07140   0.89760   0.67190   0.01267  Uiso   1.00
H32    H     0.03620   0.97170   0.64180   0.01267  Uiso   1.00
H33    H     0.00550   0.78590   0.50490   0.01267  Uiso   1.00
H34    H     0.92350   0.81150   0.37380   0.01267  Uiso   1.00
H35    H     0.94200   0.91720   0.44970   0.01267  Uiso   1.00
H36    H     0.76230   0.77310   0.39020   0.01267  Uiso   1.00
H37    H     0.80070   0.70300   0.42430   0.01267  Uiso   1.00
H38    H     0.00020   0.16550   0.02910   0.01267  Uiso   1.00
H39    H     0.12880   0.17500   0.15780   0.01267  Uiso   1.00
H40    H     0.24060   0.06970   0.96160   0.01267  Uiso   1.00
H41    H     0.06180   0.00520   0.87820   0.01267  Uiso   1.00
H42    H     0.01190   0.41060   0.58310   0.01267  Uiso   1.00
H43    H     0.15770   0.55020   0.57250   0.01267  Uiso   1.00
H44    H     0.36940   0.57840   0.81790   0.01267  Uiso   1.00
H45    H     0.21690   0.44400   0.82890   0.01267  Uiso   1.00
H46    H     0.20090   0.37310   0.93470   0.01267  Uiso   1.00
H47    H     0.24870   0.68090   0.28890   0.01267  Uiso   1.00
H48    H     0.34170   0.90330   0.06080   0.01267  Uiso   1.00
H49    H     0.16060   0.10820   0.44420   0.01267  Uiso   1.00
H50    H     0.32690   0.68550   0.47160   0.01267  Uiso   1.00
H51    H     0.22660   0.69570   0.44310   0.01267  Uiso   1.00
H52    H     0.15390   0.48760   0.30590   0.01267  Uiso   1.00
H53    H     0.09370   0.54710   0.29090   0.01267  Uiso   1.00
H54    H     0.03430   0.40510   0.13460   0.01267  Uiso   1.00
H55    H     0.09590   0.52010   0.13320   0.01267  Uiso   1.00
H56    H     0.19520   0.40270   0.15990   0.01267  Uiso   1.00
H57    H     0.35880   0.54850   0.18310   0.01267  Uiso   1.00
H58    H     0.30600   0.61390   0.16510   0.01267  Uiso   1.00
H59    H     0.41080   0.68530   0.34010   0.01267  Uiso   1.00
H60    H     0.33780   0.56770   0.33330   0.01267  Uiso   1.00
H61    H     0.16260   0.77830   0.05210   0.01267  Uiso   1.00
H62    H     0.19820   0.69640   0.02730   0.01267  Uiso   1.00
H63    H     0.28200   0.70680   0.91910   0.01267  Uiso   1.00
H64    H     0.38610   0.77700   0.02130   0.01267  Uiso   1.00
H65    H     0.43430   0.80650   0.89260   0.01267  Uiso   1.00
H66    H     0.47020   0.91730   0.97560   0.01267  Uiso   1.00
H67    H     0.28590   0.79370   0.79380   0.01267  Uiso   1.00
H68    H     0.23380   0.91180   0.83680   0.01267  Uiso   1.00
H69    H     0.33720   0.98730   0.93930   0.01267  Uiso   1.00
H70    H     0.19010   0.88370   0.96780   0.01267  Uiso   1.00
H71    H     0.16250   0.77500   0.88810   0.01267  Uiso   1.00
H72    H     0.32970   0.31930   0.51360   0.01267  Uiso   1.00
H73    H     0.28110   0.25290   0.39750   0.01267  Uiso   1.00
H74    H     0.11240   0.24540   0.39980   0.01267  Uiso   1.00
H75    H     0.09540   0.14560   0.31680   0.01267  Uiso   1.00
H76    H     0.92860   0.10240   0.32810   0.01267  Uiso   1.00
H77    H     0.96380   0.02830   0.35820   0.01267  Uiso   1.00
H78    H     0.99450   0.21410   0.49510   0.01267  Uiso   1.00
H79    H     0.07650   0.18850   0.62620   0.01267  Uiso   1.00
H80    H     0.05800   0.08280   0.55030   0.01267  Uiso   1.00
H81    H     0.23770   0.22690   0.60980   0.01267  Uiso   1.00
H82    H     0.19930   0.29700   0.57570   0.01267  Uiso   1.00
H83    H     0.99980   0.83450   0.97090   0.01267  Uiso   1.00
H84    H     0.87120   0.82500   0.84220   0.01267  Uiso   1.00
H85    H     0.75940   0.93030   0.03840   0.01267  Uiso   1.00
H86    H     0.93820   0.99480   0.12180   0.01267  Uiso   1.00
H87    H     0.98810   0.58940   0.41690   0.01267  Uiso   1.00
H88    H     0.84230   0.44980   0.42750   0.01267  Uiso   1.00
H89    H     0.63060   0.42160   0.18210   0.01267  Uiso   1.00
H90    H     0.78310   0.55600   0.17110   0.01267  Uiso   1.00
C1     C     0.70850   0.28980   0.56780   0.01267  Uiso   1.00
C2     C     0.85320   0.46560   0.72380   0.01267  Uiso   1.00
C3     C     0.89530   0.52590   0.83690   0.01267  Uiso   1.00
C4     C     0.80700   0.54430   0.86290   0.01267  Uiso   1.00
C5     C     0.69440   0.43620   0.80660   0.01267  Uiso   1.00
C6     C     0.66200   0.38170   0.69430   0.01267  Uiso   1.00
C7     C     0.84200   0.58900   0.97600   0.01267  Uiso   1.00
C8     C     0.77470   0.22700   0.93920   0.01267  Uiso   1.00
C9     C     0.66050   0.21910   0.03130   0.01267  Uiso   1.00
C10    C     0.59270   0.15330   0.07580   0.01267  Uiso   1.00
C11    C     0.65790   0.13470   0.15180   0.01267  Uiso   1.00
C12    C     0.71650   0.08810   0.10960   0.01267  Uiso   1.00
C13    C     0.77820   0.15190   0.06170   0.01267  Uiso   1.00
C14    C     0.59130   0.06760   0.19530   0.01267  Uiso   1.00
C15    C     0.70940   0.75360   0.53990   0.01267  Uiso   1.00
C16    C     0.90500   0.82840   0.61830   0.01267  Uiso   1.00
C17    C     0.01740   0.89730   0.62230   0.01267  Uiso   1.00
C18    C     0.01970   0.85840   0.52050   0.01267  Uiso   1.00
C19    C     0.92630   0.84490   0.43870   0.01267  Uiso   1.00
C20    C     0.81900   0.77680   0.44000   0.01267  Uiso   1.00
C21    C     0.13030   0.93260   0.52280   0.01267  Uiso   1.00
C22    C     0.95490   0.09710   0.83390   0.01267  Uiso   1.00
C23    C     0.04110   0.10880   0.92020   0.01267  Uiso   1.00
C24    C     0.04770   0.14260   0.01620   0.01267  Uiso   1.00
C25    C     0.12500   0.15150   0.09080   0.01267  Uiso   1.00
C26    C     0.19650   0.12040   0.07150   0.01267  Uiso   1.00
C27    C     0.19120   0.08990   0.97420   0.01267  Uiso   1.00
C28    C     0.11220   0.08080   0.89390   0.01267  Uiso   1.00
C29    C     0.27710   0.12310   0.14890   0.01267  Uiso   1.00
C30    C     0.00850   0.32290   0.70780   0.01267  Uiso   1.00
C31    C     0.10280   0.41570   0.70490   0.01267  Uiso   1.00
C32    C     0.08580   0.44760   0.63310   0.01267  Uiso   1.00
C33    C     0.16930   0.52710   0.62510   0.01267  Uiso   1.00
C34    C     0.27670   0.58020   0.69570   0.01267  Uiso   1.00
C35    C     0.29570   0.54420   0.76880   0.01267  Uiso   1.00
C36    C     0.20660   0.46310   0.77330   0.01267  Uiso   1.00
C37    C     0.37030   0.66850   0.68940   0.01267  Uiso   1.00
C38    C     0.29150   0.71020   0.43220   0.01267  Uiso   1.00
C39    C     0.14680   0.53440   0.27620   0.01267  Uiso   1.00
C40    C     0.10470   0.47410   0.16310   0.01267  Uiso   1.00
C41    C     0.19300   0.45570   0.13710   0.01267  Uiso   1.00
C42    C     0.30560   0.56380   0.19340   0.01267  Uiso   1.00
C43    C     0.33800   0.61830   0.30570   0.01267  Uiso   1.00
C44    C     0.15800   0.41100   0.02400   0.01267  Uiso   1.00
C45    C     0.22530   0.77300   0.06080   0.01267  Uiso   1.00
C46    C     0.33950   0.78090   0.96870   0.01267  Uiso   1.00
C47    C     0.40730   0.84670   0.92420   0.01267  Uiso   1.00
C48    C     0.34210   0.86530   0.84820   0.01267  Uiso   1.00
C49    C     0.28350   0.91190   0.89040   0.01267  Uiso   1.00
C50    C     0.22180   0.84810   0.93830   0.01267  Uiso   1.00
C51    C     0.40870   0.93240   0.80470   0.01267  Uiso   1.00
C52    C     0.29060   0.24640   0.46010   0.01267  Uiso   1.00
C53    C     0.09500   0.17160   0.38170   0.01267  Uiso   1.00
C54    C     0.98260   0.10270   0.37770   0.01267  Uiso   1.00
C55    C     0.98030   0.14160   0.47950   0.01267  Uiso   1.00
C56    C     0.07370   0.15510   0.56130   0.01267  Uiso   1.00
C57    C     0.18100   0.22320   0.56000   0.01267  Uiso   1.00
C58    C     0.86970   0.06740   0.47720   0.01267  Uiso   1.00
C59    C     0.04510   0.90290   0.16610   0.01267  Uiso   1.00
C60    C     0.95890   0.89120   0.07980   0.01267  Uiso   1.00
C61    C     0.95230   0.85740   0.98380   0.01267  Uiso   1.00
C62    C     0.87500   0.84850   0.90920   0.01267  Uiso   1.00
C63    C     0.80350   0.87960   0.92850   0.01267  Uiso   1.00
C64    C     0.80880   0.91010   0.02580   0.01267  Uiso   1.00
C65    C     0.88780   0.91920   0.10610   0.01267  Uiso   1.00
C66    C     0.72290   0.87690   0.85110   0.01267  Uiso   1.00
C67    C     0.99150   0.67710   0.29220   0.01267  Uiso   1.00
C68    C     0.89720   0.58430   0.29510   0.01267  Uiso   1.00
C69    C     0.91420   0.55240   0.36690   0.01267  Uiso   1.00
C70    C     0.83070   0.47290   0.37490   0.01267  Uiso   1.00
C71    C     0.72330   0.41980   0.30430   0.01267  Uiso   1.00
C72    C     0.70430   0.45580   0.23120   0.01267  Uiso   1.00
C73    C     0.79340   0.53690   0.22670   0.01267  Uiso   1.00
C74    C     0.62970   0.33150   0.31060   0.01267  Uiso   1.00
N1     N     0.74530   0.35860   0.67730   0.01267  Uiso   1.00
N2     N     0.71270   0.16540   0.98680   0.01267  Uiso   1.00
N3     N     0.82210   0.82250   0.54090   0.01267  Uiso   1.00
N4     N     0.25470   0.64140   0.32270   0.01267  Uiso   1.00
N5     N     0.28730   0.83460   0.01320   0.01267  Uiso   1.00
N6     N     0.17790   0.17750   0.45910   0.01267  Uiso   1.00
O1     O     0.55820   0.09830   0.41130   0.01267  Uiso   1.00
O2     O     0.54520   0.12630   0.57980   0.01267  Uiso   1.00
O3     O     0.68250   0.09140   0.53750   0.01267  Uiso   1.00
O4     O     0.92660   0.60760   0.03380   0.01267  Uiso   1.00
O5     O     0.77400   0.60300   0.00140   0.01267  Uiso   1.00
O6     O     0.77930   0.24850   0.77400   0.01267  Uiso   1.00
O7     O     0.67150   0.05790   0.75210   0.01267  Uiso   1.00
O8     O     0.59250   0.17430   0.78660   0.01267  Uiso   1.00
O9     O     0.49800   0.05000   0.18110   0.01267  Uiso   1.00
O10    O     0.62820   0.02640   0.24360   0.01267  Uiso   1.00
O11    O     0.61340   0.81630   0.42130   0.01267  Uiso   1.00
O12    O     0.68790   0.92230   0.61010   0.01267  Uiso   1.00
O13    O     0.52360   0.73580   0.52980   0.01267  Uiso   1.00
O14    O     0.21350   0.96190   0.59710   0.01267  Uiso   1.00
O15    O     0.13570   0.96040   0.45440   0.01267  Uiso   1.00
O16    O     0.91420   0.27460   0.63770   0.01267  Uiso   1.00
O17    O     0.02130   0.29080   0.77440   0.01267  Uiso   1.00
O18    O     0.35120   0.71760   0.64150   0.01267  Uiso   1.00
O19    O     0.46470   0.69430   0.73570   0.01267  Uiso   1.00
O20    O     0.94180   0.05320   0.74470   0.01267  Uiso   1.00
O21    O     0.90210   0.13580   0.85430   0.01267  Uiso   1.00
O22    O     0.30120   0.17940   0.24110   0.01267  Uiso   1.00
O23    O     0.31830   0.07250   0.12600   0.01267  Uiso   1.00
O24    O     0.44180   0.90170   0.58870   0.01267  Uiso   1.00
O25    O     0.45480   0.87370   0.42020   0.01267  Uiso   1.00
O26    O     0.31750   0.90860   0.46250   0.01267  Uiso   1.00
O27    O     0.07340   0.39240   0.96620   0.01267  Uiso   1.00
O28    O     0.22600   0.39700   0.99860   0.01267  Uiso   1.00
O29    O     0.22070   0.75150   0.22600   0.01267  Uiso   1.00
O30    O     0.32850   0.94210   0.24790   0.01267  Uiso   1.00
O31    O     0.40750   0.82570   0.21340   0.01267  Uiso   1.00
O32    O     0.50200   0.95000   0.81890   0.01267  Uiso   1.00
O33    O     0.37180   0.97360   0.75640   0.01267  Uiso   1.00
O34    O     0.38660   0.18370   0.57870   0.01267  Uiso   1.00
O35    O     0.31210   0.07770   0.38990   0.01267  Uiso   1.00
O36    O     0.47640   0.26420   0.47020   0.01267  Uiso   1.00
O37    O     0.78650   0.03810   0.40290   0.01267  Uiso   1.00
O38    O     0.86430   0.03960   0.54560   0.01267  Uiso   1.00
O39    O     0.08580   0.72540   0.36230   0.01267  Uiso   1.00
O40    O     0.97870   0.70920   0.22560   0.01267  Uiso   1.00
O41    O     0.64880   0.28240   0.35850   0.01267  Uiso   1.00
O42    O     0.53530   0.30570   0.26430   0.01267  Uiso   1.00
O43    O     0.05820   0.94680   0.25530   0.01267  Uiso   1.00
O44    O     0.09790   0.86420   0.14570   0.01267  Uiso   1.00
O45    O     0.69880   0.82060   0.75890   0.01267  Uiso   1.00
O46    O     0.68170   0.92750   0.87400   0.01267  Uiso   1.00
