data_MEJZIM_clean
_audit_creation_date              2014-07-02
_audit_creation_method            'Materials Studio'
_symmetry_space_group_name_H-M    'P1'
_symmetry_Int_Tables_number       1
_symmetry_cell_setting            triclinic
loop_
_symmetry_equiv_pos_as_xyz
  x,y,z
_cell_length_a                    15.2095
_cell_length_b                    15.3049
_cell_length_c                    15.3698
_cell_angle_alpha                 106.4850
_cell_angle_beta                  117.1430
_cell_angle_gamma                 103.2360
loop_
_atom_site_label
_atom_site_type_symbol
_atom_site_fract_x
_atom_site_fract_y
_atom_site_fract_z
_atom_site_U_iso_or_equiv
_atom_site_adp_type
_atom_site_occupancy
Ce1    Ce    0.94314   0.80242   0.63389   0.01267  Uiso   1.00
Ce2    Ce    0.67948   0.81725   0.38487   0.01267  Uiso   1.00
Ce3    Ce    0.91537   0.14570   0.56272   0.01267  Uiso   1.00
Ce4    Ce    0.05686   0.19758   0.36611   0.01267  Uiso   1.00
Ce5    Ce    0.32052   0.18275   0.61513   0.01267  Uiso   1.00
Ce6    Ce    0.08463   0.85430   0.43728   0.01267  Uiso   1.00
P1     P     0.87425   0.98235   0.68990   0.01267  Uiso   1.00
P2     P     0.80358   0.69495   0.32610   0.01267  Uiso   1.00
P3     P     0.11717   0.02455   0.64270   0.01267  Uiso   1.00
P4     P     0.12575   0.01765   0.31010   0.01267  Uiso   1.00
P5     P     0.19642   0.30505   0.67390   0.01267  Uiso   1.00
P6     P     0.88283   0.97545   0.35730   0.01267  Uiso   1.00
H1     H     0.29480   0.52540   0.17690   0.01267  Uiso   1.00
H2     H     0.66330   0.94450   0.60900   0.01267  Uiso   1.00
H3     H     0.84110   0.56210   0.40360   0.01267  Uiso   1.00
H4     H     0.25420   0.21370   0.81960   0.01267  Uiso   1.00
H5     H     0.82800   0.00970   0.81630   0.01267  Uiso   1.00
H6     H     0.77870   0.89430   0.74230   0.01267  Uiso   1.00
H7     H     0.59510   0.81660   0.63650   0.01267  Uiso   1.00
H8     H     0.61130   0.89460   0.74040   0.01267  Uiso   1.00
H9     H     0.42940   0.82710   0.59750   0.01267  Uiso   1.00
H10    H     0.46190   0.85500   0.52240   0.01267  Uiso   1.00
H11    H     0.49250   0.99250   0.71090   0.01267  Uiso   1.00
H12    H     0.57650   0.12620   0.69410   0.01267  Uiso   1.00
H13    H     0.55870   0.05490   0.58580   0.01267  Uiso   1.00
H14    H     0.70320   0.07980   0.79660   0.01267  Uiso   1.00
H15    H     0.73600   0.10830   0.72210   0.01267  Uiso   1.00
H16    H     0.70010   0.52680   0.19680   0.01267  Uiso   1.00
H17    H     0.66060   0.55160   0.27510   0.01267  Uiso   1.00
H18    H     0.78620   0.42100   0.21120   0.01267  Uiso   1.00
H19    H     0.88890   0.52410   0.28440   0.01267  Uiso   1.00
H20    H     0.97150   0.47580   0.41610   0.01267  Uiso   1.00
H21    H     0.93130   0.38910   0.30440   0.01267  Uiso   1.00
H22    H     0.78630   0.29240   0.29510   0.01267  Uiso   1.00
H23    H     0.83680   0.44180   0.48720   0.01267  Uiso   1.00
H24    H     0.73520   0.33780   0.41200   0.01267  Uiso   1.00
H25    H     0.68870   0.46950   0.38340   0.01267  Uiso   1.00
H26    H     0.65850   0.38550   0.27470   0.01267  Uiso   1.00
H27    H     0.27520   0.05970   0.80460   0.01267  Uiso   1.00
H28    H     0.17640   0.03370   0.81570   0.01267  Uiso   1.00
H29    H     0.09470   0.16650   0.81350   0.01267  Uiso   1.00
H30    H     0.16320   0.17050   0.92910   0.01267  Uiso   1.00
H31    H     0.19440   0.33720   0.88420   0.01267  Uiso   1.00
H32    H     0.14480   0.32030   0.95120   0.01267  Uiso   1.00
H33    H     0.30930   0.34150   0.09260   0.01267  Uiso   1.00
H34    H     0.40680   0.36970   0.97780   0.01267  Uiso   1.00
H35    H     0.46400   0.36710   0.09110   0.01267  Uiso   1.00
H36    H     0.35210   0.19650   0.00940   0.01267  Uiso   1.00
H37    H     0.40880   0.21230   0.94810   0.01267  Uiso   1.00
H38    H     0.27910   0.67740   0.05750   0.01267  Uiso   1.00
H39    H     0.13520   0.68750   0.92120   0.01267  Uiso   1.00
H40    H     0.34130   0.91970   0.94470   0.01267  Uiso   1.00
H41    H     0.48630   0.91690   0.08670   0.01267  Uiso   1.00
H42    H     0.50390   0.53210   0.66560   0.01267  Uiso   1.00
H43    H     0.63120   0.65700   0.67730   0.01267  Uiso   1.00
H44    H     0.73270   0.45950   0.56430   0.01267  Uiso   1.00
H45    H     0.60130   0.33150   0.54830   0.01267  Uiso   1.00
H46    H     0.70520   0.47460   0.82310   0.01267  Uiso   1.00
H47    H     0.33670   0.05550   0.39100   0.01267  Uiso   1.00
H48    H     0.15890   0.43790   0.59640   0.01267  Uiso   1.00
H49    H     0.74580   0.78630   0.18040   0.01267  Uiso   1.00
H50    H     0.17200   0.99030   0.18370   0.01267  Uiso   1.00
H51    H     0.22130   0.10570   0.25770   0.01267  Uiso   1.00
H52    H     0.40490   0.18340   0.36350   0.01267  Uiso   1.00
H53    H     0.38870   0.10540   0.25960   0.01267  Uiso   1.00
H54    H     0.57060   0.17290   0.40250   0.01267  Uiso   1.00
H55    H     0.53810   0.14500   0.47760   0.01267  Uiso   1.00
H56    H     0.50750   0.00750   0.28910   0.01267  Uiso   1.00
H57    H     0.42350   0.87380   0.30590   0.01267  Uiso   1.00
H58    H     0.44130   0.94510   0.41420   0.01267  Uiso   1.00
H59    H     0.29680   0.92020   0.20340   0.01267  Uiso   1.00
H60    H     0.26400   0.89170   0.27790   0.01267  Uiso   1.00
H61    H     0.29990   0.47320   0.80320   0.01267  Uiso   1.00
H62    H     0.33940   0.44840   0.72490   0.01267  Uiso   1.00
H63    H     0.21380   0.57900   0.78880   0.01267  Uiso   1.00
H64    H     0.11110   0.47590   0.71560   0.01267  Uiso   1.00
H65    H     0.02850   0.52420   0.58390   0.01267  Uiso   1.00
H66    H     0.06870   0.61090   0.69560   0.01267  Uiso   1.00
H67    H     0.21370   0.70760   0.70490   0.01267  Uiso   1.00
H68    H     0.16320   0.55820   0.51280   0.01267  Uiso   1.00
H69    H     0.26480   0.66220   0.58800   0.01267  Uiso   1.00
H70    H     0.31130   0.53050   0.61660   0.01267  Uiso   1.00
H71    H     0.34150   0.61450   0.72530   0.01267  Uiso   1.00
H72    H     0.72480   0.94030   0.19540   0.01267  Uiso   1.00
H73    H     0.82360   0.96630   0.18430   0.01267  Uiso   1.00
H74    H     0.90530   0.83350   0.18650   0.01267  Uiso   1.00
H75    H     0.83680   0.82950   0.07090   0.01267  Uiso   1.00
H76    H     0.80560   0.66280   0.11580   0.01267  Uiso   1.00
H77    H     0.85520   0.67970   0.04880   0.01267  Uiso   1.00
H78    H     0.69070   0.65850   0.90740   0.01267  Uiso   1.00
H79    H     0.59320   0.63030   0.02220   0.01267  Uiso   1.00
H80    H     0.53600   0.63290   0.90890   0.01267  Uiso   1.00
H81    H     0.64790   0.80350   0.99060   0.01267  Uiso   1.00
H82    H     0.59120   0.78770   0.05190   0.01267  Uiso   1.00
H83    H     0.72090   0.32260   0.94250   0.01267  Uiso   1.00
H84    H     0.86480   0.31250   0.07880   0.01267  Uiso   1.00
H85    H     0.65870   0.08030   0.05530   0.01267  Uiso   1.00
H86    H     0.51370   0.08310   0.91330   0.01267  Uiso   1.00
H87    H     0.49610   0.46790   0.33440   0.01267  Uiso   1.00
H88    H     0.36880   0.34300   0.32270   0.01267  Uiso   1.00
H89    H     0.26730   0.54050   0.43570   0.01267  Uiso   1.00
H90    H     0.39870   0.66850   0.45170   0.01267  Uiso   1.00
C1     C     0.78940   0.95890   0.74140   0.01267  Uiso   1.00
C2     C     0.59500   0.88130   0.66790   0.01267  Uiso   1.00
C3     C     0.48220   0.87640   0.59720   0.01267  Uiso   1.00
C4     C     0.47980   0.97760   0.63880   0.01267  Uiso   1.00
C5     C     0.57340   0.06180   0.65640   0.01267  Uiso   1.00
C6     C     0.68180   0.05980   0.72160   0.01267  Uiso   1.00
C7     C     0.36750   0.97530   0.56680   0.01267  Uiso   1.00
C8     C     0.72460   0.56080   0.27270   0.01267  Uiso   1.00
C9     C     0.84150   0.47100   0.28610   0.01267  Uiso   1.00
C10    C     0.90720   0.42360   0.34650   0.01267  Uiso   1.00
C11    C     0.84300   0.34900   0.36700   0.01267  Uiso   1.00
C12    C     0.78400   0.39110   0.41200   0.01267  Uiso   1.00
C13    C     0.71870   0.43770   0.34680   0.01267  Uiso   1.00
C14    C     0.90990   0.30540   0.43460   0.01267  Uiso   1.00
C15    C     0.21140   0.07200   0.79100   0.01267  Uiso   1.00
C16    C     0.16620   0.19920   0.88130   0.01267  Uiso   1.00
C17    C     0.19700   0.30980   0.93460   0.01267  Uiso   1.00
C18    C     0.31170   0.36500   0.04030   0.01267  Uiso   1.00
C19    C     0.39510   0.33930   0.02130   0.01267  Uiso   1.00
C20    C     0.35670   0.22630   0.96290   0.01267  Uiso   1.00
C21    C     0.33730   0.47960   0.08830   0.01267  Uiso   1.00
C22    C     0.49230   0.79240   0.17790   0.01267  Uiso   1.00
C23    C     0.39740   0.79550   0.08650   0.01267  Uiso   1.00
C24    C     0.29240   0.72750   0.03640   0.01267  Uiso   1.00
C25    C     0.20610   0.73350   0.95430   0.01267  Uiso   1.00
C26    C     0.22440   0.80540   0.92240   0.01267  Uiso   1.00
C27    C     0.32900   0.87230   0.96940   0.01267  Uiso   1.00
C28    C     0.41590   0.86960   0.05290   0.01267  Uiso   1.00
C29    C     0.12890   0.81000   0.83060   0.01267  Uiso   1.00
C30    C     0.45810   0.33660   0.59850   0.01267  Uiso   1.00
C31    C     0.54010   0.41920   0.60810   0.01267  Uiso   1.00
C32    C     0.54950   0.51720   0.64500   0.01267  Uiso   1.00
C33    C     0.62520   0.59170   0.65130   0.01267  Uiso   1.00
C34    C     0.69470   0.57130   0.61880   0.01267  Uiso   1.00
C35    C     0.68580   0.47390   0.58320   0.01267  Uiso   1.00
C36    C     0.60810   0.39700   0.57520   0.01267  Uiso   1.00
C37    C     0.77470   0.65070   0.62250   0.01267  Uiso   1.00
C38    C     0.21060   0.04110   0.25860   0.01267  Uiso   1.00
C39    C     0.40500   0.11870   0.33210   0.01267  Uiso   1.00
C40    C     0.51780   0.12360   0.40280   0.01267  Uiso   1.00
C41    C     0.52020   0.02240   0.36120   0.01267  Uiso   1.00
C42    C     0.42660   0.93820   0.34360   0.01267  Uiso   1.00
C43    C     0.31820   0.94020   0.27840   0.01267  Uiso   1.00
C44    C     0.63250   0.02470   0.43320   0.01267  Uiso   1.00
C45    C     0.27540   0.43920   0.72730   0.01267  Uiso   1.00
C46    C     0.15850   0.52900   0.71390   0.01267  Uiso   1.00
C47    C     0.09280   0.57640   0.65350   0.01267  Uiso   1.00
C48    C     0.15700   0.65100   0.63300   0.01267  Uiso   1.00
C49    C     0.21600   0.60890   0.58800   0.01267  Uiso   1.00
C50    C     0.28130   0.56230   0.65320   0.01267  Uiso   1.00
C51    C     0.09010   0.69460   0.56540   0.01267  Uiso   1.00
C52    C     0.78860   0.92800   0.20900   0.01267  Uiso   1.00
C53    C     0.83380   0.80080   0.11870   0.01267  Uiso   1.00
C54    C     0.80300   0.69020   0.06540   0.01267  Uiso   1.00
C55    C     0.68830   0.63500   0.95970   0.01267  Uiso   1.00
C56    C     0.60490   0.66070   0.97870   0.01267  Uiso   1.00
C57    C     0.64330   0.77370   0.03710   0.01267  Uiso   1.00
C58    C     0.66270   0.52040   0.91170   0.01267  Uiso   1.00
C59    C     0.50770   0.20760   0.82210   0.01267  Uiso   1.00
C60    C     0.60260   0.20450   0.91350   0.01267  Uiso   1.00
C61    C     0.70760   0.27250   0.96360   0.01267  Uiso   1.00
C62    C     0.79390   0.26650   0.04570   0.01267  Uiso   1.00
C63    C     0.77560   0.19460   0.07760   0.01267  Uiso   1.00
C64    C     0.67100   0.12770   0.03060   0.01267  Uiso   1.00
C65    C     0.58410   0.13040   0.94710   0.01267  Uiso   1.00
C66    C     0.87110   0.19000   0.16940   0.01267  Uiso   1.00
C67    C     0.54190   0.66340   0.40150   0.01267  Uiso   1.00
C68    C     0.45990   0.58080   0.39190   0.01267  Uiso   1.00
C69    C     0.45050   0.48280   0.35500   0.01267  Uiso   1.00
C70    C     0.37480   0.40830   0.34870   0.01267  Uiso   1.00
C71    C     0.30530   0.42870   0.38120   0.01267  Uiso   1.00
C72    C     0.31420   0.52610   0.41680   0.01267  Uiso   1.00
C73    C     0.39190   0.60300   0.42480   0.01267  Uiso   1.00
C74    C     0.22530   0.34930   0.37750   0.01267  Uiso   1.00
N1     N     0.68000   0.95900   0.67710   0.01267  Uiso   1.00
N2     N     0.78820   0.51350   0.33560   0.01267  Uiso   1.00
N3     N     0.24800   0.18130   0.85820   0.01267  Uiso   1.00
N4     N     0.32000   0.04100   0.32290   0.01267  Uiso   1.00
N5     N     0.21180   0.48650   0.66440   0.01267  Uiso   1.00
N6     N     0.75200   0.81870   0.14180   0.01267  Uiso   1.00
O1     O     0.97680   0.97310   0.76450   0.01267  Uiso   1.00
O2     O     0.81370   0.89190   0.57920   0.01267  Uiso   1.00
O3     O     0.88730   0.07970   0.68350   0.01267  Uiso   1.00
O4     O     0.28650   0.90250   0.53890   0.01267  Uiso   1.00
O5     O     0.36360   0.04460   0.53860   0.01267  Uiso   1.00
O6     O     0.72090   0.72430   0.25270   0.01267  Uiso   1.00
O7     O     0.82550   0.74520   0.43910   0.01267  Uiso   1.00
O8     O     0.90470   0.70970   0.32580   0.01267  Uiso   1.00
O9     O     0.87030   0.25650   0.47080   0.01267  Uiso   1.00
O10    O     0.00280   0.31990   0.45020   0.01267  Uiso   1.00
O11    O     0.05640   0.91030   0.59670   0.01267  Uiso   1.00
O12    O     0.04610   0.08060   0.62770   0.01267  Uiso   1.00
O13    O     0.18130   0.03840   0.59140   0.01267  Uiso   1.00
O14    O     0.27810   0.50790   0.11180   0.01267  Uiso   1.00
O15    O     0.42280   0.53180   0.10650   0.01267  Uiso   1.00
O16    O     0.47620   0.72790   0.20910   0.01267  Uiso   1.00
O17    O     0.58510   0.86110   0.22700   0.01267  Uiso   1.00
O18    O     0.03380   0.76370   0.80190   0.01267  Uiso   1.00
O19    O     0.14890   0.86010   0.78290   0.01267  Uiso   1.00
O20    O     0.40520   0.35850   0.63900   0.01267  Uiso   1.00
O21    O     0.44330   0.24770   0.55510   0.01267  Uiso   1.00
O22    O     0.79970   0.74260   0.67730   0.01267  Uiso   1.00
O23    O     0.81740   0.62520   0.57270   0.01267  Uiso   1.00
O24    O     0.02320   0.02690   0.23550   0.01267  Uiso   1.00
O25    O     0.18630   0.10810   0.42080   0.01267  Uiso   1.00
O26    O     0.11270   0.92030   0.31650   0.01267  Uiso   1.00
O27    O     0.71350   0.09750   0.46110   0.01267  Uiso   1.00
O28    O     0.63640   0.95540   0.46140   0.01267  Uiso   1.00
O29    O     0.27910   0.27570   0.74730   0.01267  Uiso   1.00
O30    O     0.17450   0.25480   0.56090   0.01267  Uiso   1.00
O31    O     0.09530   0.29030   0.67420   0.01267  Uiso   1.00
O32    O     0.12970   0.74350   0.52920   0.01267  Uiso   1.00
O33    O     0.99720   0.68010   0.54980   0.01267  Uiso   1.00
O34    O     0.94360   0.08970   0.40330   0.01267  Uiso   1.00
O35    O     0.95390   0.91940   0.37230   0.01267  Uiso   1.00
O36    O     0.81870   0.96160   0.40860   0.01267  Uiso   1.00
O37    O     0.72190   0.49210   0.88820   0.01267  Uiso   1.00
O38    O     0.57720   0.46820   0.89350   0.01267  Uiso   1.00
O39    O     0.52380   0.27210   0.79090   0.01267  Uiso   1.00
O40    O     0.41490   0.13890   0.77300   0.01267  Uiso   1.00
O41    O     0.96620   0.23630   0.19810   0.01267  Uiso   1.00
O42    O     0.85110   0.13990   0.21710   0.01267  Uiso   1.00
O43    O     0.59480   0.64150   0.36100   0.01267  Uiso   1.00
O44    O     0.55670   0.75230   0.44490   0.01267  Uiso   1.00
O45    O     0.20030   0.25740   0.32270   0.01267  Uiso   1.00
O46    O     0.18260   0.37480   0.42730   0.01267  Uiso   1.00
