data_MEJZUY_clean
_audit_creation_date              2014-07-02
_audit_creation_method            'Materials Studio'
_symmetry_space_group_name_H-M    'P1'
_symmetry_Int_Tables_number       1
_symmetry_cell_setting            triclinic
loop_
_symmetry_equiv_pos_as_xyz
  x,y,z
_cell_length_a                    15.0400
_cell_length_b                    15.0900
_cell_length_c                    15.1790
_cell_angle_alpha                 105.6890
_cell_angle_beta                  103.5590
_cell_angle_gamma                 117.1110
loop_
_atom_site_label
_atom_site_type_symbol
_atom_site_fract_x
_atom_site_fract_y
_atom_site_fract_z
_atom_site_U_iso_or_equiv
_atom_site_adp_type
_atom_site_occupancy
Sm1    Sm    0.81753   0.11268   0.68093   0.01267  Uiso   1.00
Sm2    Sm    0.55724   0.86681   0.69783   0.01267  Uiso   1.00
Sm3    Sm    0.41570   0.06229   0.64294   0.01267  Uiso   1.00
Sm4    Sm    0.18247   0.88732   0.31907   0.01267  Uiso   1.00
Sm5    Sm    0.44276   0.13319   0.30217   0.01267  Uiso   1.00
Sm6    Sm    0.58430   0.93771   0.35706   0.01267  Uiso   1.00
P1     P     0.61690   0.14170   0.52260   0.01267  Uiso   1.00
P2     P     0.69460   0.17190   0.80090   0.01267  Uiso   1.00
P3     P     0.62500   0.81050   0.52120   0.01267  Uiso   1.00
P4     P     0.38310   0.85830   0.47740   0.01267  Uiso   1.00
P5     P     0.30540   0.82810   0.19910   0.01267  Uiso   1.00
P6     P     0.37500   0.18950   0.47880   0.01267  Uiso   1.00
H1     H     0.79840   0.62520   0.06730   0.01267  Uiso   1.00
H2     H     0.74980   0.32030   0.70970   0.01267  Uiso   1.00
H3     H     0.65710   0.09360   0.93680   0.01267  Uiso   1.00
H4     H     0.83660   0.89030   0.55680   0.01267  Uiso   1.00
H5     H     0.67490   0.31480   0.52860   0.01267  Uiso   1.00
H6     H     0.77520   0.30460   0.55710   0.01267  Uiso   1.00
H7     H     0.84820   0.50940   0.68890   0.01267  Uiso   1.00
H8     H     0.90840   0.44990   0.70390   0.01267  Uiso   1.00
H9     H     0.96400   0.59190   0.86130   0.01267  Uiso   1.00
H10    H     0.90240   0.47690   0.86270   0.01267  Uiso   1.00
H11    H     0.80730   0.59490   0.83830   0.01267  Uiso   1.00
H12    H     0.64030   0.45340   0.81420   0.01267  Uiso   1.00
H13    H     0.69310   0.38790   0.83220   0.01267  Uiso   1.00
H14    H     0.58750   0.31390   0.65860   0.01267  Uiso   1.00
H15    H     0.66050   0.43150   0.66540   0.01267  Uiso   1.00
H16    H     0.83580   0.21970   0.94430   0.01267  Uiso   1.00
H17    H     0.80010   0.30170   0.96910   0.01267  Uiso   1.00
H18    H     0.71790   0.29000   0.07820   0.01267  Uiso   1.00
H19    H     0.61380   0.21990   0.97600   0.01267  Uiso   1.00
H20    H     0.56430   0.19450   0.10760   0.01267  Uiso   1.00
H21    H     0.52840   0.08370   0.02460   0.01267  Uiso   1.00
H22    H     0.71450   0.20700   0.20730   0.01267  Uiso   1.00
H23    H     0.76560   0.08640   0.16290   0.01267  Uiso   1.00
H24    H     0.66220   0.01090   0.06030   0.01267  Uiso   1.00
H25    H     0.81280   0.11780   0.03330   0.01267  Uiso   1.00
H26    H     0.84040   0.22650   0.11300   0.01267  Uiso   1.00
H27    H     0.66900   0.68100   0.48820   0.01267  Uiso   1.00
H28    H     0.71770   0.74740   0.60430   0.01267  Uiso   1.00
H29    H     0.88890   0.75590   0.60130   0.01267  Uiso   1.00
H30    H     0.90600   0.85580   0.68430   0.01267  Uiso   1.00
H31    H     0.07240   0.89950   0.67410   0.01267  Uiso   1.00
H32    H     0.03720   0.97350   0.64400   0.01267  Uiso   1.00
H33    H     0.00880   0.78990   0.50620   0.01267  Uiso   1.00
H34    H     0.92490   0.81190   0.37550   0.01267  Uiso   1.00
H35    H     0.94340   0.91760   0.45140   0.01267  Uiso   1.00
H36    H     0.76160   0.77190   0.38950   0.01267  Uiso   1.00
H37    H     0.80000   0.70180   0.42370   0.01267  Uiso   1.00
H38    H     0.00130   0.16780   0.02530   0.01267  Uiso   1.00
H39    H     0.13090   0.17510   0.15860   0.01267  Uiso   1.00
H40    H     0.23850   0.06780   0.96010   0.01267  Uiso   1.00
H41    H     0.11090   0.05860   0.83010   0.01267  Uiso   1.00
H42    H     0.01060   0.40680   0.57810   0.01267  Uiso   1.00
H43    H     0.16180   0.55000   0.57250   0.01267  Uiso   1.00
H44    H     0.36620   0.58010   0.82010   0.01267  Uiso   1.00
H45    H     0.21770   0.44650   0.83280   0.01267  Uiso   1.00
H46    H     0.20160   0.37480   0.93270   0.01267  Uiso   1.00
H47    H     0.25020   0.67970   0.29030   0.01267  Uiso   1.00
H48    H     0.34290   0.90640   0.06320   0.01267  Uiso   1.00
H49    H     0.16340   0.10970   0.44320   0.01267  Uiso   1.00
H50    H     0.32510   0.68520   0.47140   0.01267  Uiso   1.00
H51    H     0.22480   0.69540   0.44290   0.01267  Uiso   1.00
H52    H     0.15180   0.49060   0.31110   0.01267  Uiso   1.00
H53    H     0.09160   0.55010   0.29610   0.01267  Uiso   1.00
H54    H     0.03600   0.40810   0.13870   0.01267  Uiso   1.00
H55    H     0.09760   0.52310   0.13730   0.01267  Uiso   1.00
H56    H     0.19270   0.40510   0.16170   0.01267  Uiso   1.00
H57    H     0.35970   0.54660   0.18580   0.01267  Uiso   1.00
H58    H     0.30690   0.61210   0.16780   0.01267  Uiso   1.00
H59    H     0.41250   0.68610   0.34140   0.01267  Uiso   1.00
H60    H     0.33950   0.56850   0.33460   0.01267  Uiso   1.00
H61    H     0.16420   0.78030   0.05570   0.01267  Uiso   1.00
H62    H     0.19990   0.69830   0.03090   0.01267  Uiso   1.00
H63    H     0.28210   0.71000   0.92180   0.01267  Uiso   1.00
H64    H     0.38620   0.78010   0.02400   0.01267  Uiso   1.00
H65    H     0.43570   0.80550   0.89240   0.01267  Uiso   1.00
H66    H     0.47160   0.91630   0.97540   0.01267  Uiso   1.00
H67    H     0.28550   0.79300   0.79270   0.01267  Uiso   1.00
H68    H     0.23440   0.91360   0.83710   0.01267  Uiso   1.00
H69    H     0.33780   0.98910   0.93970   0.01267  Uiso   1.00
H70    H     0.18720   0.88220   0.96670   0.01267  Uiso   1.00
H71    H     0.15960   0.77350   0.88700   0.01267  Uiso   1.00
H72    H     0.33100   0.31900   0.51180   0.01267  Uiso   1.00
H73    H     0.28230   0.25260   0.39570   0.01267  Uiso   1.00
H74    H     0.11110   0.24410   0.39870   0.01267  Uiso   1.00
H75    H     0.09400   0.14420   0.31570   0.01267  Uiso   1.00
H76    H     0.92760   0.10050   0.32590   0.01267  Uiso   1.00
H77    H     0.96280   0.02650   0.35600   0.01267  Uiso   1.00
H78    H     0.99120   0.21010   0.49380   0.01267  Uiso   1.00
H79    H     0.07510   0.18810   0.62450   0.01267  Uiso   1.00
H80    H     0.05660   0.08240   0.54860   0.01267  Uiso   1.00
H81    H     0.23840   0.22810   0.61050   0.01267  Uiso   1.00
H82    H     0.20000   0.29820   0.57630   0.01267  Uiso   1.00
H83    H     0.99870   0.83220   0.97470   0.01267  Uiso   1.00
H84    H     0.86910   0.82490   0.84140   0.01267  Uiso   1.00
H85    H     0.76150   0.93220   0.03990   0.01267  Uiso   1.00
H86    H     0.88910   0.94140   0.16990   0.01267  Uiso   1.00
H87    H     0.98940   0.59320   0.42190   0.01267  Uiso   1.00
H88    H     0.83820   0.45000   0.42750   0.01267  Uiso   1.00
H89    H     0.63380   0.41990   0.17990   0.01267  Uiso   1.00
H90    H     0.78230   0.55350   0.16720   0.01267  Uiso   1.00
C1     C     0.71020   0.29010   0.56810   0.01267  Uiso   1.00
C2     C     0.85530   0.46260   0.71860   0.01267  Uiso   1.00
C3     C     0.89360   0.52280   0.83280   0.01267  Uiso   1.00
C4     C     0.80950   0.54190   0.86110   0.01267  Uiso   1.00
C5     C     0.69350   0.43810   0.80390   0.01267  Uiso   1.00
C6     C     0.66030   0.38090   0.69300   0.01267  Uiso   1.00
C7     C     0.84200   0.58900   0.97400   0.01267  Uiso   1.00
C8     C     0.77310   0.22500   0.93560   0.01267  Uiso   1.00
C9     C     0.66040   0.21590   0.02870   0.01267  Uiso   1.00
C10    C     0.59130   0.15440   0.07600   0.01267  Uiso   1.00
C11    C     0.65830   0.13530   0.15290   0.01267  Uiso   1.00
C12    C     0.71590   0.08630   0.10920   0.01267  Uiso   1.00
C13    C     0.78110   0.15340   0.06270   0.01267  Uiso   1.00
C14    C     0.58900   0.06350   0.19730   0.01267  Uiso   1.00
C15    C     0.70810   0.75380   0.54170   0.01267  Uiso   1.00
C16    C     0.90630   0.82970   0.61930   0.01267  Uiso   1.00
C17    C     0.01840   0.89910   0.62440   0.01267  Uiso   1.00
C18    C     0.02300   0.86230   0.52180   0.01267  Uiso   1.00
C19    C     0.92770   0.84530   0.44040   0.01267  Uiso   1.00
C20    C     0.81830   0.77560   0.43930   0.01267  Uiso   1.00
C21    C     0.13440   0.93330   0.52340   0.01267  Uiso   1.00
C22    C     0.95200   0.09560   0.83180   0.01267  Uiso   1.00
C23    C     0.04030   0.10680   0.91480   0.01267  Uiso   1.00
C24    C     0.04880   0.14480   0.01240   0.01267  Uiso   1.00
C25    C     0.12710   0.15160   0.09160   0.01267  Uiso   1.00
C26    C     0.19850   0.11920   0.07240   0.01267  Uiso   1.00
C27    C     0.18910   0.08800   0.97270   0.01267  Uiso   1.00
C28    C     0.11180   0.07870   0.89620   0.01267  Uiso   1.00
C29    C     0.27890   0.12670   0.15260   0.01267  Uiso   1.00
C30    C     0.00180   0.31980   0.70600   0.01267  Uiso   1.00
C31    C     0.10220   0.41400   0.70410   0.01267  Uiso   1.00
C32    C     0.08450   0.44380   0.62810   0.01267  Uiso   1.00
C33    C     0.17350   0.52680   0.62510   0.01267  Uiso   1.00
C34    C     0.28020   0.58050   0.69770   0.01267  Uiso   1.00
C35    C     0.29260   0.54580   0.77090   0.01267  Uiso   1.00
C36    C     0.20740   0.46560   0.77710   0.01267  Uiso   1.00
C37    C     0.37240   0.66930   0.69100   0.01267  Uiso   1.00
C38    C     0.28980   0.70990   0.43190   0.01267  Uiso   1.00
C39    C     0.14470   0.53740   0.28140   0.01267  Uiso   1.00
C40    C     0.10640   0.47720   0.16720   0.01267  Uiso   1.00
C41    C     0.19050   0.45810   0.13890   0.01267  Uiso   1.00
C42    C     0.30650   0.56190   0.19610   0.01267  Uiso   1.00
C43    C     0.33970   0.61910   0.30700   0.01267  Uiso   1.00
C44    C     0.15800   0.41100   0.02600   0.01267  Uiso   1.00
C45    C     0.22690   0.77500   0.06440   0.01267  Uiso   1.00
C46    C     0.33960   0.78410   0.97130   0.01267  Uiso   1.00
C47    C     0.40870   0.84560   0.92400   0.01267  Uiso   1.00
C48    C     0.34170   0.86470   0.84710   0.01267  Uiso   1.00
C49    C     0.28410   0.91370   0.89080   0.01267  Uiso   1.00
C50    C     0.21890   0.84660   0.93730   0.01267  Uiso   1.00
C51    C     0.41100   0.93650   0.80270   0.01267  Uiso   1.00
C52    C     0.29190   0.24620   0.45830   0.01267  Uiso   1.00
C53    C     0.09370   0.17030   0.38070   0.01267  Uiso   1.00
C54    C     0.98160   0.10090   0.37560   0.01267  Uiso   1.00
C55    C     0.97700   0.13770   0.47820   0.01267  Uiso   1.00
C56    C     0.07230   0.15470   0.55960   0.01267  Uiso   1.00
C57    C     0.18170   0.22440   0.56070   0.01267  Uiso   1.00
C58    C     0.86560   0.06670   0.47660   0.01267  Uiso   1.00
C59    C     0.04800   0.90440   0.16820   0.01267  Uiso   1.00
C60    C     0.95970   0.89320   0.08520   0.01267  Uiso   1.00
C61    C     0.95120   0.85520   0.98760   0.01267  Uiso   1.00
C62    C     0.87290   0.84840   0.90840   0.01267  Uiso   1.00
C63    C     0.80150   0.88080   0.92760   0.01267  Uiso   1.00
C64    C     0.81090   0.91200   0.02730   0.01267  Uiso   1.00
C65    C     0.88820   0.92130   0.10380   0.01267  Uiso   1.00
C66    C     0.72110   0.87330   0.84740   0.01267  Uiso   1.00
C67    C     0.99820   0.68020   0.29400   0.01267  Uiso   1.00
C68    C     0.89780   0.58600   0.29590   0.01267  Uiso   1.00
C69    C     0.91550   0.55620   0.37190   0.01267  Uiso   1.00
C70    C     0.82650   0.47320   0.37490   0.01267  Uiso   1.00
C71    C     0.71980   0.41950   0.30230   0.01267  Uiso   1.00
C72    C     0.70740   0.45420   0.22910   0.01267  Uiso   1.00
C73    C     0.79260   0.53440   0.22290   0.01267  Uiso   1.00
C74    C     0.62760   0.33070   0.30900   0.01267  Uiso   1.00
N1     N     0.74390   0.35970   0.67590   0.01267  Uiso   1.00
N2     N     0.71150   0.16230   0.98430   0.01267  Uiso   1.00
N3     N     0.81930   0.82100   0.54190   0.01267  Uiso   1.00
N4     N     0.25610   0.64030   0.32410   0.01267  Uiso   1.00
N5     N     0.28850   0.83770   0.01570   0.01267  Uiso   1.00
N6     N     0.18070   0.17900   0.45810   0.01267  Uiso   1.00
O1     O     0.55400   0.09430   0.40870   0.01267  Uiso   1.00
O2     O     0.54620   0.12660   0.57920   0.01267  Uiso   1.00
O3     O     0.68160   0.08930   0.53680   0.01267  Uiso   1.00
O4     O     0.92720   0.61240   0.02860   0.01267  Uiso   1.00
O5     O     0.77350   0.60120   0.00350   0.01267  Uiso   1.00
O6     O     0.77920   0.24760   0.77110   0.01267  Uiso   1.00
O7     O     0.67010   0.05550   0.74950   0.01267  Uiso   1.00
O8     O     0.59380   0.17290   0.78560   0.01267  Uiso   1.00
O9     O     0.49620   0.05200   0.18260   0.01267  Uiso   1.00
O10    O     0.62920   0.02520   0.24650   0.01267  Uiso   1.00
O11    O     0.61270   0.82070   0.42300   0.01267  Uiso   1.00
O12    O     0.68780   0.92280   0.61190   0.01267  Uiso   1.00
O13    O     0.52260   0.73780   0.53240   0.01267  Uiso   1.00
O14    O     0.21750   0.96430   0.59790   0.01267  Uiso   1.00
O15    O     0.14030   0.96120   0.45290   0.01267  Uiso   1.00
O16    O     0.91220   0.27110   0.63760   0.01267  Uiso   1.00
O17    O     0.01900   0.28920   0.77450   0.01267  Uiso   1.00
O18    O     0.35450   0.71940   0.64290   0.01267  Uiso   1.00
O19    O     0.46990   0.69860   0.73830   0.01267  Uiso   1.00
O20    O     0.94360   0.05200   0.74260   0.01267  Uiso   1.00
O21    O     0.89890   0.13310   0.85150   0.01267  Uiso   1.00
O22    O     0.30170   0.17970   0.24370   0.01267  Uiso   1.00
O23    O     0.31910   0.07230   0.12690   0.01267  Uiso   1.00
O24    O     0.44600   0.90570   0.59130   0.01267  Uiso   1.00
O25    O     0.45380   0.87340   0.42080   0.01267  Uiso   1.00
O26    O     0.31840   0.91070   0.46320   0.01267  Uiso   1.00
O27    O     0.07280   0.38760   0.97140   0.01267  Uiso   1.00
O28    O     0.22650   0.39880   0.99650   0.01267  Uiso   1.00
O29    O     0.22080   0.75240   0.22890   0.01267  Uiso   1.00
O30    O     0.32990   0.94450   0.25050   0.01267  Uiso   1.00
O31    O     0.40620   0.82710   0.21440   0.01267  Uiso   1.00
O32    O     0.50380   0.94800   0.81740   0.01267  Uiso   1.00
O33    O     0.37080   0.97480   0.75350   0.01267  Uiso   1.00
O34    O     0.38730   0.17930   0.57700   0.01267  Uiso   1.00
O35    O     0.31220   0.07720   0.38810   0.01267  Uiso   1.00
O36    O     0.47740   0.26220   0.46760   0.01267  Uiso   1.00
O37    O     0.78250   0.03570   0.40210   0.01267  Uiso   1.00
O38    O     0.85970   0.03880   0.54710   0.01267  Uiso   1.00
O39    O     0.08780   0.72890   0.36240   0.01267  Uiso   1.00
O40    O     0.98100   0.71080   0.22550   0.01267  Uiso   1.00
O41    O     0.64550   0.28060   0.35710   0.01267  Uiso   1.00
O42    O     0.53010   0.30140   0.26170   0.01267  Uiso   1.00
O43    O     0.05640   0.94800   0.25740   0.01267  Uiso   1.00
O44    O     0.10110   0.86690   0.14850   0.01267  Uiso   1.00
O45    O     0.69830   0.82030   0.75630   0.01267  Uiso   1.00
O46    O     0.68090   0.92770   0.87310   0.01267  Uiso   1.00
