data_MEKBAH_clean
_audit_creation_date              2014-07-02
_audit_creation_method            'Materials Studio'
_symmetry_space_group_name_H-M    'P1'
_symmetry_Int_Tables_number       1
_symmetry_cell_setting            triclinic
loop_
_symmetry_equiv_pos_as_xyz
  x,y,z
_cell_length_a                    14.9760
_cell_length_b                    15.0800
_cell_length_c                    15.1160
_cell_angle_alpha                 105.1920
_cell_angle_beta                  103.7720
_cell_angle_gamma                 117.3380
loop_
_atom_site_label
_atom_site_type_symbol
_atom_site_fract_x
_atom_site_fract_y
_atom_site_fract_z
_atom_site_U_iso_or_equiv
_atom_site_adp_type
_atom_site_occupancy
Tb1    Tb    0.81649   0.11122   0.67978   0.01267  Uiso   1.00
Tb2    Tb    0.55734   0.86790   0.69755   0.01267  Uiso   1.00
Tb3    Tb    0.41612   0.06087   0.64151   0.01267  Uiso   1.00
Tb4    Tb    0.18351   0.88878   0.32022   0.01267  Uiso   1.00
Tb5    Tb    0.44266   0.13210   0.30245   0.01267  Uiso   1.00
Tb6    Tb    0.58388   0.93913   0.35849   0.01267  Uiso   1.00
P1     P     0.61590   0.13940   0.52200   0.01267  Uiso   1.00
P2     P     0.69360   0.16900   0.79840   0.01267  Uiso   1.00
P3     P     0.62590   0.81370   0.52320   0.01267  Uiso   1.00
P4     P     0.38410   0.86060   0.47800   0.01267  Uiso   1.00
P5     P     0.30640   0.83100   0.20160   0.01267  Uiso   1.00
P6     P     0.37410   0.18630   0.47680   0.01267  Uiso   1.00
H1     H     0.79930   0.62220   0.06590   0.01267  Uiso   1.00
H2     H     0.75270   0.31810   0.70920   0.01267  Uiso   1.00
H3     H     0.65630   0.09160   0.93630   0.01267  Uiso   1.00
H4     H     0.83600   0.89180   0.55720   0.01267  Uiso   1.00
H5     H     0.67540   0.31510   0.52790   0.01267  Uiso   1.00
H6     H     0.77570   0.30490   0.55640   0.01267  Uiso   1.00
H7     H     0.84910   0.51220   0.69120   0.01267  Uiso   1.00
H8     H     0.90930   0.45270   0.70620   0.01267  Uiso   1.00
H9     H     0.96610   0.59230   0.86180   0.01267  Uiso   1.00
H10    H     0.90450   0.47720   0.86320   0.01267  Uiso   1.00
H11    H     0.80870   0.59540   0.83610   0.01267  Uiso   1.00
H12    H     0.64080   0.44970   0.81430   0.01267  Uiso   1.00
H13    H     0.69360   0.38430   0.83230   0.01267  Uiso   1.00
H14    H     0.59040   0.31370   0.65800   0.01267  Uiso   1.00
H15    H     0.66340   0.43120   0.66480   0.01267  Uiso   1.00
H16    H     0.83700   0.21650   0.94250   0.01267  Uiso   1.00
H17    H     0.80130   0.29850   0.96730   0.01267  Uiso   1.00
H18    H     0.71740   0.29020   0.07730   0.01267  Uiso   1.00
H19    H     0.61340   0.22010   0.97510   0.01267  Uiso   1.00
H20    H     0.56540   0.19380   0.10770   0.01267  Uiso   1.00
H21    H     0.52950   0.08300   0.02470   0.01267  Uiso   1.00
H22    H     0.71370   0.20580   0.20790   0.01267  Uiso   1.00
H23    H     0.76860   0.08880   0.16640   0.01267  Uiso   1.00
H24    H     0.66520   0.01330   0.06380   0.01267  Uiso   1.00
H25    H     0.81270   0.11520   0.03290   0.01267  Uiso   1.00
H26    H     0.84030   0.22400   0.11250   0.01267  Uiso   1.00
H27    H     0.66940   0.68270   0.48810   0.01267  Uiso   1.00
H28    H     0.71810   0.74910   0.60420   0.01267  Uiso   1.00
H29    H     0.88850   0.75360   0.60070   0.01267  Uiso   1.00
H30    H     0.90550   0.85350   0.68380   0.01267  Uiso   1.00
H31    H     0.07430   0.90040   0.67350   0.01267  Uiso   1.00
H32    H     0.03910   0.97440   0.64340   0.01267  Uiso   1.00
H33    H     0.00810   0.78690   0.50540   0.01267  Uiso   1.00
H34    H     0.92650   0.81390   0.37440   0.01267  Uiso   1.00
H35    H     0.94500   0.91960   0.45030   0.01267  Uiso   1.00
H36    H     0.75900   0.77340   0.39210   0.01267  Uiso   1.00
H37    H     0.79740   0.70320   0.42630   0.01267  Uiso   1.00
H38    H     0.99950   0.16560   0.02350   0.01267  Uiso   1.00
H39    H     0.12950   0.17400   0.15860   0.01267  Uiso   1.00
H40    H     0.24010   0.06740   0.96320   0.01267  Uiso   1.00
H41    H     0.11160   0.05970   0.83000   0.01267  Uiso   1.00
H42    H     0.01030   0.40580   0.57980   0.01267  Uiso   1.00
H43    H     0.16090   0.55020   0.57160   0.01267  Uiso   1.00
H44    H     0.36830   0.58150   0.82230   0.01267  Uiso   1.00
H45    H     0.21550   0.44670   0.83370   0.01267  Uiso   1.00
H46    H     0.20070   0.37780   0.93410   0.01267  Uiso   1.00
H47    H     0.24730   0.68190   0.29080   0.01267  Uiso   1.00
H48    H     0.34370   0.90840   0.06370   0.01267  Uiso   1.00
H49    H     0.16400   0.10820   0.44280   0.01267  Uiso   1.00
H50    H     0.32460   0.68490   0.47210   0.01267  Uiso   1.00
H51    H     0.22430   0.69510   0.44360   0.01267  Uiso   1.00
H52    H     0.15090   0.48780   0.30880   0.01267  Uiso   1.00
H53    H     0.09070   0.54730   0.29380   0.01267  Uiso   1.00
H54    H     0.03390   0.40770   0.13820   0.01267  Uiso   1.00
H55    H     0.09550   0.52280   0.13680   0.01267  Uiso   1.00
H56    H     0.19130   0.40460   0.16390   0.01267  Uiso   1.00
H57    H     0.35920   0.55030   0.18570   0.01267  Uiso   1.00
H58    H     0.30640   0.61570   0.16770   0.01267  Uiso   1.00
H59    H     0.40960   0.68630   0.34200   0.01267  Uiso   1.00
H60    H     0.33660   0.56880   0.33520   0.01267  Uiso   1.00
H61    H     0.16300   0.78350   0.05750   0.01267  Uiso   1.00
H62    H     0.19870   0.70150   0.03270   0.01267  Uiso   1.00
H63    H     0.28260   0.70980   0.92270   0.01267  Uiso   1.00
H64    H     0.38660   0.77990   0.02490   0.01267  Uiso   1.00
H65    H     0.43460   0.80620   0.89230   0.01267  Uiso   1.00
H66    H     0.47050   0.91700   0.97530   0.01267  Uiso   1.00
H67    H     0.28630   0.79420   0.79210   0.01267  Uiso   1.00
H68    H     0.23140   0.91120   0.83360   0.01267  Uiso   1.00
H69    H     0.33480   0.98670   0.93620   0.01267  Uiso   1.00
H70    H     0.18730   0.88480   0.96710   0.01267  Uiso   1.00
H71    H     0.15970   0.77600   0.88750   0.01267  Uiso   1.00
H72    H     0.33060   0.31730   0.51190   0.01267  Uiso   1.00
H73    H     0.28190   0.25090   0.39580   0.01267  Uiso   1.00
H74    H     0.11150   0.24640   0.39930   0.01267  Uiso   1.00
H75    H     0.09450   0.14650   0.31620   0.01267  Uiso   1.00
H76    H     0.92570   0.09960   0.32650   0.01267  Uiso   1.00
H77    H     0.96090   0.02560   0.35660   0.01267  Uiso   1.00
H78    H     0.99190   0.21310   0.49460   0.01267  Uiso   1.00
H79    H     0.07350   0.18610   0.62560   0.01267  Uiso   1.00
H80    H     0.05500   0.08040   0.54970   0.01267  Uiso   1.00
H81    H     0.24100   0.22660   0.60790   0.01267  Uiso   1.00
H82    H     0.20260   0.29680   0.57370   0.01267  Uiso   1.00
H83    H     0.00050   0.83440   0.97650   0.01267  Uiso   1.00
H84    H     0.87050   0.82600   0.84140   0.01267  Uiso   1.00
H85    H     0.75990   0.93260   0.03680   0.01267  Uiso   1.00
H86    H     0.88840   0.94030   0.17000   0.01267  Uiso   1.00
H87    H     0.98970   0.59420   0.42020   0.01267  Uiso   1.00
H88    H     0.83910   0.44980   0.42840   0.01267  Uiso   1.00
H89    H     0.63170   0.41850   0.17770   0.01267  Uiso   1.00
H90    H     0.78450   0.55330   0.16630   0.01267  Uiso   1.00
C1     C     0.71070   0.29040   0.56730   0.01267  Uiso   1.00
C2     C     0.85610   0.46540   0.72090   0.01267  Uiso   1.00
C3     C     0.89570   0.52320   0.83330   0.01267  Uiso   1.00
C4     C     0.81090   0.54230   0.85880   0.01267  Uiso   1.00
C5     C     0.69400   0.43450   0.80400   0.01267  Uiso   1.00
C6     C     0.66310   0.38070   0.69250   0.01267  Uiso   1.00
C7     C     0.84120   0.58800   0.97570   0.01267  Uiso   1.00
C8     C     0.77430   0.22180   0.93380   0.01267  Uiso   1.00
C9     C     0.65990   0.21610   0.02770   0.01267  Uiso   1.00
C10    C     0.59240   0.15360   0.07610   0.01267  Uiso   1.00
C11    C     0.65740   0.13420   0.15350   0.01267  Uiso   1.00
C12    C     0.71890   0.08860   0.11270   0.01267  Uiso   1.00
C13    C     0.78100   0.15090   0.06230   0.01267  Uiso   1.00
C14    C     0.58770   0.06520   0.19930   0.01267  Uiso   1.00
C15    C     0.70850   0.75550   0.54160   0.01267  Uiso   1.00
C16    C     0.90590   0.82740   0.61880   0.01267  Uiso   1.00
C17    C     0.02030   0.90000   0.62390   0.01267  Uiso   1.00
C18    C     0.02230   0.85930   0.52100   0.01267  Uiso   1.00
C19    C     0.92930   0.84740   0.43940   0.01267  Uiso   1.00
C20    C     0.81580   0.77710   0.44190   0.01267  Uiso   1.00
C21    C     0.13650   0.93340   0.52330   0.01267  Uiso   1.00
C22    C     0.95490   0.09620   0.83000   0.01267  Uiso   1.00
C23    C     0.03740   0.10260   0.91290   0.01267  Uiso   1.00
C24    C     0.04700   0.14260   0.01060   0.01267  Uiso   1.00
C25    C     0.12570   0.15050   0.09160   0.01267  Uiso   1.00
C26    C     0.19650   0.12330   0.07120   0.01267  Uiso   1.00
C27    C     0.19070   0.08760   0.97570   0.01267  Uiso   1.00
C28    C     0.11250   0.07980   0.89610   0.01267  Uiso   1.00
C29    C     0.27820   0.12640   0.15420   0.01267  Uiso   1.00
C30    C     0.00360   0.31690   0.70660   0.01267  Uiso   1.00
C31    C     0.10170   0.41270   0.70540   0.01267  Uiso   1.00
C32    C     0.08420   0.44280   0.62980   0.01267  Uiso   1.00
C33    C     0.17260   0.52700   0.62430   0.01267  Uiso   1.00
C34    C     0.27810   0.57720   0.69580   0.01267  Uiso   1.00
C35    C     0.29460   0.54730   0.77310   0.01267  Uiso   1.00
C36    C     0.20510   0.46580   0.77810   0.01267  Uiso   1.00
C37    C     0.37420   0.67260   0.69350   0.01267  Uiso   1.00
C38    C     0.28930   0.70960   0.43270   0.01267  Uiso   1.00
C39    C     0.14390   0.53460   0.27910   0.01267  Uiso   1.00
C40    C     0.10430   0.47680   0.16670   0.01267  Uiso   1.00
C41    C     0.18910   0.45770   0.14120   0.01267  Uiso   1.00
C42    C     0.30600   0.56550   0.19600   0.01267  Uiso   1.00
C43    C     0.33690   0.61930   0.30750   0.01267  Uiso   1.00
C44    C     0.15880   0.41200   0.02430   0.01267  Uiso   1.00
C45    C     0.22570   0.77820   0.06620   0.01267  Uiso   1.00
C46    C     0.34010   0.78390   0.97230   0.01267  Uiso   1.00
C47    C     0.40760   0.84640   0.92390   0.01267  Uiso   1.00
C48    C     0.34260   0.86580   0.84650   0.01267  Uiso   1.00
C49    C     0.28110   0.91140   0.88730   0.01267  Uiso   1.00
C50    C     0.21900   0.84910   0.93770   0.01267  Uiso   1.00
C51    C     0.41230   0.93480   0.80070   0.01267  Uiso   1.00
C52    C     0.29150   0.24450   0.45840   0.01267  Uiso   1.00
C53    C     0.09410   0.17260   0.38120   0.01267  Uiso   1.00
C54    C     0.97970   0.10000   0.37610   0.01267  Uiso   1.00
C55    C     0.97770   0.14070   0.47900   0.01267  Uiso   1.00
C56    C     0.07070   0.15260   0.56060   0.01267  Uiso   1.00
C57    C     0.18420   0.22290   0.55810   0.01267  Uiso   1.00
C58    C     0.86350   0.06660   0.47670   0.01267  Uiso   1.00
C59    C     0.04510   0.90380   0.17000   0.01267  Uiso   1.00
C60    C     0.96260   0.89740   0.08710   0.01267  Uiso   1.00
C61    C     0.95300   0.85740   0.98940   0.01267  Uiso   1.00
C62    C     0.87430   0.84950   0.90840   0.01267  Uiso   1.00
C63    C     0.80350   0.87670   0.92880   0.01267  Uiso   1.00
C64    C     0.80930   0.91240   0.02430   0.01267  Uiso   1.00
C65    C     0.88750   0.92020   0.10390   0.01267  Uiso   1.00
C66    C     0.72180   0.87360   0.84580   0.01267  Uiso   1.00
C67    C     0.99640   0.68310   0.29340   0.01267  Uiso   1.00
C68    C     0.89830   0.58730   0.29460   0.01267  Uiso   1.00
C69    C     0.91580   0.55720   0.37020   0.01267  Uiso   1.00
C70    C     0.82740   0.47300   0.37570   0.01267  Uiso   1.00
C71    C     0.72190   0.42280   0.30420   0.01267  Uiso   1.00
C72    C     0.70540   0.45270   0.22690   0.01267  Uiso   1.00
C73    C     0.79490   0.53420   0.22190   0.01267  Uiso   1.00
C74    C     0.62580   0.32740   0.30650   0.01267  Uiso   1.00
N1     N     0.74670   0.35750   0.67540   0.01267  Uiso   1.00
N2     N     0.71070   0.16040   0.98390   0.01267  Uiso   1.00
N3     N     0.81870   0.82250   0.54230   0.01267  Uiso   1.00
N4     N     0.25330   0.64250   0.32460   0.01267  Uiso   1.00
N5     N     0.28930   0.83960   0.01610   0.01267  Uiso   1.00
N6     N     0.18130   0.17750   0.45770   0.01267  Uiso   1.00
O1     O     0.55560   0.09360   0.40700   0.01267  Uiso   1.00
O2     O     0.54360   0.12400   0.57850   0.01267  Uiso   1.00
O3     O     0.68180   0.08720   0.53670   0.01267  Uiso   1.00
O4     O     0.93440   0.61550   0.03040   0.01267  Uiso   1.00
O5     O     0.77440   0.59820   0.00210   0.01267  Uiso   1.00
O6     O     0.77960   0.24270   0.76800   0.01267  Uiso   1.00
O7     O     0.67310   0.05580   0.74910   0.01267  Uiso   1.00
O8     O     0.59250   0.17030   0.78240   0.01267  Uiso   1.00
O9     O     0.49630   0.05360   0.18450   0.01267  Uiso   1.00
O10    O     0.62930   0.02680   0.24870   0.01267  Uiso   1.00
O11    O     0.61230   0.82230   0.42390   0.01267  Uiso   1.00
O12    O     0.68920   0.92390   0.61430   0.01267  Uiso   1.00
O13    O     0.52110   0.73990   0.53430   0.01267  Uiso   1.00
O14    O     0.21850   0.96210   0.59740   0.01267  Uiso   1.00
O15    O     0.13900   0.95830   0.45150   0.01267  Uiso   1.00
O16    O     0.90930   0.26700   0.63610   0.01267  Uiso   1.00
O17    O     0.01750   0.28560   0.77500   0.01267  Uiso   1.00
O18    O     0.35600   0.72430   0.64450   0.01267  Uiso   1.00
O19    O     0.47220   0.70200   0.74000   0.01267  Uiso   1.00
O20    O     0.94120   0.05390   0.73980   0.01267  Uiso   1.00
O21    O     0.89700   0.13140   0.84890   0.01267  Uiso   1.00
O22    O     0.30450   0.17990   0.24510   0.01267  Uiso   1.00
O23    O     0.32000   0.07250   0.13080   0.01267  Uiso   1.00
O24    O     0.44440   0.90640   0.59300   0.01267  Uiso   1.00
O25    O     0.45640   0.87600   0.42150   0.01267  Uiso   1.00
O26    O     0.31820   0.91280   0.46330   0.01267  Uiso   1.00
O27    O     0.06560   0.38450   0.96960   0.01267  Uiso   1.00
O28    O     0.22560   0.40180   0.99790   0.01267  Uiso   1.00
O29    O     0.22040   0.75730   0.23200   0.01267  Uiso   1.00
O30    O     0.32690   0.94420   0.25090   0.01267  Uiso   1.00
O31    O     0.40750   0.82970   0.21760   0.01267  Uiso   1.00
O32    O     0.50370   0.94640   0.81550   0.01267  Uiso   1.00
O33    O     0.37070   0.97320   0.75130   0.01267  Uiso   1.00
O34    O     0.38770   0.17770   0.57610   0.01267  Uiso   1.00
O35    O     0.31080   0.07610   0.38570   0.01267  Uiso   1.00
O36    O     0.47890   0.26010   0.46570   0.01267  Uiso   1.00
O37    O     0.78150   0.03790   0.40260   0.01267  Uiso   1.00
O38    O     0.86100   0.04170   0.54850   0.01267  Uiso   1.00
O39    O     0.09070   0.73300   0.36390   0.01267  Uiso   1.00
O40    O     0.98250   0.71440   0.22500   0.01267  Uiso   1.00
O41    O     0.64400   0.27570   0.35550   0.01267  Uiso   1.00
O42    O     0.52780   0.29800   0.26000   0.01267  Uiso   1.00
O43    O     0.05880   0.94610   0.26020   0.01267  Uiso   1.00
O44    O     0.10300   0.86860   0.15110   0.01267  Uiso   1.00
O45    O     0.69550   0.82010   0.75490   0.01267  Uiso   1.00
O46    O     0.68000   0.92750   0.86920   0.01267  Uiso   1.00
