data_image0
_cell_length_a       8.8871
_cell_length_b       11.4931
_cell_length_c       16.457
_cell_angle_alpha    90
_cell_angle_beta     90
_cell_angle_gamma    90

_symmetry_space_group_name_H-M    "P 1"
_symmetry_int_tables_number       1

loop_
  _symmetry_equiv_pos_as_xyz
  'x, y, z'

loop_
  _atom_site_label
  _atom_site_occupancy
  _atom_site_fract_x
  _atom_site_fract_y
  _atom_site_fract_z
  _atom_site_thermal_displace_type
  _atom_site_B_iso_or_equiv
  _atom_site_type_symbol
  O1       1.0000 0.01560  0.88510  0.08920  Biso   1.000  O
  O2       1.0000 0.25410  0.88350  0.04920  Biso   1.000  O
  O3       1.0000 0.47110  0.61550  0.08650  Biso   1.000  O
  O4       1.0000 0.23060  0.61580  0.05070  Biso   1.000  O
  C1       1.0000 0.19590  0.79620  0.17490  Biso   1.000  C
  C2       1.0000 0.29470  0.70130  0.17770  Biso   1.000  C
  C3       1.0000 0.15450  0.85700  0.09850  Biso   1.000  C
  C4       1.0000 0.33420  0.64020  0.09760  Biso   1.000  C
  O5       1.0000 0.51560  0.38510  0.08920  Biso   1.000  O
  O6       1.0000 0.75410  0.38350  0.04920  Biso   1.000  O
  O7       1.0000 0.97110  0.11550  0.08650  Biso   1.000  O
  O8       1.0000 0.73060  0.11580  0.05070  Biso   1.000  O
  C5       1.0000 0.69590  0.29620  0.17490  Biso   1.000  C
  C6       1.0000 0.79470  0.20130  0.17770  Biso   1.000  C
  C7       1.0000 0.65450  0.35700  0.09850  Biso   1.000  C
  C8       1.0000 0.83420  0.14020  0.09760  Biso   1.000  C
  O9       1.0000 0.98440  0.88510  0.91080  Biso   1.000  O
  O10      1.0000 0.74590  0.88350  0.95080  Biso   1.000  O
  O11      1.0000 0.52890  0.61550  0.91350  Biso   1.000  O
  O12      1.0000 0.76940  0.61580  0.94930  Biso   1.000  O
  C9       1.0000 0.80410  0.79620  0.82510  Biso   1.000  C
  C10      1.0000 0.70530  0.70130  0.82230  Biso   1.000  C
  C11      1.0000 0.84550  0.85700  0.90150  Biso   1.000  C
  C12      1.0000 0.66580  0.64020  0.90240  Biso   1.000  C
  O13      1.0000 0.48440  0.38510  0.91080  Biso   1.000  O
  O14      1.0000 0.24590  0.38350  0.95080  Biso   1.000  O
  O15      1.0000 0.02890  0.11550  0.91350  Biso   1.000  O
  O16      1.0000 0.26940  0.11580  0.94930  Biso   1.000  O
  C13      1.0000 0.30410  0.29620  0.82510  Biso   1.000  C
  C14      1.0000 0.20530  0.20130  0.82230  Biso   1.000  C
  C15      1.0000 0.34550  0.35700  0.90150  Biso   1.000  C
  C16      1.0000 0.16580  0.14020  0.90240  Biso   1.000  C
  O17      1.0000 0.98440  0.88510  0.58920  Biso   1.000  O
  O18      1.0000 0.74590  0.88350  0.54920  Biso   1.000  O
  O19      1.0000 0.52890  0.61550  0.58650  Biso   1.000  O
  O20      1.0000 0.76940  0.61580  0.55070  Biso   1.000  O
  C17      1.0000 0.80410  0.79620  0.67490  Biso   1.000  C
  C18      1.0000 0.70530  0.70130  0.67770  Biso   1.000  C
  C19      1.0000 0.84550  0.85700  0.59850  Biso   1.000  C
  C20      1.0000 0.66580  0.64020  0.59760  Biso   1.000  C
  O21      1.0000 0.48440  0.38510  0.58920  Biso   1.000  O
  O22      1.0000 0.24590  0.38350  0.54920  Biso   1.000  O
  O23      1.0000 0.02890  0.11550  0.58650  Biso   1.000  O
  O24      1.0000 0.26940  0.11580  0.55070  Biso   1.000  O
  C21      1.0000 0.30410  0.29620  0.67490  Biso   1.000  C
  C22      1.0000 0.20530  0.20130  0.67770  Biso   1.000  C
  C23      1.0000 0.34550  0.35700  0.59850  Biso   1.000  C
  C24      1.0000 0.16580  0.14020  0.59760  Biso   1.000  C
  O25      1.0000 0.01560  0.88510  0.41080  Biso   1.000  O
  O26      1.0000 0.25410  0.88350  0.45080  Biso   1.000  O
  O27      1.0000 0.47110  0.61550  0.41350  Biso   1.000  O
  O28      1.0000 0.23060  0.61580  0.44930  Biso   1.000  O
  C25      1.0000 0.19590  0.79620  0.32510  Biso   1.000  C
  C26      1.0000 0.29470  0.70130  0.32230  Biso   1.000  C
  C27      1.0000 0.15450  0.85700  0.40150  Biso   1.000  C
  C28      1.0000 0.33420  0.64020  0.40240  Biso   1.000  C
  O29      1.0000 0.51560  0.38510  0.41080  Biso   1.000  O
  O30      1.0000 0.75410  0.38350  0.45080  Biso   1.000  O
  O31      1.0000 0.97110  0.11550  0.41350  Biso   1.000  O
  O32      1.0000 0.73060  0.11580  0.44930  Biso   1.000  O
  C29      1.0000 0.69590  0.29620  0.32510  Biso   1.000  C
  C30      1.0000 0.79470  0.20130  0.32230  Biso   1.000  C
  C31      1.0000 0.65450  0.35700  0.40150  Biso   1.000  C
  C32      1.0000 0.83420  0.14020  0.40240  Biso   1.000  C
  Cu1      1.0000 0.00000  0.00191  0.00000  Biso   1.000  Cu
  Cu2      1.0000 0.50000  0.50191  0.00000  Biso   1.000  Cu
  Cu3      1.0000 0.00000  0.00191  0.50000  Biso   1.000  Cu
  Cu4      1.0000 0.50000  0.50191  0.50000  Biso   1.000  Cu
  C33      1.0000 0.14820  0.84570  0.25000  Biso   1.000  C
  H1       1.0000 0.08560  0.91060  0.25000  Biso   1.000  H
  C34      1.0000 0.34070  0.65900  0.25000  Biso   1.000  C
  H2       1.0000 0.40810  0.59710  0.25000  Biso   1.000  H
  C35      1.0000 0.64820  0.34570  0.25000  Biso   1.000  C
  H3       1.0000 0.58560  0.41060  0.25000  Biso   1.000  H
  C36      1.0000 0.84070  0.15900  0.25000  Biso   1.000  C
  H4       1.0000 0.90810  0.09710  0.25000  Biso   1.000  H
  C37      1.0000 0.85180  0.84570  0.75000  Biso   1.000  C
  H5       1.0000 0.91440  0.91060  0.75000  Biso   1.000  H
  C38      1.0000 0.65930  0.65900  0.75000  Biso   1.000  C
  H6       1.0000 0.59190  0.59710  0.75000  Biso   1.000  H
  C39      1.0000 0.35180  0.34570  0.75000  Biso   1.000  C
  H7       1.0000 0.41440  0.41060  0.75000  Biso   1.000  H
  C40      1.0000 0.15930  0.15900  0.75000  Biso   1.000  C
  H8       1.0000 0.09190  0.09710  0.75000  Biso   1.000  H
