data_image0
_cell_length_a       15.123
_cell_length_b       12.305
_cell_length_c       19.264
_cell_angle_alpha    90
_cell_angle_beta     98.62
_cell_angle_gamma    90

_symmetry_space_group_name_H-M    "P 1"
_symmetry_int_tables_number       1

loop_
  _symmetry_equiv_pos_as_xyz
  'x, y, z'

loop_
  _atom_site_label
  _atom_site_occupancy
  _atom_site_fract_x
  _atom_site_fract_y
  _atom_site_fract_z
  _atom_site_thermal_displace_type
  _atom_site_B_iso_or_equiv
  _atom_site_type_symbol
  Mo1      1.0000 0.48260  0.39580  0.67660  Biso   1.000  Mo
  Mo2      1.0000 0.37640  0.49270  0.57600  Biso   1.000  Mo
  Mo3      1.0000 0.25140  0.34170  0.44280  Biso   1.000  Mo
  Mo4      1.0000 0.26200  0.13050  0.44390  Biso   1.000  Mo
  Mo5      1.0000 0.40000  0.99640  0.57900  Biso   1.000  Mo
  Mo6      1.0000 0.49370  0.11100  0.68090  Biso   1.000  Mo
  Mo7      1.0000 0.50230  0.39270  0.32200  Biso   1.000  Mo
  Mo8      1.0000 0.59350  0.50500  0.41910  Biso   1.000  Mo
  Mo9      1.0000 0.73510  0.36920  0.55910  Biso   1.000  Mo
  Mo10     1.0000 0.74470  0.15940  0.56100  Biso   1.000  Mo
  Mo11     1.0000 0.61490  0.00040  0.42520  Biso   1.000  Mo
  Mo12     1.0000 0.51530  0.10310  0.32440  Biso   1.000  Mo
  P1       1.0000 0.30500  0.24100  0.61000  Biso   1.000  P
  P2       1.0000 0.46500  0.24900  0.82300  Biso   1.000  P
  P3       1.0000 0.16100  0.51400  0.54100  Biso   1.000  P
  P4       1.0000 0.18300  0.95200  0.54800  Biso   1.000  P
  P5       1.0000 0.70000  0.26200  0.39400  Biso   1.000  P
  P6       1.0000 0.53300  0.24200  0.17800  Biso   1.000  P
  P7       1.0000 0.81000  0.55600  0.45800  Biso   1.000  P
  P8       1.0000 0.83800  0.97700  0.46200  Biso   1.000  P
  Cd1      1.0000 0.50000  0.24570  0.50000  Biso   1.000  Cd
  Cd2      1.0000 0.50040  0.25100  0.00060  Biso   1.000  Cd
  O1       1.0000 0.36400  0.47000  0.67100  Biso   1.000  O
  O2       1.0000 0.47900  0.39100  0.57000  Biso   1.000  O
  O3       1.0000 0.46400  0.35600  0.78000  Biso   1.000  O
  O4       1.0000 0.56000  0.25400  0.68300  Biso   1.000  O
  O5       1.0000 0.38600  0.24900  0.66300  Biso   1.000  O
  O6       1.0000 0.34400  0.46100  0.46600  Biso   1.000  O
  O7       1.0000 0.25500  0.56900  0.56100  Biso   1.000  O
  O8       1.0000 0.29700  0.34100  0.56600  Biso   1.000  O
  O9       1.0000 0.35000  0.24800  0.44400  Biso   1.000  O
  O10      1.0000 0.17100  0.25000  0.46800  Biso   1.000  O
  O11      1.0000 0.16100  0.44400  0.47400  Biso   1.000  O
  O12      1.0000 0.31000  0.14500  0.56000  Biso   1.000  O
  O13      1.0000 0.18400  0.00700  0.47200  Biso   1.000  O
  O14      1.0000 0.36100  0.01800  0.47500  Biso   1.000  O
  O15      1.0000 0.39100  0.01300  0.68000  Biso   1.000  O
  O16      1.0000 0.27800  0.92200  0.58100  Biso   1.000  O
  O17      1.0000 0.49200  0.11600  0.57900  Biso   1.000  O
  O18      1.0000 0.47400  0.15800  0.77800  Biso   1.000  O
  O19      1.0000 0.60300  0.25900  0.34700  Biso   1.000  O
  O20      1.0000 0.61000  0.47600  0.32400  Biso   1.000  O
  O21      1.0000 0.50800  0.39200  0.42500  Biso   1.000  O
  O22      1.0000 0.43000  0.23900  0.32300  Biso   1.000  O
  O23      1.0000 0.52100  0.35400  0.21900  Biso   1.000  O
  O24      1.0000 0.69600  0.36600  0.44100  Biso   1.000  O
  O25      1.0000 0.62600  0.48200  0.53500  Biso   1.000  O
  O26      1.0000 0.71400  0.59000  0.43200  Biso   1.000  O
  O27      1.0000 0.63700  0.26300  0.55800  Biso   1.000  O
  O28      1.0000 0.81700  0.49100  0.52300  Biso   1.000  O
  O29      1.0000 0.82600  0.26600  0.54100  Biso   1.000  O
  O30      1.0000 0.64600  0.02800  0.53400  Biso   1.000  O
  O31      1.0000 0.83200  0.04500  0.52900  Biso   1.000  O
  O32      1.0000 0.70400  0.16000  0.44600  Biso   1.000  O
  O33      1.0000 0.74800  0.94300  0.43000  Biso   1.000  O
  O34      1.0000 0.52400  0.11200  0.42300  Biso   1.000  O
  O35      1.0000 0.62200  0.02800  0.32400  Biso   1.000  O
  O36      1.0000 0.51200  0.14700  0.22100  Biso   1.000  O
  O37      1.0000 0.21400  0.22500  0.64200  Biso   1.000  O
  O38      1.0000 0.53100  0.24800  0.89100  Biso   1.000  O
  O39      1.0000 0.36300  0.24300  0.83700  Biso   1.000  O
  O40      1.0000 0.14000  0.44500  0.60500  Biso   1.000  O
  O41      1.0000 0.09400  0.60900  0.52800  Biso   1.000  O
  O42      1.0000 0.12100  0.85700  0.54700  Biso   1.000  O
  O43      1.0000 0.14300  0.03200  0.59400  Biso   1.000  O
  O44      1.0000 0.77400  0.26300  0.35500  Biso   1.000  O
  O45      1.0000 0.47400  0.23600  0.11200  Biso   1.000  O
  O46      1.0000 0.63400  0.24200  0.16200  Biso   1.000  O
  O47      1.0000 0.84200  0.47500  0.39700  Biso   1.000  O
  O48      1.0000 0.86700  0.65500  0.46700  Biso   1.000  O
  O49      1.0000 0.86600  0.07000  0.40700  Biso   1.000  O
  O50      1.0000 0.91600  0.91000  0.46900  Biso   1.000  O
  Mo13     1.0000 0.98260  0.60420  0.17660  Biso   1.000  Mo
  Mo14     1.0000 0.87640  0.50730  0.07600  Biso   1.000  Mo
  Mo15     1.0000 0.75140  0.65830  0.94280  Biso   1.000  Mo
  Mo16     1.0000 0.76200  0.86950  0.94390  Biso   1.000  Mo
  Mo17     1.0000 0.90000  0.00360  0.07900  Biso   1.000  Mo
  Mo18     1.0000 0.99370  0.88900  0.18090  Biso   1.000  Mo
  Mo19     1.0000 0.00230  0.60730  0.82200  Biso   1.000  Mo
  Mo20     1.0000 0.09350  0.49500  0.91910  Biso   1.000  Mo
  Mo21     1.0000 0.23510  0.63080  0.05910  Biso   1.000  Mo
  Mo22     1.0000 0.24470  0.84060  0.06100  Biso   1.000  Mo
  Mo23     1.0000 0.11490  0.99960  0.92520  Biso   1.000  Mo
  Mo24     1.0000 0.01530  0.89690  0.82440  Biso   1.000  Mo
  P9       1.0000 0.80500  0.75900  0.11000  Biso   1.000  P
  P10      1.0000 0.96500  0.75100  0.32300  Biso   1.000  P
  P11      1.0000 0.66100  0.48600  0.04100  Biso   1.000  P
  P12      1.0000 0.68300  0.04800  0.04800  Biso   1.000  P
  P13      1.0000 0.20000  0.73800  0.89400  Biso   1.000  P
  P14      1.0000 0.03300  0.75800  0.67800  Biso   1.000  P
  P15      1.0000 0.31000  0.44400  0.95800  Biso   1.000  P
  P16      1.0000 0.33800  0.02300  0.96200  Biso   1.000  P
  Cd3      1.0000 0.00000  0.75430  0.00000  Biso   1.000  Cd
  Cd4      1.0000 0.00040  0.74900  0.50060  Biso   1.000  Cd
  O51      1.0000 0.86400  0.53000  0.17100  Biso   1.000  O
  O52      1.0000 0.97900  0.60900  0.07000  Biso   1.000  O
  O53      1.0000 0.96400  0.64400  0.28000  Biso   1.000  O
  O54      1.0000 0.06000  0.74600  0.18300  Biso   1.000  O
  O55      1.0000 0.88600  0.75100  0.16300  Biso   1.000  O
  O56      1.0000 0.84400  0.53900  0.96600  Biso   1.000  O
  O57      1.0000 0.75500  0.43100  0.06100  Biso   1.000  O
  O58      1.0000 0.79700  0.65900  0.06600  Biso   1.000  O
  O59      1.0000 0.85000  0.75200  0.94400  Biso   1.000  O
  O60      1.0000 0.67100  0.75000  0.96800  Biso   1.000  O
  O61      1.0000 0.66100  0.55600  0.97400  Biso   1.000  O
  O62      1.0000 0.81000  0.85500  0.06000  Biso   1.000  O
  O63      1.0000 0.68400  0.99300  0.97200  Biso   1.000  O
  O64      1.0000 0.86100  0.98200  0.97500  Biso   1.000  O
  O65      1.0000 0.89100  0.98700  0.18000  Biso   1.000  O
  O66      1.0000 0.77800  0.07800  0.08100  Biso   1.000  O
  O67      1.0000 0.99200  0.88400  0.07900  Biso   1.000  O
  O68      1.0000 0.97400  0.84200  0.27800  Biso   1.000  O
  O69      1.0000 0.10300  0.74100  0.84700  Biso   1.000  O
  O70      1.0000 0.11000  0.52400  0.82400  Biso   1.000  O
  O71      1.0000 0.00800  0.60800  0.92500  Biso   1.000  O
  O72      1.0000 0.93000  0.76100  0.82300  Biso   1.000  O
  O73      1.0000 0.02100  0.64600  0.71900  Biso   1.000  O
  O74      1.0000 0.19600  0.63400  0.94100  Biso   1.000  O
  O75      1.0000 0.12600  0.51800  0.03500  Biso   1.000  O
  O76      1.0000 0.21400  0.41000  0.93200  Biso   1.000  O
  O77      1.0000 0.13700  0.73700  0.05800  Biso   1.000  O
  O78      1.0000 0.31700  0.50900  0.02300  Biso   1.000  O
  O79      1.0000 0.32600  0.73400  0.04100  Biso   1.000  O
  O80      1.0000 0.14600  0.97200  0.03400  Biso   1.000  O
  O81      1.0000 0.33200  0.95500  0.02900  Biso   1.000  O
  O82      1.0000 0.20400  0.84000  0.94600  Biso   1.000  O
  O83      1.0000 0.24800  0.05700  0.93000  Biso   1.000  O
  O84      1.0000 0.02400  0.88800  0.92300  Biso   1.000  O
  O85      1.0000 0.12200  0.97200  0.82400  Biso   1.000  O
  O86      1.0000 0.01200  0.85300  0.72100  Biso   1.000  O
  O87      1.0000 0.71400  0.77500  0.14200  Biso   1.000  O
  O88      1.0000 0.03100  0.75200  0.39100  Biso   1.000  O
  O89      1.0000 0.86300  0.75700  0.33700  Biso   1.000  O
  O90      1.0000 0.64000  0.55500  0.10500  Biso   1.000  O
  O91      1.0000 0.59400  0.39100  0.02800  Biso   1.000  O
  O92      1.0000 0.62100  0.14300  0.04700  Biso   1.000  O
  O93      1.0000 0.64300  0.96800  0.09400  Biso   1.000  O
  O94      1.0000 0.27400  0.73700  0.85500  Biso   1.000  O
  O95      1.0000 0.97400  0.76400  0.61200  Biso   1.000  O
  O96      1.0000 0.13400  0.75800  0.66200  Biso   1.000  O
  O97      1.0000 0.34200  0.52500  0.89700  Biso   1.000  O
  O98      1.0000 0.36700  0.34500  0.96700  Biso   1.000  O
  O99      1.0000 0.36600  0.93000  0.90700  Biso   1.000  O
  O100     1.0000 0.41600  0.09000  0.96900  Biso   1.000  O
