data_image0
_cell_length_a       15.123
_cell_length_b       12.305
_cell_length_c       19.264
_cell_angle_alpha    90
_cell_angle_beta     98.62
_cell_angle_gamma    90

_symmetry_space_group_name_H-M    "P 1"
_symmetry_int_tables_number       1

loop_
  _symmetry_equiv_pos_as_xyz
  'x, y, z'

loop_
  _atom_site_label
  _atom_site_occupancy
  _atom_site_fract_x
  _atom_site_fract_y
  _atom_site_fract_z
  _atom_site_thermal_displace_type
  _atom_site_B_iso_or_equiv
  _atom_site_type_symbol
  Mo1      1.0000 0.01640  0.14640  0.82390  Biso   1.000  Mo
  Mo2      1.0000 0.11930  0.24620  0.92460  Biso   1.000  Mo
  Mo3      1.0000 0.24660  0.09100  0.05900  Biso   1.000  Mo
  Mo4      1.0000 0.23650  0.88050  0.05760  Biso   1.000  Mo
  Mo5      1.0000 0.09670  0.74560  0.92010  Biso   1.000  Mo
  Mo6      1.0000 0.00440  0.85910  0.82060  Biso   1.000  Mo
  P1       1.0000 0.19770  0.98960  0.89240  Biso   1.000  P
  P2       1.0000 0.03420  0.00340  0.67740  Biso   1.000  P
  P3       1.0000 0.33870  0.26840  0.96010  Biso   1.000  P
  P4       1.0000 0.31360  0.69800  0.95570  Biso   1.000  P
  O1       1.0000 0.12900  0.22180  0.82670  Biso   1.000  O
  O2       1.0000 0.02220  0.13900  0.92650  Biso   1.000  O
  O3       1.0000 0.02400  0.10460  0.72030  Biso   1.000  O
  O4       1.0000 0.93470  0.00880  0.81970  Biso   1.000  O
  O5       1.0000 0.10840  0.99540  0.84200  Biso   1.000  O
  O6       1.0000 0.15110  0.21720  0.03310  Biso   1.000  O
  O7       1.0000 0.24650  0.31210  0.93320  Biso   1.000  O
  O8       1.0000 0.20290  0.09100  0.94030  Biso   1.000  O
  O9       1.0000 0.14280  0.99240  0.05740  Biso   1.000  O
  O10      1.0000 0.32770  0.97980  0.03650  Biso   1.000  O
  O11      1.0000 0.33570  0.20080  0.02660  Biso   1.000  O
  O12      1.0000 0.19330  0.88920  0.94010  Biso   1.000  O
  O13      1.0000 0.31680  0.75770  0.02570  Biso   1.000  O
  O14      1.0000 0.13230  0.76820  0.03040  Biso   1.000  O
  O15      1.0000 0.10870  0.76860  0.82130  Biso   1.000  O
  O16      1.0000 0.21760  0.66630  0.92640  Biso   1.000  O
  O17      1.0000 0.00900  0.86240  0.92350  Biso   1.000  O
  O18      1.0000 0.02340  0.90080  0.72070  Biso   1.000  O
  O19      1.0000 0.27960  0.98080  0.85650  Biso   1.000  O
  O20      1.0000 0.97080  0.00690  0.61010  Biso   1.000  O
  O21      1.0000 0.13480  0.00080  0.66220  Biso   1.000  O
  O22      1.0000 0.36370  0.18800  0.90220  Biso   1.000  O
  O23      1.0000 0.41210  0.34910  0.97040  Biso   1.000  O
  O24      1.0000 0.37340  0.60100  0.96030  Biso   1.000  O
  O25      1.0000 0.34880  0.77790  0.90000  Biso   1.000  O
  Mo7      1.0000 0.48360  0.64640  0.67610  Biso   1.000  Mo
  Mo8      1.0000 0.38070  0.74620  0.57540  Biso   1.000  Mo
  Mo9      1.0000 0.25340  0.59100  0.44100  Biso   1.000  Mo
  Mo10     1.0000 0.26350  0.38050  0.44240  Biso   1.000  Mo
  Mo11     1.0000 0.40330  0.24560  0.57990  Biso   1.000  Mo
  Mo12     1.0000 0.49560  0.35910  0.67940  Biso   1.000  Mo
  P5       1.0000 0.30230  0.48960  0.60760  Biso   1.000  P
  P6       1.0000 0.46580  0.50340  0.82260  Biso   1.000  P
  P7       1.0000 0.16130  0.76840  0.53990  Biso   1.000  P
  P8       1.0000 0.18640  0.19800  0.54430  Biso   1.000  P
  O26      1.0000 0.37100  0.72180  0.67330  Biso   1.000  O
  O27      1.0000 0.47780  0.63900  0.57350  Biso   1.000  O
  O28      1.0000 0.47600  0.60460  0.77970  Biso   1.000  O
  O29      1.0000 0.56530  0.50880  0.68030  Biso   1.000  O
  O30      1.0000 0.39160  0.49540  0.65800  Biso   1.000  O
  O31      1.0000 0.34890  0.71720  0.46690  Biso   1.000  O
  O32      1.0000 0.25350  0.81210  0.56680  Biso   1.000  O
  O33      1.0000 0.29710  0.59100  0.55970  Biso   1.000  O
  O34      1.0000 0.35720  0.49240  0.44260  Biso   1.000  O
  O35      1.0000 0.17230  0.47980  0.46350  Biso   1.000  O
  O36      1.0000 0.16430  0.70080  0.47340  Biso   1.000  O
  O37      1.0000 0.30670  0.38920  0.55990  Biso   1.000  O
  O38      1.0000 0.18320  0.25770  0.47430  Biso   1.000  O
  O39      1.0000 0.36770  0.26820  0.46960  Biso   1.000  O
  O40      1.0000 0.39130  0.26860  0.67870  Biso   1.000  O
  O41      1.0000 0.28240  0.16630  0.57360  Biso   1.000  O
  O42      1.0000 0.49100  0.36240  0.57650  Biso   1.000  O
  O43      1.0000 0.47660  0.40080  0.77930  Biso   1.000  O
  O44      1.0000 0.22040  0.48080  0.64350  Biso   1.000  O
  O45      1.0000 0.52920  0.50690  0.88990  Biso   1.000  O
  O46      1.0000 0.36520  0.50080  0.83780  Biso   1.000  O
  O47      1.0000 0.13630  0.68800  0.59780  Biso   1.000  O
  O48      1.0000 0.08790  0.84910  0.52960  Biso   1.000  O
  O49      1.0000 0.12660  0.10100  0.53970  Biso   1.000  O
  O50      1.0000 0.15120  0.27790  0.60000  Biso   1.000  O
  Mo13     1.0000 0.98360  0.85360  0.17610  Biso   1.000  Mo
  Mo14     1.0000 0.88070  0.75380  0.07540  Biso   1.000  Mo
  Mo15     1.0000 0.75340  0.90900  0.94100  Biso   1.000  Mo
  Mo16     1.0000 0.76350  0.11950  0.94240  Biso   1.000  Mo
  Mo17     1.0000 0.90330  0.25440  0.07990  Biso   1.000  Mo
  Mo18     1.0000 0.99560  0.14090  0.17940  Biso   1.000  Mo
  P9       1.0000 0.80230  0.01040  0.10760  Biso   1.000  P
  P10      1.0000 0.96580  0.99660  0.32260  Biso   1.000  P
  P11      1.0000 0.66130  0.73160  0.03990  Biso   1.000  P
  P12      1.0000 0.68640  0.30200  0.04430  Biso   1.000  P
  O51      1.0000 0.87100  0.77820  0.17330  Biso   1.000  O
  O52      1.0000 0.97780  0.86100  0.07350  Biso   1.000  O
  O53      1.0000 0.97600  0.89540  0.27970  Biso   1.000  O
  O54      1.0000 0.06530  0.99120  0.18030  Biso   1.000  O
  O55      1.0000 0.89160  0.00460  0.15800  Biso   1.000  O
  O56      1.0000 0.84890  0.78280  0.96690  Biso   1.000  O
  O57      1.0000 0.75350  0.68790  0.06680  Biso   1.000  O
  O58      1.0000 0.79710  0.90900  0.05970  Biso   1.000  O
  O59      1.0000 0.85720  0.00760  0.94260  Biso   1.000  O
  O60      1.0000 0.67230  0.02020  0.96350  Biso   1.000  O
  O61      1.0000 0.66430  0.79920  0.97340  Biso   1.000  O
  O62      1.0000 0.80670  0.11080  0.05990  Biso   1.000  O
  O63      1.0000 0.68320  0.24230  0.97430  Biso   1.000  O
  O64      1.0000 0.86770  0.23180  0.96960  Biso   1.000  O
  O65      1.0000 0.89130  0.23140  0.17870  Biso   1.000  O
  O66      1.0000 0.78240  0.33370  0.07360  Biso   1.000  O
  O67      1.0000 0.99100  0.13760  0.07650  Biso   1.000  O
  O68      1.0000 0.97660  0.09920  0.27930  Biso   1.000  O
  O69      1.0000 0.72040  0.01920  0.14350  Biso   1.000  O
  O70      1.0000 0.02920  0.99310  0.38990  Biso   1.000  O
  O71      1.0000 0.86520  0.99920  0.33780  Biso   1.000  O
  O72      1.0000 0.63630  0.81200  0.09780  Biso   1.000  O
  O73      1.0000 0.58790  0.65090  0.02960  Biso   1.000  O
  O74      1.0000 0.62660  0.39900  0.03970  Biso   1.000  O
  O75      1.0000 0.65120  0.22210  0.10000  Biso   1.000  O
  Mo19     1.0000 0.51640  0.35360  0.32390  Biso   1.000  Mo
  Mo20     1.0000 0.61930  0.25380  0.42460  Biso   1.000  Mo
  Mo21     1.0000 0.74660  0.40900  0.55900  Biso   1.000  Mo
  Mo22     1.0000 0.73650  0.61950  0.55760  Biso   1.000  Mo
  Mo23     1.0000 0.59670  0.75440  0.42010  Biso   1.000  Mo
  Mo24     1.0000 0.50440  0.64090  0.32060  Biso   1.000  Mo
  P13      1.0000 0.69770  0.51040  0.39240  Biso   1.000  P
  P14      1.0000 0.53420  0.49660  0.17740  Biso   1.000  P
  P15      1.0000 0.83870  0.23160  0.46010  Biso   1.000  P
  P16      1.0000 0.81360  0.80200  0.45570  Biso   1.000  P
  O76      1.0000 0.62900  0.27820  0.32670  Biso   1.000  O
  O77      1.0000 0.52220  0.36100  0.42650  Biso   1.000  O
  O78      1.0000 0.52400  0.39540  0.22030  Biso   1.000  O
  O79      1.0000 0.43470  0.49120  0.31970  Biso   1.000  O
  O80      1.0000 0.60840  0.50460  0.34200  Biso   1.000  O
  O81      1.0000 0.65110  0.28280  0.53310  Biso   1.000  O
  O82      1.0000 0.74650  0.18790  0.43320  Biso   1.000  O
  O83      1.0000 0.70290  0.40900  0.44030  Biso   1.000  O
  O84      1.0000 0.64280  0.50760  0.55740  Biso   1.000  O
  O85      1.0000 0.82770  0.52020  0.53650  Biso   1.000  O
  O86      1.0000 0.83570  0.29920  0.52660  Biso   1.000  O
  O87      1.0000 0.69330  0.61080  0.44010  Biso   1.000  O
  O88      1.0000 0.81680  0.74230  0.52570  Biso   1.000  O
  O89      1.0000 0.63230  0.73180  0.53040  Biso   1.000  O
  O90      1.0000 0.60870  0.73140  0.32130  Biso   1.000  O
  O91      1.0000 0.71760  0.83370  0.42640  Biso   1.000  O
  O92      1.0000 0.50900  0.63760  0.42350  Biso   1.000  O
  O93      1.0000 0.52340  0.59920  0.22070  Biso   1.000  O
  O94      1.0000 0.77960  0.51920  0.35650  Biso   1.000  O
  O95      1.0000 0.47080  0.49310  0.11010  Biso   1.000  O
  O96      1.0000 0.63480  0.49920  0.16220  Biso   1.000  O
  O97      1.0000 0.86370  0.31200  0.40220  Biso   1.000  O
  O98      1.0000 0.91210  0.15090  0.47040  Biso   1.000  O
  O99      1.0000 0.87340  0.89900  0.46030  Biso   1.000  O
  O100     1.0000 0.84880  0.72210  0.40000  Biso   1.000  O
  Cd1      1.0000 0.00000  0.00000  0.00000  Biso   1.000  Cd
  Cd2      1.0000 0.50000  0.50000  0.50000  Biso   1.000  Cd
  Cd3      1.0000 0.00000  0.00000  0.50000  Biso   1.000  Cd
  Cd4      1.0000 0.50000  0.50000  0.00000  Biso   1.000  Cd
