data_image0
_cell_length_a       21.8529
_cell_length_b       15.5019
_cell_length_c       16.8985
_cell_angle_alpha    90
_cell_angle_beta     90
_cell_angle_gamma    90

_symmetry_space_group_name_H-M    "P 1"
_symmetry_int_tables_number       1

loop_
  _symmetry_equiv_pos_as_xyz
  'x, y, z'

loop_
  _atom_site_label
  _atom_site_occupancy
  _atom_site_fract_x
  _atom_site_fract_y
  _atom_site_fract_z
  _atom_site_thermal_displace_type
  _atom_site_B_iso_or_equiv
  _atom_site_type_symbol
  Ag1      1.0000 0.14122  0.29449  0.45340  Biso   1.000  Ag
  Ag2      1.0000 0.14678  0.96680  0.24010  Biso   1.000  Ag
  N1       1.0000 0.11480  0.23680  0.33050  Biso   1.000  N
  N2       1.0000 0.11060  0.10970  0.25160  Biso   1.000  N
  N3       1.0000 0.23130  0.37320  0.44530  Biso   1.000  N
  N4       1.0000 0.31050  0.43230  0.36670  Biso   1.000  N
  N5       1.0000 0.05420  0.31950  0.52430  Biso   1.000  N
  N6       1.0000 0.05480  0.89530  0.27280  Biso   1.000  N
  C1       1.0000 0.09360  0.28100  0.27070  Biso   1.000  C
  H1       1.0000 0.08660  0.34110  0.27710  Biso   1.000  H
  C2       1.0000 0.08080  0.24340  0.19810  Biso   1.000  C
  H2       1.0000 0.06690  0.27650  0.15430  Biso   1.000  H
  C3       1.0000 0.08940  0.15690  0.19280  Biso   1.000  C
  H3       1.0000 0.07950  0.12890  0.14450  Biso   1.000  H
  C4       1.0000 0.12250  0.15340  0.31840  Biso   1.000  C
  H4       1.0000 0.13820  0.12080  0.36150  Biso   1.000  H
  C5       1.0000 0.26680  0.38130  0.50850  Biso   1.000  C
  H5       1.0000 0.25210  0.36170  0.55830  Biso   1.000  H
  C6       1.0000 0.32430  0.41710  0.50430  Biso   1.000  C
  H6       1.0000 0.34890  0.42530  0.55010  Biso   1.000  H
  C7       1.0000 0.34420  0.44050  0.43010  Biso   1.000  C
  H7       1.0000 0.38420  0.46370  0.42480  Biso   1.000  H
  C8       1.0000 0.25370  0.40100  0.37740  Biso   1.000  C
  H8       1.0000 0.22760  0.39870  0.33250  Biso   1.000  H
  C9       1.0000 0.05420  0.35010  0.59740  Biso   1.000  C
  H9       1.0000 0.09200  0.36140  0.62300  Biso   1.000  H
  C10      1.0000 0.05360  0.81860  0.31000  Biso   1.000  C
  H10      1.0000 0.09140  0.79200  0.32330  Biso   1.000  H
  Ag3      1.0000 0.64122  0.79449  0.45340  Biso   1.000  Ag
  Ag4      1.0000 0.64678  0.46680  0.24010  Biso   1.000  Ag
  N7       1.0000 0.61480  0.73680  0.33050  Biso   1.000  N
  N8       1.0000 0.61060  0.60970  0.25160  Biso   1.000  N
  N9       1.0000 0.73130  0.87320  0.44530  Biso   1.000  N
  N10      1.0000 0.81050  0.93230  0.36670  Biso   1.000  N
  N11      1.0000 0.55420  0.81950  0.52430  Biso   1.000  N
  N12      1.0000 0.55480  0.39530  0.27280  Biso   1.000  N
  C11      1.0000 0.59360  0.78100  0.27070  Biso   1.000  C
  H11      1.0000 0.58660  0.84110  0.27710  Biso   1.000  H
  C12      1.0000 0.58080  0.74340  0.19810  Biso   1.000  C
  H12      1.0000 0.56690  0.77650  0.15430  Biso   1.000  H
  C13      1.0000 0.58940  0.65690  0.19280  Biso   1.000  C
  H13      1.0000 0.57950  0.62890  0.14450  Biso   1.000  H
  C14      1.0000 0.62250  0.65340  0.31840  Biso   1.000  C
  H14      1.0000 0.63820  0.62080  0.36150  Biso   1.000  H
  C15      1.0000 0.76680  0.88130  0.50850  Biso   1.000  C
  H15      1.0000 0.75210  0.86170  0.55830  Biso   1.000  H
  C16      1.0000 0.82430  0.91710  0.50430  Biso   1.000  C
  H16      1.0000 0.84890  0.92530  0.55010  Biso   1.000  H
  C17      1.0000 0.84420  0.94050  0.43010  Biso   1.000  C
  H17      1.0000 0.88420  0.96370  0.42480  Biso   1.000  H
  C18      1.0000 0.75370  0.90100  0.37740  Biso   1.000  C
  H18      1.0000 0.72760  0.89870  0.33250  Biso   1.000  H
  C19      1.0000 0.55420  0.85010  0.59740  Biso   1.000  C
  H19      1.0000 0.59200  0.86140  0.62300  Biso   1.000  H
  C20      1.0000 0.55360  0.31860  0.31000  Biso   1.000  C
  H20      1.0000 0.59140  0.29200  0.32330  Biso   1.000  H
  N13      1.0000 0.80410  0.82470  0.02020  Biso   1.000  N
  N14      1.0000 0.80080  0.91370  0.13610  Biso   1.000  N
  C21      1.0000 0.74440  0.84220  0.00660  Biso   1.000  C
  H21      1.0000 0.72500  0.81830  0.96130  Biso   1.000  H
  C22      1.0000 0.71110  0.89410  0.05710  Biso   1.000  C
  H22      1.0000 0.66910  0.90610  0.04760  Biso   1.000  H
  C23      1.0000 0.74110  0.92810  0.12200  Biso   1.000  C
  H23      1.0000 0.71870  0.96300  0.15800  Biso   1.000  H
  C24      1.0000 0.82820  0.86270  0.08410  Biso   1.000  C
  H24      1.0000 0.87040  0.85170  0.09340  Biso   1.000  H
  N15      1.0000 0.30410  0.32470  0.02020  Biso   1.000  N
  N16      1.0000 0.30080  0.41370  0.13610  Biso   1.000  N
  C25      1.0000 0.24440  0.34220  0.00660  Biso   1.000  C
  H25      1.0000 0.22500  0.31830  0.96130  Biso   1.000  H
  C26      1.0000 0.21110  0.39410  0.05710  Biso   1.000  C
  H26      1.0000 0.16910  0.40610  0.04760  Biso   1.000  H
  C27      1.0000 0.24110  0.42810  0.12200  Biso   1.000  C
  H27      1.0000 0.21870  0.46300  0.15800  Biso   1.000  H
  C28      1.0000 0.32820  0.36270  0.08410  Biso   1.000  C
  H28      1.0000 0.37040  0.35170  0.09340  Biso   1.000  H
  N17      1.0000 0.19590  0.82470  0.02020  Biso   1.000  N
  N18      1.0000 0.19920  0.91370  0.13610  Biso   1.000  N
  C29      1.0000 0.25560  0.84220  0.00660  Biso   1.000  C
  H29      1.0000 0.27500  0.81830  0.96130  Biso   1.000  H
  C30      1.0000 0.28890  0.89410  0.05710  Biso   1.000  C
  H30      1.0000 0.33090  0.90610  0.04760  Biso   1.000  H
  C31      1.0000 0.25890  0.92810  0.12200  Biso   1.000  C
  H31      1.0000 0.28130  0.96300  0.15800  Biso   1.000  H
  C32      1.0000 0.17180  0.86270  0.08410  Biso   1.000  C
  H32      1.0000 0.12960  0.85170  0.09340  Biso   1.000  H
  N19      1.0000 0.69590  0.32470  0.02020  Biso   1.000  N
  N20      1.0000 0.69920  0.41370  0.13610  Biso   1.000  N
  C33      1.0000 0.75560  0.34220  0.00660  Biso   1.000  C
  H33      1.0000 0.77500  0.31830  0.96130  Biso   1.000  H
  C34      1.0000 0.78890  0.39410  0.05710  Biso   1.000  C
  H34      1.0000 0.83090  0.40610  0.04760  Biso   1.000  H
  C35      1.0000 0.75890  0.42810  0.12200  Biso   1.000  C
  H35      1.0000 0.78130  0.46300  0.15800  Biso   1.000  H
  C36      1.0000 0.67180  0.36270  0.08410  Biso   1.000  C
  H36      1.0000 0.62960  0.35170  0.09340  Biso   1.000  H
  Ag5      1.0000 0.85878  0.29449  0.45340  Biso   1.000  Ag
  Ag6      1.0000 0.85322  0.96680  0.24010  Biso   1.000  Ag
  N21      1.0000 0.88520  0.23680  0.33050  Biso   1.000  N
  N22      1.0000 0.88940  0.10970  0.25160  Biso   1.000  N
  N23      1.0000 0.76870  0.37320  0.44530  Biso   1.000  N
  N24      1.0000 0.68950  0.43230  0.36670  Biso   1.000  N
  N25      1.0000 0.94580  0.31950  0.52430  Biso   1.000  N
  N26      1.0000 0.94520  0.89530  0.27280  Biso   1.000  N
  C37      1.0000 0.90640  0.28100  0.27070  Biso   1.000  C
  H37      1.0000 0.91340  0.34110  0.27710  Biso   1.000  H
  C38      1.0000 0.91920  0.24340  0.19810  Biso   1.000  C
  H38      1.0000 0.93310  0.27650  0.15430  Biso   1.000  H
  C39      1.0000 0.91060  0.15690  0.19280  Biso   1.000  C
  H39      1.0000 0.92050  0.12890  0.14450  Biso   1.000  H
  C40      1.0000 0.87750  0.15340  0.31840  Biso   1.000  C
  H40      1.0000 0.86180  0.12080  0.36150  Biso   1.000  H
  C41      1.0000 0.73320  0.38130  0.50850  Biso   1.000  C
  H41      1.0000 0.74790  0.36170  0.55830  Biso   1.000  H
  C42      1.0000 0.67570  0.41710  0.50430  Biso   1.000  C
  H42      1.0000 0.65110  0.42530  0.55010  Biso   1.000  H
  C43      1.0000 0.65580  0.44050  0.43010  Biso   1.000  C
  H43      1.0000 0.61580  0.46370  0.42480  Biso   1.000  H
  C44      1.0000 0.74630  0.40100  0.37740  Biso   1.000  C
  H44      1.0000 0.77240  0.39870  0.33250  Biso   1.000  H
  C45      1.0000 0.94580  0.35010  0.59740  Biso   1.000  C
  H45      1.0000 0.90800  0.36140  0.62300  Biso   1.000  H
  C46      1.0000 0.94640  0.81860  0.31000  Biso   1.000  C
  H46      1.0000 0.90860  0.79200  0.32330  Biso   1.000  H
  Ag7      1.0000 0.35878  0.79449  0.45340  Biso   1.000  Ag
  Ag8      1.0000 0.35322  0.46680  0.24010  Biso   1.000  Ag
  N27      1.0000 0.38520  0.73680  0.33050  Biso   1.000  N
  N28      1.0000 0.38940  0.60970  0.25160  Biso   1.000  N
  N29      1.0000 0.26870  0.87320  0.44530  Biso   1.000  N
  N30      1.0000 0.18950  0.93230  0.36670  Biso   1.000  N
  N31      1.0000 0.44580  0.81950  0.52430  Biso   1.000  N
  N32      1.0000 0.44520  0.39530  0.27280  Biso   1.000  N
  C47      1.0000 0.40640  0.78100  0.27070  Biso   1.000  C
  H47      1.0000 0.41340  0.84110  0.27710  Biso   1.000  H
  C48      1.0000 0.41920  0.74340  0.19810  Biso   1.000  C
  H48      1.0000 0.43310  0.77650  0.15430  Biso   1.000  H
  C49      1.0000 0.41060  0.65690  0.19280  Biso   1.000  C
  H49      1.0000 0.42050  0.62890  0.14450  Biso   1.000  H
  C50      1.0000 0.37750  0.65340  0.31840  Biso   1.000  C
  H50      1.0000 0.36180  0.62080  0.36150  Biso   1.000  H
  C51      1.0000 0.23320  0.88130  0.50850  Biso   1.000  C
  H51      1.0000 0.24790  0.86170  0.55830  Biso   1.000  H
  C52      1.0000 0.17570  0.91710  0.50430  Biso   1.000  C
  H52      1.0000 0.15110  0.92530  0.55010  Biso   1.000  H
  C53      1.0000 0.15580  0.94050  0.43010  Biso   1.000  C
  H53      1.0000 0.11580  0.96370  0.42480  Biso   1.000  H
  C54      1.0000 0.24630  0.90100  0.37740  Biso   1.000  C
  H54      1.0000 0.27240  0.89870  0.33250  Biso   1.000  H
  C55      1.0000 0.44580  0.85010  0.59740  Biso   1.000  C
  H55      1.0000 0.40800  0.86140  0.62300  Biso   1.000  H
  C56      1.0000 0.44640  0.31860  0.31000  Biso   1.000  C
  H56      1.0000 0.40860  0.29200  0.32330  Biso   1.000  H
  C57      1.0000 0.00000  0.36590  0.63720  Biso   1.000  C
  H57      1.0000 0.00000  0.38690  0.69000  Biso   1.000  H
  C58      1.0000 0.00000  0.30540  0.49030  Biso   1.000  C
  H58      1.0000 0.00000  0.28370  0.43780  Biso   1.000  H
  C59      1.0000 0.00000  0.77690  0.32960  Biso   1.000  C
  H59      1.0000 0.00000  0.72240  0.35530  Biso   1.000  H
  C60      1.0000 0.00000  0.93040  0.25970  Biso   1.000  C
  H60      1.0000 0.00000  0.98710  0.23850  Biso   1.000  H
  C61      1.0000 0.50000  0.86590  0.63720  Biso   1.000  C
  H61      1.0000 0.50000  0.88690  0.69000  Biso   1.000  H
  C62      1.0000 0.50000  0.80540  0.49030  Biso   1.000  C
  H62      1.0000 0.50000  0.78370  0.43780  Biso   1.000  H
  C63      1.0000 0.50000  0.27690  0.32960  Biso   1.000  C
  H63      1.0000 0.50000  0.22240  0.35530  Biso   1.000  H
  C64      1.0000 0.50000  0.43040  0.25970  Biso   1.000  C
  H64      1.0000 0.50000  0.48710  0.23850  Biso   1.000  H
  N33      1.0000 0.19590  0.17530  0.52020  Biso   1.000  N
  N34      1.0000 0.19920  0.08630  0.63610  Biso   1.000  N
  C65      1.0000 0.25560  0.15780  0.50660  Biso   1.000  C
  H65      1.0000 0.27500  0.18170  0.46130  Biso   1.000  H
  C66      1.0000 0.28890  0.10590  0.55710  Biso   1.000  C
  H66      1.0000 0.33090  0.09390  0.54760  Biso   1.000  H
  C67      1.0000 0.25890  0.07190  0.62200  Biso   1.000  C
  H67      1.0000 0.28130  0.03700  0.65800  Biso   1.000  H
  C68      1.0000 0.17180  0.13730  0.58410  Biso   1.000  C
  H68      1.0000 0.12960  0.14830  0.59340  Biso   1.000  H
  N35      1.0000 0.69590  0.67530  0.52020  Biso   1.000  N
  N36      1.0000 0.69920  0.58630  0.63610  Biso   1.000  N
  C69      1.0000 0.75560  0.65780  0.50660  Biso   1.000  C
  H69      1.0000 0.77500  0.68170  0.46130  Biso   1.000  H
  C70      1.0000 0.78890  0.60590  0.55710  Biso   1.000  C
  H70      1.0000 0.83090  0.59390  0.54760  Biso   1.000  H
  C71      1.0000 0.75890  0.57190  0.62200  Biso   1.000  C
  H71      1.0000 0.78130  0.53700  0.65800  Biso   1.000  H
  C72      1.0000 0.67180  0.63730  0.58410  Biso   1.000  C
  H72      1.0000 0.62960  0.64830  0.59340  Biso   1.000  H
  Ag9      1.0000 0.85878  0.70551  0.95340  Biso   1.000  Ag
  Ag10     1.0000 0.85322  0.03320  0.74010  Biso   1.000  Ag
  N37      1.0000 0.88520  0.76320  0.83050  Biso   1.000  N
  N38      1.0000 0.88940  0.89030  0.75160  Biso   1.000  N
  N39      1.0000 0.76870  0.62680  0.94530  Biso   1.000  N
  N40      1.0000 0.68950  0.56770  0.86670  Biso   1.000  N
  N41      1.0000 0.94580  0.68050  0.02430  Biso   1.000  N
  N42      1.0000 0.94520  0.10470  0.77280  Biso   1.000  N
  C73      1.0000 0.90640  0.71900  0.77070  Biso   1.000  C
  H73      1.0000 0.91340  0.65890  0.77710  Biso   1.000  H
  C74      1.0000 0.91920  0.75660  0.69810  Biso   1.000  C
  H74      1.0000 0.93310  0.72350  0.65430  Biso   1.000  H
  C75      1.0000 0.91060  0.84310  0.69280  Biso   1.000  C
  H75      1.0000 0.92050  0.87110  0.64450  Biso   1.000  H
  C76      1.0000 0.87750  0.84660  0.81840  Biso   1.000  C
  H76      1.0000 0.86180  0.87920  0.86150  Biso   1.000  H
  C77      1.0000 0.73320  0.61870  0.00850  Biso   1.000  C
  H77      1.0000 0.74790  0.63830  0.05830  Biso   1.000  H
  C78      1.0000 0.67570  0.58290  0.00430  Biso   1.000  C
  H78      1.0000 0.65110  0.57470  0.05010  Biso   1.000  H
  C79      1.0000 0.65580  0.55950  0.93010  Biso   1.000  C
  H79      1.0000 0.61580  0.53630  0.92480  Biso   1.000  H
  C80      1.0000 0.74630  0.59900  0.87740  Biso   1.000  C
  H80      1.0000 0.77240  0.60130  0.83250  Biso   1.000  H
  C81      1.0000 0.94580  0.64990  0.09740  Biso   1.000  C
  H81      1.0000 0.90800  0.63860  0.12300  Biso   1.000  H
  C82      1.0000 0.94640  0.18140  0.81000  Biso   1.000  C
  H82      1.0000 0.90860  0.20800  0.82330  Biso   1.000  H
  Ag11     1.0000 0.35878  0.20551  0.95340  Biso   1.000  Ag
  Ag12     1.0000 0.35322  0.53320  0.74010  Biso   1.000  Ag
  N43      1.0000 0.38520  0.26320  0.83050  Biso   1.000  N
  N44      1.0000 0.38940  0.39030  0.75160  Biso   1.000  N
  N45      1.0000 0.26870  0.12680  0.94530  Biso   1.000  N
  N46      1.0000 0.18950  0.06770  0.86670  Biso   1.000  N
  N47      1.0000 0.44580  0.18050  0.02430  Biso   1.000  N
  N48      1.0000 0.44520  0.60470  0.77280  Biso   1.000  N
  C83      1.0000 0.40640  0.21900  0.77070  Biso   1.000  C
  H83      1.0000 0.41340  0.15890  0.77710  Biso   1.000  H
  C84      1.0000 0.41920  0.25660  0.69810  Biso   1.000  C
  H84      1.0000 0.43310  0.22350  0.65430  Biso   1.000  H
  C85      1.0000 0.41060  0.34310  0.69280  Biso   1.000  C
  H85      1.0000 0.42050  0.37110  0.64450  Biso   1.000  H
  C86      1.0000 0.37750  0.34660  0.81840  Biso   1.000  C
  H86      1.0000 0.36180  0.37920  0.86150  Biso   1.000  H
  C87      1.0000 0.23320  0.11870  0.00850  Biso   1.000  C
  H87      1.0000 0.24790  0.13830  0.05830  Biso   1.000  H
  C88      1.0000 0.17570  0.08290  0.00430  Biso   1.000  C
  H88      1.0000 0.15110  0.07470  0.05010  Biso   1.000  H
  C89      1.0000 0.15580  0.05950  0.93010  Biso   1.000  C
  H89      1.0000 0.11580  0.03630  0.92480  Biso   1.000  H
  C90      1.0000 0.24630  0.09900  0.87740  Biso   1.000  C
  H90      1.0000 0.27240  0.10130  0.83250  Biso   1.000  H
  C91      1.0000 0.44580  0.14990  0.09740  Biso   1.000  C
  H91      1.0000 0.40800  0.13860  0.12300  Biso   1.000  H
  C92      1.0000 0.44640  0.68140  0.81000  Biso   1.000  C
  H92      1.0000 0.40860  0.70800  0.82330  Biso   1.000  H
  Ag13     1.0000 0.14122  0.70551  0.95340  Biso   1.000  Ag
  Ag14     1.0000 0.14678  0.03320  0.74010  Biso   1.000  Ag
  N49      1.0000 0.11480  0.76320  0.83050  Biso   1.000  N
  N50      1.0000 0.11060  0.89030  0.75160  Biso   1.000  N
  N51      1.0000 0.23130  0.62680  0.94530  Biso   1.000  N
  N52      1.0000 0.31050  0.56770  0.86670  Biso   1.000  N
  N53      1.0000 0.05420  0.68050  0.02430  Biso   1.000  N
  N54      1.0000 0.05480  0.10470  0.77280  Biso   1.000  N
  C93      1.0000 0.09360  0.71900  0.77070  Biso   1.000  C
  H93      1.0000 0.08660  0.65890  0.77710  Biso   1.000  H
  C94      1.0000 0.08080  0.75660  0.69810  Biso   1.000  C
  H94      1.0000 0.06690  0.72350  0.65430  Biso   1.000  H
  C95      1.0000 0.08940  0.84310  0.69280  Biso   1.000  C
  H95      1.0000 0.07950  0.87110  0.64450  Biso   1.000  H
  C96      1.0000 0.12250  0.84660  0.81840  Biso   1.000  C
  H96      1.0000 0.13820  0.87920  0.86150  Biso   1.000  H
  C97      1.0000 0.26680  0.61870  0.00850  Biso   1.000  C
  H97      1.0000 0.25210  0.63830  0.05830  Biso   1.000  H
  C98      1.0000 0.32430  0.58290  0.00430  Biso   1.000  C
  H98      1.0000 0.34890  0.57470  0.05010  Biso   1.000  H
  C99      1.0000 0.34420  0.55950  0.93010  Biso   1.000  C
  H99      1.0000 0.38420  0.53630  0.92480  Biso   1.000  H
  C100     1.0000 0.25370  0.59900  0.87740  Biso   1.000  C
  H100     1.0000 0.22760  0.60130  0.83250  Biso   1.000  H
  C101     1.0000 0.05420  0.64990  0.09740  Biso   1.000  C
  H101     1.0000 0.09200  0.63860  0.12300  Biso   1.000  H
  C102     1.0000 0.05360  0.18140  0.81000  Biso   1.000  C
  H102     1.0000 0.09140  0.20800  0.82330  Biso   1.000  H
  Ag15     1.0000 0.64122  0.20551  0.95340  Biso   1.000  Ag
  Ag16     1.0000 0.64678  0.53320  0.74010  Biso   1.000  Ag
  N55      1.0000 0.61480  0.26320  0.83050  Biso   1.000  N
  N56      1.0000 0.61060  0.39030  0.75160  Biso   1.000  N
  N57      1.0000 0.73130  0.12680  0.94530  Biso   1.000  N
  N58      1.0000 0.81050  0.06770  0.86670  Biso   1.000  N
  N59      1.0000 0.55420  0.18050  0.02430  Biso   1.000  N
  N60      1.0000 0.55480  0.60470  0.77280  Biso   1.000  N
  C103     1.0000 0.59360  0.21900  0.77070  Biso   1.000  C
  H103     1.0000 0.58660  0.15890  0.77710  Biso   1.000  H
  C104     1.0000 0.58080  0.25660  0.69810  Biso   1.000  C
  H104     1.0000 0.56690  0.22350  0.65430  Biso   1.000  H
  C105     1.0000 0.58940  0.34310  0.69280  Biso   1.000  C
  H105     1.0000 0.57950  0.37110  0.64450  Biso   1.000  H
  C106     1.0000 0.62250  0.34660  0.81840  Biso   1.000  C
  H106     1.0000 0.63820  0.37920  0.86150  Biso   1.000  H
  C107     1.0000 0.76680  0.11870  0.00850  Biso   1.000  C
  H107     1.0000 0.75210  0.13830  0.05830  Biso   1.000  H
  C108     1.0000 0.82430  0.08290  0.00430  Biso   1.000  C
  H108     1.0000 0.84890  0.07470  0.05010  Biso   1.000  H
  C109     1.0000 0.84420  0.05950  0.93010  Biso   1.000  C
  H109     1.0000 0.88420  0.03630  0.92480  Biso   1.000  H
  C110     1.0000 0.75370  0.09900  0.87740  Biso   1.000  C
  H110     1.0000 0.72760  0.10130  0.83250  Biso   1.000  H
  C111     1.0000 0.55420  0.14990  0.09740  Biso   1.000  C
  H111     1.0000 0.59200  0.13860  0.12300  Biso   1.000  H
  C112     1.0000 0.55360  0.68140  0.81000  Biso   1.000  C
  H112     1.0000 0.59140  0.70800  0.82330  Biso   1.000  H
  N61      1.0000 0.80410  0.17530  0.52020  Biso   1.000  N
  N62      1.0000 0.80080  0.08630  0.63610  Biso   1.000  N
  C113     1.0000 0.74440  0.15780  0.50660  Biso   1.000  C
  H113     1.0000 0.72500  0.18170  0.46130  Biso   1.000  H
  C114     1.0000 0.71110  0.10590  0.55710  Biso   1.000  C
  H114     1.0000 0.66910  0.09390  0.54760  Biso   1.000  H
  C115     1.0000 0.74110  0.07190  0.62200  Biso   1.000  C
  H115     1.0000 0.71870  0.03700  0.65800  Biso   1.000  H
  C116     1.0000 0.82820  0.13730  0.58410  Biso   1.000  C
  H116     1.0000 0.87040  0.14830  0.59340  Biso   1.000  H
  N63      1.0000 0.30410  0.67530  0.52020  Biso   1.000  N
  N64      1.0000 0.30080  0.58630  0.63610  Biso   1.000  N
  C117     1.0000 0.24440  0.65780  0.50660  Biso   1.000  C
  H117     1.0000 0.22500  0.68170  0.46130  Biso   1.000  H
  C118     1.0000 0.21110  0.60590  0.55710  Biso   1.000  C
  H118     1.0000 0.16910  0.59390  0.54760  Biso   1.000  H
  C119     1.0000 0.24110  0.57190  0.62200  Biso   1.000  C
  H119     1.0000 0.21870  0.53700  0.65800  Biso   1.000  H
  C120     1.0000 0.32820  0.63730  0.58410  Biso   1.000  C
  H120     1.0000 0.37040  0.64830  0.59340  Biso   1.000  H
  C121     1.0000 0.00000  0.63410  0.13720  Biso   1.000  C
  H121     1.0000 0.00000  0.61310  0.19000  Biso   1.000  H
  C122     1.0000 0.00000  0.69460  0.99030  Biso   1.000  C
  H122     1.0000 0.00000  0.71630  0.93780  Biso   1.000  H
  C123     1.0000 0.00000  0.22310  0.82960  Biso   1.000  C
  H123     1.0000 0.00000  0.27760  0.85530  Biso   1.000  H
  C124     1.0000 0.00000  0.06960  0.75970  Biso   1.000  C
  H124     1.0000 0.00000  0.01290  0.73850  Biso   1.000  H
  C125     1.0000 0.50000  0.13410  0.13720  Biso   1.000  C
  H125     1.0000 0.50000  0.11310  0.19000  Biso   1.000  H
  C126     1.0000 0.50000  0.19460  0.99030  Biso   1.000  C
  H126     1.0000 0.50000  0.21630  0.93780  Biso   1.000  H
  C127     1.0000 0.50000  0.72310  0.82960  Biso   1.000  C
  H127     1.0000 0.50000  0.77760  0.85530  Biso   1.000  H
  C128     1.0000 0.50000  0.56960  0.75970  Biso   1.000  C
  H128     1.0000 0.50000  0.51290  0.73850  Biso   1.000  H
