data_image0
_cell_length_a       8.4557
_cell_length_b       9.2844
_cell_length_c       13.8599
_cell_angle_alpha    81.114
_cell_angle_beta     83.642
_cell_angle_gamma    72.626

_symmetry_space_group_name_H-M    "P 1"
_symmetry_int_tables_number       1

loop_
  _symmetry_equiv_pos_as_xyz
  'x, y, z'

loop_
  _atom_site_label
  _atom_site_occupancy
  _atom_site_fract_x
  _atom_site_fract_y
  _atom_site_fract_z
  _atom_site_thermal_displace_type
  _atom_site_B_iso_or_equiv
  _atom_site_type_symbol
  Zn1      1.0000 0.29367  0.91830  0.51946  Biso   1.000  Zn
  Zn2      1.0000 0.74556  0.49370  0.97301  Biso   1.000  Zn
  Zn3      1.0000 0.63779  0.88788  0.12587  Biso   1.000  Zn
  P1       1.0000 0.58114  0.21710  0.01996  Biso   1.000  P
  P2       1.0000 0.58470  0.86461  0.36397  Biso   1.000  P
  P3       1.0000 0.90460  0.56629  0.14874  Biso   1.000  P
  P4       1.0000 0.01690  0.20793  0.42267  Biso   1.000  P
  O1       1.0000 0.16680  0.07030  0.42380  Biso   1.000  O
  O2       1.0000 0.47180  0.79920  0.43960  Biso   1.000  O
  O3       1.0000 0.59670  0.01800  0.38370  Biso   1.000  O
  O4       1.0000 0.85970  0.17900  0.39680  Biso   1.000  O
  O5       1.0000 0.81410  0.47670  0.10350  Biso   1.000  O
  O6       1.0000 0.09110  0.49800  0.13490  Biso   1.000  O
  O7       1.0000 0.70980  0.29650  0.97000  Biso   1.000  O
  O8       1.0000 0.43520  0.32860  0.06970  Biso   1.000  O
  O9       1.0000 0.66420  0.09180  0.10180  Biso   1.000  O
  O10      1.0000 0.85000  0.73620  0.11260  Biso   1.000  O
  O11      1.0000 0.53110  0.14430  0.94190  Biso   1.000  O
  O12      1.0000 0.53060  0.87570  0.26140  Biso   1.000  O
  O13      1.0000 0.76780  0.75380  0.36950  Biso   1.000  O
  H1       1.0000 0.76900  0.66940  0.35800  Biso   1.000  H
  O14      1.0000 0.85760  0.54430  0.26220  Biso   1.000  O
  H2       1.0000 0.88470  0.45330  0.28290  Biso   1.000  H
  O15      1.0000 0.05790  0.33360  0.34930  Biso   1.000  O
  O16      1.0000 0.97650  0.25970  0.52760  Biso   1.000  O
  H3       1.0000 0.05620  0.28120  0.54380  Biso   1.000  H
  Zn4      1.0000 0.70633  0.08170  0.48054  Biso   1.000  Zn
  Zn5      1.0000 0.25444  0.50630  0.02699  Biso   1.000  Zn
  Zn6      1.0000 0.36221  0.11212  0.87413  Biso   1.000  Zn
  P5       1.0000 0.41886  0.78290  0.98004  Biso   1.000  P
  P6       1.0000 0.41530  0.13539  0.63603  Biso   1.000  P
  P7       1.0000 0.09540  0.43371  0.85126  Biso   1.000  P
  P8       1.0000 0.98310  0.79207  0.57733  Biso   1.000  P
  O17      1.0000 0.83320  0.92970  0.57620  Biso   1.000  O
  O18      1.0000 0.52820  0.20080  0.56040  Biso   1.000  O
  O19      1.0000 0.40330  0.98200  0.61630  Biso   1.000  O
  O20      1.0000 0.14030  0.82100  0.60320  Biso   1.000  O
  O21      1.0000 0.18590  0.52330  0.89650  Biso   1.000  O
  O22      1.0000 0.90890  0.50200  0.86510  Biso   1.000  O
  O23      1.0000 0.29020  0.70350  0.03000  Biso   1.000  O
  O24      1.0000 0.56480  0.67140  0.93030  Biso   1.000  O
  O25      1.0000 0.33580  0.90820  0.89820  Biso   1.000  O
  O26      1.0000 0.15000  0.26380  0.88740  Biso   1.000  O
  O27      1.0000 0.46890  0.85570  0.05810  Biso   1.000  O
  O28      1.0000 0.46940  0.12430  0.73860  Biso   1.000  O
  O29      1.0000 0.23220  0.24620  0.63050  Biso   1.000  O
  H4       1.0000 0.23100  0.33060  0.64200  Biso   1.000  H
  O30      1.0000 0.14240  0.45570  0.73780  Biso   1.000  O
  H5       1.0000 0.11530  0.54670  0.71710  Biso   1.000  H
  O31      1.0000 0.94210  0.66640  0.65070  Biso   1.000  O
  O32      1.0000 0.02350  0.74030  0.47240  Biso   1.000  O
  H6       1.0000 0.94380  0.71880  0.45620  Biso   1.000  H
