data_image0
_cell_length_a       5.1601
_cell_length_b       25.075
_cell_length_c       14.986
_cell_angle_alpha    90
_cell_angle_beta     92.61
_cell_angle_gamma    90

_symmetry_space_group_name_H-M    "P 1"
_symmetry_int_tables_number       1

loop_
  _symmetry_equiv_pos_as_xyz
  'x, y, z'

loop_
  _atom_site_label
  _atom_site_occupancy
  _atom_site_fract_x
  _atom_site_fract_y
  _atom_site_fract_z
  _atom_site_thermal_displace_type
  _atom_site_B_iso_or_equiv
  _atom_site_type_symbol
  Zn1      1.0000 0.35124  0.21944  0.69890  Biso   1.000  Zn
  Zn2      1.0000 0.75148  0.20978  0.87726  Biso   1.000  Zn
  Zn3      1.0000 0.84345  0.25596  0.57310  Biso   1.000  Zn
  Zn4      1.0000 0.80910  0.04202  0.58568  Biso   1.000  Zn
  Zn5      1.0000 0.15862  0.38402  0.75142  Biso   1.000  Zn
  Zn6      1.0000 0.41420  0.38427  0.75630  Biso   1.000  Zn
  P1       1.0000 0.32420  0.32527  0.57902  Biso   1.000  P
  P2       1.0000 0.85260  0.15391  0.69447  Biso   1.000  P
  P3       1.0000 0.26840  0.27980  0.87534  Biso   1.000  P
  P4       1.0000 0.31000  0.97525  0.61578  Biso   1.000  P
  O1       1.0000 0.13170  0.16014  0.66600  Biso   1.000  O
  O2       1.0000 0.70060  0.20523  0.66030  Biso   1.000  O
  O3       1.0000 0.39800  0.23136  0.82740  Biso   1.000  O
  O4       1.0000 0.19310  0.27648  0.62430  Biso   1.000  O
  O5       1.0000 0.97890  0.27056  0.88040  Biso   1.000  O
  O6       1.0000 0.19820  0.33018  0.48570  Biso   1.000  O
  O7       1.0000 0.83930  0.15308  0.79600  Biso   1.000  O
  O8       1.0000 0.40600  0.28296  0.96710  Biso   1.000  O
  O9       1.0000 0.61430  0.31531  0.57730  Biso   1.000  O
  O10      1.0000 0.60600  0.98265  0.62520  Biso   1.000  O
  O11      1.0000 0.17760  0.02901  0.59690  Biso   1.000  O
  O12      1.0000 0.72420  0.10522  0.65400  Biso   1.000  O
  O13      1.0000 0.25080  0.93562  0.53930  Biso   1.000  O
  O14      1.0000 0.32700  0.32947  0.82280  Biso   1.000  O
  O15      1.0000 0.27020  0.37565  0.63120  Biso   1.000  O
  O16      1.0000 0.21560  0.95177  0.70340  Biso   1.000  O
  O17      1.0000 0.77740  0.38650  0.75910  Biso   1.000  O
  Zn7      1.0000 0.14876  0.71944  0.80110  Biso   1.000  Zn
  Zn8      1.0000 0.74852  0.70978  0.62274  Biso   1.000  Zn
  Zn9      1.0000 0.65655  0.75596  0.92690  Biso   1.000  Zn
  Zn10     1.0000 0.69090  0.54202  0.91432  Biso   1.000  Zn
  Zn11     1.0000 0.34138  0.88402  0.74858  Biso   1.000  Zn
  Zn12     1.0000 0.08580  0.88427  0.74370  Biso   1.000  Zn
  P5       1.0000 0.17580  0.82527  0.92098  Biso   1.000  P
  P6       1.0000 0.64740  0.65391  0.80553  Biso   1.000  P
  P7       1.0000 0.23160  0.77980  0.62466  Biso   1.000  P
  P8       1.0000 0.19000  0.47525  0.88422  Biso   1.000  P
  O18      1.0000 0.36830  0.66014  0.83400  Biso   1.000  O
  O19      1.0000 0.79940  0.70523  0.83970  Biso   1.000  O
  O20      1.0000 0.10200  0.73136  0.67260  Biso   1.000  O
  O21      1.0000 0.30690  0.77648  0.87570  Biso   1.000  O
  O22      1.0000 0.52110  0.77056  0.61960  Biso   1.000  O
  O23      1.0000 0.30180  0.83018  0.01430  Biso   1.000  O
  O24      1.0000 0.66070  0.65308  0.70400  Biso   1.000  O
  O25      1.0000 0.09400  0.78296  0.53290  Biso   1.000  O
  O26      1.0000 0.88570  0.81531  0.92270  Biso   1.000  O
  O27      1.0000 0.89400  0.48265  0.87480  Biso   1.000  O
  O28      1.0000 0.32240  0.52901  0.90310  Biso   1.000  O
  O29      1.0000 0.77580  0.60522  0.84600  Biso   1.000  O
  O30      1.0000 0.24920  0.43562  0.96070  Biso   1.000  O
  O31      1.0000 0.17300  0.82947  0.67720  Biso   1.000  O
  O32      1.0000 0.22980  0.87565  0.86880  Biso   1.000  O
  O33      1.0000 0.28440  0.45177  0.79660  Biso   1.000  O
  O34      1.0000 0.72260  0.88650  0.74090  Biso   1.000  O
  Zn13     1.0000 0.64876  0.78056  0.30110  Biso   1.000  Zn
  Zn14     1.0000 0.24852  0.79022  0.12274  Biso   1.000  Zn
  Zn15     1.0000 0.15655  0.74404  0.42690  Biso   1.000  Zn
  Zn16     1.0000 0.19090  0.95798  0.41432  Biso   1.000  Zn
  Zn17     1.0000 0.84138  0.61598  0.24858  Biso   1.000  Zn
  Zn18     1.0000 0.58580  0.61573  0.24370  Biso   1.000  Zn
  P9       1.0000 0.67580  0.67473  0.42098  Biso   1.000  P
  P10      1.0000 0.14740  0.84609  0.30553  Biso   1.000  P
  P11      1.0000 0.73160  0.72020  0.12466  Biso   1.000  P
  P12      1.0000 0.69000  0.02475  0.38422  Biso   1.000  P
  O35      1.0000 0.86830  0.83986  0.33400  Biso   1.000  O
  O36      1.0000 0.29940  0.79477  0.33970  Biso   1.000  O
  O37      1.0000 0.60200  0.76864  0.17260  Biso   1.000  O
  O38      1.0000 0.80690  0.72352  0.37570  Biso   1.000  O
  O39      1.0000 0.02110  0.72944  0.11960  Biso   1.000  O
  O40      1.0000 0.80180  0.66982  0.51430  Biso   1.000  O
  O41      1.0000 0.16070  0.84692  0.20400  Biso   1.000  O
  O42      1.0000 0.59400  0.71704  0.03290  Biso   1.000  O
  O43      1.0000 0.38570  0.68469  0.42270  Biso   1.000  O
  O44      1.0000 0.39400  0.01735  0.37480  Biso   1.000  O
  O45      1.0000 0.82240  0.97099  0.40310  Biso   1.000  O
  O46      1.0000 0.27580  0.89478  0.34600  Biso   1.000  O
  O47      1.0000 0.74920  0.06438  0.46070  Biso   1.000  O
  O48      1.0000 0.67300  0.67053  0.17720  Biso   1.000  O
  O49      1.0000 0.72980  0.62435  0.36880  Biso   1.000  O
  O50      1.0000 0.78440  0.04823  0.29660  Biso   1.000  O
  O51      1.0000 0.22260  0.61350  0.24090  Biso   1.000  O
  Zn19     1.0000 0.85124  0.28056  0.19890  Biso   1.000  Zn
  Zn20     1.0000 0.25148  0.29022  0.37726  Biso   1.000  Zn
  Zn21     1.0000 0.34345  0.24404  0.07310  Biso   1.000  Zn
  Zn22     1.0000 0.30910  0.45798  0.08568  Biso   1.000  Zn
  Zn23     1.0000 0.65862  0.11598  0.25142  Biso   1.000  Zn
  Zn24     1.0000 0.91420  0.11573  0.25630  Biso   1.000  Zn
  P13      1.0000 0.82420  0.17473  0.07902  Biso   1.000  P
  P14      1.0000 0.35260  0.34609  0.19447  Biso   1.000  P
  P15      1.0000 0.76840  0.22020  0.37534  Biso   1.000  P
  P16      1.0000 0.81000  0.52475  0.11578  Biso   1.000  P
  O52      1.0000 0.63170  0.33986  0.16600  Biso   1.000  O
  O53      1.0000 0.20060  0.29477  0.16030  Biso   1.000  O
  O54      1.0000 0.89800  0.26864  0.32740  Biso   1.000  O
  O55      1.0000 0.69310  0.22352  0.12430  Biso   1.000  O
  O56      1.0000 0.47890  0.22944  0.38040  Biso   1.000  O
  O57      1.0000 0.69820  0.16982  0.98570  Biso   1.000  O
  O58      1.0000 0.33930  0.34692  0.29600  Biso   1.000  O
  O59      1.0000 0.90600  0.21704  0.46710  Biso   1.000  O
  O60      1.0000 0.11430  0.18469  0.07730  Biso   1.000  O
  O61      1.0000 0.10600  0.51735  0.12520  Biso   1.000  O
  O62      1.0000 0.67760  0.47099  0.09690  Biso   1.000  O
  O63      1.0000 0.22420  0.39478  0.15400  Biso   1.000  O
  O64      1.0000 0.75080  0.56438  0.03930  Biso   1.000  O
  O65      1.0000 0.82700  0.17053  0.32280  Biso   1.000  O
  O66      1.0000 0.77020  0.12435  0.13120  Biso   1.000  O
  O67      1.0000 0.71560  0.54823  0.20340  Biso   1.000  O
  O68      1.0000 0.27740  0.11350  0.25910  Biso   1.000  O
