data_image0
_cell_length_a       7.6458
_cell_length_b       13.5219
_cell_length_c       16.3845
_cell_angle_alpha    90
_cell_angle_beta     90
_cell_angle_gamma    90

_symmetry_space_group_name_H-M    "P 1"
_symmetry_int_tables_number       1

loop_
  _symmetry_equiv_pos_as_xyz
  'x, y, z'

loop_
  _atom_site_label
  _atom_site_occupancy
  _atom_site_fract_x
  _atom_site_fract_y
  _atom_site_fract_z
  _atom_site_thermal_displace_type
  _atom_site_B_iso_or_equiv
  _atom_site_type_symbol
  Cu1      1.0000 0.12656  0.78522  0.09884  Biso   1.000  Cu
  N1       1.0000 0.96030  0.78238  0.00533  Biso   1.000  N
  C1       1.0000 0.86890  0.78622  0.94969  Biso   1.000  C
  N2       1.0000 0.18110  0.92266  0.12754  Biso   1.000  N
  C2       1.0000 0.20550  0.00484  0.14329  Biso   1.000  C
  Cu2      1.0000 0.80189  0.64927  0.34101  Biso   1.000  Cu
  N3       1.0000 0.95380  0.68322  0.24806  Biso   1.000  N
  C3       1.0000 0.04570  0.70325  0.19483  Biso   1.000  C
  Cu3      1.0000 0.37344  0.21478  0.59884  Biso   1.000  Cu
  N4       1.0000 0.53970  0.21762  0.50533  Biso   1.000  N
  C4       1.0000 0.63110  0.21378  0.44969  Biso   1.000  C
  N5       1.0000 0.31890  0.07734  0.62754  Biso   1.000  N
  C5       1.0000 0.29450  0.99516  0.64329  Biso   1.000  C
  Cu4      1.0000 0.69811  0.35073  0.84101  Biso   1.000  Cu
  N6       1.0000 0.54620  0.31678  0.74806  Biso   1.000  N
  C6       1.0000 0.45430  0.29675  0.69483  Biso   1.000  C
  Cu5      1.0000 0.87344  0.28522  0.40116  Biso   1.000  Cu
  N7       1.0000 0.03970  0.28238  0.49467  Biso   1.000  N
  C7       1.0000 0.13110  0.28622  0.55031  Biso   1.000  C
  N8       1.0000 0.81890  0.42266  0.37246  Biso   1.000  N
  C8       1.0000 0.79450  0.50484  0.35671  Biso   1.000  C
  Cu6      1.0000 0.19811  0.14927  0.15899  Biso   1.000  Cu
  N9       1.0000 0.04620  0.18322  0.25194  Biso   1.000  N
  C9       1.0000 0.95430  0.20325  0.30517  Biso   1.000  C
  Cu7      1.0000 0.62656  0.71478  0.90116  Biso   1.000  Cu
  N10      1.0000 0.46030  0.71762  0.99467  Biso   1.000  N
  C10      1.0000 0.36890  0.71378  0.05031  Biso   1.000  C
  N11      1.0000 0.68110  0.57734  0.87246  Biso   1.000  N
  C11      1.0000 0.70550  0.49516  0.85671  Biso   1.000  C
  Cu8      1.0000 0.30189  0.85073  0.65899  Biso   1.000  Cu
  N12      1.0000 0.45380  0.81678  0.75194  Biso   1.000  N
  C12      1.0000 0.54570  0.79675  0.80517  Biso   1.000  C
  Cu9      1.0000 0.87344  0.21478  0.90116  Biso   1.000  Cu
  N13      1.0000 0.03970  0.21762  0.99467  Biso   1.000  N
  C13      1.0000 0.13110  0.21378  0.05031  Biso   1.000  C
  N14      1.0000 0.81890  0.07734  0.87246  Biso   1.000  N
  C14      1.0000 0.79450  0.99516  0.85671  Biso   1.000  C
  Cu10     1.0000 0.19811  0.35073  0.65899  Biso   1.000  Cu
  N15      1.0000 0.04620  0.31678  0.75194  Biso   1.000  N
  C15      1.0000 0.95430  0.29675  0.80517  Biso   1.000  C
  Cu11     1.0000 0.62656  0.78522  0.40116  Biso   1.000  Cu
  N16      1.0000 0.46030  0.78238  0.49467  Biso   1.000  N
  C16      1.0000 0.36890  0.78622  0.55031  Biso   1.000  C
  N17      1.0000 0.68110  0.92266  0.37246  Biso   1.000  N
  C17      1.0000 0.70550  0.00484  0.35671  Biso   1.000  C
  Cu12     1.0000 0.30189  0.64927  0.15899  Biso   1.000  Cu
  N18      1.0000 0.45380  0.68322  0.25194  Biso   1.000  N
  C18      1.0000 0.54570  0.70325  0.30517  Biso   1.000  C
  Cu13     1.0000 0.12656  0.71478  0.59884  Biso   1.000  Cu
  N19      1.0000 0.96030  0.71762  0.50533  Biso   1.000  N
  C19      1.0000 0.86890  0.71378  0.44969  Biso   1.000  C
  N20      1.0000 0.18110  0.57734  0.62754  Biso   1.000  N
  C20      1.0000 0.20550  0.49516  0.64329  Biso   1.000  C
  Cu14     1.0000 0.80189  0.85073  0.84101  Biso   1.000  Cu
  N21      1.0000 0.95380  0.81678  0.74806  Biso   1.000  N
  C21      1.0000 0.04570  0.79675  0.69483  Biso   1.000  C
  Cu15     1.0000 0.37344  0.28522  0.09884  Biso   1.000  Cu
  N22      1.0000 0.53970  0.28238  0.00533  Biso   1.000  N
  C22      1.0000 0.63110  0.28622  0.94969  Biso   1.000  C
  N23      1.0000 0.31890  0.42266  0.12754  Biso   1.000  N
  C23      1.0000 0.29450  0.50484  0.14329  Biso   1.000  C
  Cu16     1.0000 0.69811  0.14927  0.34101  Biso   1.000  Cu
  N24      1.0000 0.54620  0.18322  0.24806  Biso   1.000  N
  C24      1.0000 0.45430  0.20325  0.19483  Biso   1.000  C
