data_MICDEJ_clean
_audit_creation_date              2014-07-02
_audit_creation_method            'Materials Studio'
_symmetry_space_group_name_H-M    'P1'
_symmetry_Int_Tables_number       1
_symmetry_cell_setting            triclinic
loop_
_symmetry_equiv_pos_as_xyz
  x,y,z
_cell_length_a                    9.3796
_cell_length_b                    17.4571
_cell_length_c                    17.4571
_cell_angle_alpha                 103.5590
_cell_angle_beta                  102.8250
_cell_angle_gamma                 77.1749
loop_
_atom_site_label
_atom_site_type_symbol
_atom_site_fract_x
_atom_site_fract_y
_atom_site_fract_z
_atom_site_U_iso_or_equiv
_atom_site_adp_type
_atom_site_occupancy
Mn1    Mn    0.56100   0.68634   0.18047   0.01267  Uiso   1.00
Mn2    Mn    0.93900   0.18047   0.68634   0.01267  Uiso   1.00
Mn3    Mn    0.43900   0.31366   0.81953   0.01267  Uiso   1.00
Mn4    Mn    0.06100   0.81953   0.31366   0.01267  Uiso   1.00
Mn5    Mn    0.50000   0.50000   0.00000   0.01267  Uiso   1.00
Mn6    Mn    0.00000   0.00000   0.50000   0.01267  Uiso   1.00
H1     H     0.57380   0.62690   0.83830   0.01267  Uiso   1.00
H2     H     0.57330   0.84070   0.79150   0.01267  Uiso   1.00
H3     H     0.58250   0.81890   0.01650   0.01267  Uiso   1.00
H4     H     0.31610   0.93520   0.84940   0.01267  Uiso   1.00
H5     H     0.19900   0.03180   0.77560   0.01267  Uiso   1.00
H6     H     0.56010   0.13430   0.84190   0.01267  Uiso   1.00
H7     H     0.67940   0.03550   0.91410   0.01267  Uiso   1.00
H8     H     0.31560   0.79390   0.71810   0.01267  Uiso   1.00
H9     H     0.17580   0.84490   0.60850   0.01267  Uiso   1.00
H10    H     0.48490   0.72830   0.47910   0.01267  Uiso   1.00
H11    H     0.63040   0.68080   0.58960   0.01267  Uiso   1.00
H12    H     0.92620   0.83830   0.62690   0.01267  Uiso   1.00
H13    H     0.92670   0.79150   0.84070   0.01267  Uiso   1.00
H14    H     0.91750   0.01650   0.81890   0.01267  Uiso   1.00
H15    H     0.18390   0.84940   0.93520   0.01267  Uiso   1.00
H16    H     0.30100   0.77560   0.03180   0.01267  Uiso   1.00
H17    H     0.93990   0.84190   0.13430   0.01267  Uiso   1.00
H18    H     0.82060   0.91410   0.03550   0.01267  Uiso   1.00
H19    H     0.18440   0.71810   0.79390   0.01267  Uiso   1.00
H20    H     0.32420   0.60850   0.84490   0.01267  Uiso   1.00
H21    H     0.01510   0.47910   0.72830   0.01267  Uiso   1.00
H22    H     0.86960   0.58960   0.68080   0.01267  Uiso   1.00
H23    H     0.42620   0.37310   0.16170   0.01267  Uiso   1.00
H24    H     0.42670   0.15930   0.20850   0.01267  Uiso   1.00
H25    H     0.41750   0.18110   0.98350   0.01267  Uiso   1.00
H26    H     0.68390   0.06480   0.15060   0.01267  Uiso   1.00
H27    H     0.80100   0.96820   0.22440   0.01267  Uiso   1.00
H28    H     0.43990   0.86570   0.15810   0.01267  Uiso   1.00
H29    H     0.32060   0.96450   0.08590   0.01267  Uiso   1.00
H30    H     0.68440   0.20610   0.28190   0.01267  Uiso   1.00
H31    H     0.82420   0.15510   0.39150   0.01267  Uiso   1.00
H32    H     0.51510   0.27170   0.52090   0.01267  Uiso   1.00
H33    H     0.36960   0.31920   0.41040   0.01267  Uiso   1.00
H34    H     0.07380   0.16170   0.37310   0.01267  Uiso   1.00
H35    H     0.07330   0.20850   0.15930   0.01267  Uiso   1.00
H36    H     0.08250   0.98350   0.18110   0.01267  Uiso   1.00
H37    H     0.81610   0.15060   0.06480   0.01267  Uiso   1.00
H38    H     0.69900   0.22440   0.96820   0.01267  Uiso   1.00
H39    H     0.06010   0.15810   0.86570   0.01267  Uiso   1.00
H40    H     0.17940   0.08590   0.96450   0.01267  Uiso   1.00
H41    H     0.81560   0.28190   0.20610   0.01267  Uiso   1.00
H42    H     0.67580   0.39150   0.15510   0.01267  Uiso   1.00
H43    H     0.98490   0.52090   0.27170   0.01267  Uiso   1.00
H44    H     0.13040   0.41040   0.31920   0.01267  Uiso   1.00
C1     C     0.57970   0.66451   0.99585   0.01267  Uiso   1.00
C2     C     0.58010   0.71528   0.93640   0.01267  Uiso   1.00
C3     C     0.57470   0.68134   0.85614   0.01267  Uiso   1.00
C4     C     0.57060   0.72939   0.80287   0.01267  Uiso   1.00
C5     C     0.57300   0.80930   0.82766   0.01267  Uiso   1.00
C6     C     0.57490   0.84250   0.90786   0.01267  Uiso   1.00
C7     C     0.57970   0.79599   0.96259   0.01267  Uiso   1.00
C8     C     0.50740   0.97693   0.88869   0.01267  Uiso   1.00
C9     C     0.36500   0.97544   0.84762   0.01267  Uiso   1.00
C10    C     0.29520   0.03311   0.80399   0.01267  Uiso   1.00
C11    C     0.36760   0.09346   0.80206   0.01267  Uiso   1.00
C12    C     0.51090   0.09401   0.84333   0.01267  Uiso   1.00
C13    C     0.58230   0.03535   0.88669   0.01267  Uiso   1.00
C14    C     0.28760   0.15770   0.75666   0.01267  Uiso   1.00
C15    C     0.48390   0.73087   0.66327   0.01267  Uiso   1.00
C16    C     0.34980   0.78045   0.66981   0.01267  Uiso   1.00
C17    C     0.26580   0.81030   0.60388   0.01267  Uiso   1.00
C18    C     0.31380   0.78949   0.53167   0.01267  Uiso   1.00
C19    C     0.45010   0.74156   0.52732   0.01267  Uiso   1.00
C20    C     0.53720   0.71239   0.59317   0.01267  Uiso   1.00
C21    C     0.21890   0.81453   0.45759   0.01267  Uiso   1.00
C22    C     0.92030   0.99585   0.66451   0.01267  Uiso   1.00
C23    C     0.91990   0.93640   0.71528   0.01267  Uiso   1.00
C24    C     0.92530   0.85614   0.68134   0.01267  Uiso   1.00
C25    C     0.92940   0.80287   0.72939   0.01267  Uiso   1.00
C26    C     0.92700   0.82766   0.80930   0.01267  Uiso   1.00
C27    C     0.92510   0.90786   0.84250   0.01267  Uiso   1.00
C28    C     0.92030   0.96259   0.79599   0.01267  Uiso   1.00
C29    C     0.99260   0.88869   0.97693   0.01267  Uiso   1.00
C30    C     0.13500   0.84762   0.97544   0.01267  Uiso   1.00
C31    C     0.20480   0.80399   0.03311   0.01267  Uiso   1.00
C32    C     0.13240   0.80206   0.09346   0.01267  Uiso   1.00
C33    C     0.98910   0.84333   0.09401   0.01267  Uiso   1.00
C34    C     0.91770   0.88669   0.03535   0.01267  Uiso   1.00
C35    C     0.21240   0.75666   0.15770   0.01267  Uiso   1.00
C36    C     0.01610   0.66327   0.73087   0.01267  Uiso   1.00
C37    C     0.15020   0.66981   0.78045   0.01267  Uiso   1.00
C38    C     0.23420   0.60388   0.81030   0.01267  Uiso   1.00
C39    C     0.18620   0.53167   0.78949   0.01267  Uiso   1.00
C40    C     0.04990   0.52732   0.74156   0.01267  Uiso   1.00
C41    C     0.96280   0.59317   0.71239   0.01267  Uiso   1.00
C42    C     0.28110   0.45759   0.81453   0.01267  Uiso   1.00
C43    C     0.42030   0.33549   0.00415   0.01267  Uiso   1.00
C44    C     0.41990   0.28472   0.06360   0.01267  Uiso   1.00
C45    C     0.42530   0.31866   0.14386   0.01267  Uiso   1.00
C46    C     0.42940   0.27061   0.19713   0.01267  Uiso   1.00
C47    C     0.42700   0.19070   0.17234   0.01267  Uiso   1.00
C48    C     0.42510   0.15750   0.09214   0.01267  Uiso   1.00
C49    C     0.42030   0.20401   0.03741   0.01267  Uiso   1.00
C50    C     0.49260   0.02307   0.11131   0.01267  Uiso   1.00
C51    C     0.63500   0.02456   0.15238   0.01267  Uiso   1.00
C52    C     0.70480   0.96689   0.19601   0.01267  Uiso   1.00
C53    C     0.63240   0.90654   0.19794   0.01267  Uiso   1.00
C54    C     0.48910   0.90599   0.15667   0.01267  Uiso   1.00
C55    C     0.41770   0.96465   0.11331   0.01267  Uiso   1.00
C56    C     0.71240   0.84230   0.24334   0.01267  Uiso   1.00
C57    C     0.51610   0.26913   0.33673   0.01267  Uiso   1.00
C58    C     0.65020   0.21955   0.33019   0.01267  Uiso   1.00
C59    C     0.73420   0.18970   0.39612   0.01267  Uiso   1.00
C60    C     0.68620   0.21051   0.46833   0.01267  Uiso   1.00
C61    C     0.54990   0.25844   0.47268   0.01267  Uiso   1.00
C62    C     0.46280   0.28761   0.40683   0.01267  Uiso   1.00
C63    C     0.78110   0.18547   0.54241   0.01267  Uiso   1.00
C64    C     0.07970   0.00415   0.33549   0.01267  Uiso   1.00
C65    C     0.08010   0.06360   0.28472   0.01267  Uiso   1.00
C66    C     0.07470   0.14386   0.31866   0.01267  Uiso   1.00
C67    C     0.07060   0.19713   0.27061   0.01267  Uiso   1.00
C68    C     0.07300   0.17234   0.19070   0.01267  Uiso   1.00
C69    C     0.07490   0.09214   0.15750   0.01267  Uiso   1.00
C70    C     0.07970   0.03741   0.20401   0.01267  Uiso   1.00
C71    C     0.00740   0.11131   0.02307   0.01267  Uiso   1.00
C72    C     0.86500   0.15238   0.02456   0.01267  Uiso   1.00
C73    C     0.79520   0.19601   0.96689   0.01267  Uiso   1.00
C74    C     0.86760   0.19794   0.90654   0.01267  Uiso   1.00
C75    C     0.01090   0.15667   0.90599   0.01267  Uiso   1.00
C76    C     0.08230   0.11331   0.96465   0.01267  Uiso   1.00
C77    C     0.78760   0.24334   0.84230   0.01267  Uiso   1.00
C78    C     0.98390   0.33673   0.26913   0.01267  Uiso   1.00
C79    C     0.84980   0.33019   0.21955   0.01267  Uiso   1.00
C80    C     0.76580   0.39612   0.18970   0.01267  Uiso   1.00
C81    C     0.81380   0.46833   0.21051   0.01267  Uiso   1.00
C82    C     0.95010   0.47268   0.25844   0.01267  Uiso   1.00
C83    C     0.03720   0.40683   0.28761   0.01267  Uiso   1.00
C84    C     0.71890   0.54241   0.18547   0.01267  Uiso   1.00
O1     O     0.56890   0.59354   0.96830   0.01267  Uiso   1.00
O2     O     0.59130   0.69869   0.06763   0.01267  Uiso   1.00
O3     O     0.57940   0.92248   0.93764   0.01267  Uiso   1.00
O4     O     0.16170   0.14998   0.71756   0.01267  Uiso   1.00
O5     O     0.34990   0.21346   0.75752   0.01267  Uiso   1.00
O6     O     0.57070   0.69258   0.72346   0.01267  Uiso   1.00
O7     O     0.09440   0.86067   0.45981   0.01267  Uiso   1.00
O8     O     0.26370   0.78483   0.39233   0.01267  Uiso   1.00
O9     O     0.93110   0.96830   0.59354   0.01267  Uiso   1.00
O10    O     0.90870   0.06763   0.69869   0.01267  Uiso   1.00
O11    O     0.92060   0.93764   0.92248   0.01267  Uiso   1.00
O12    O     0.33830   0.71756   0.14998   0.01267  Uiso   1.00
O13    O     0.15010   0.75752   0.21346   0.01267  Uiso   1.00
O14    O     0.92930   0.72346   0.69258   0.01267  Uiso   1.00
O15    O     0.40560   0.45981   0.86067   0.01267  Uiso   1.00
O16    O     0.23630   0.39233   0.78483   0.01267  Uiso   1.00
O17    O     0.43110   0.40646   0.03170   0.01267  Uiso   1.00
O18    O     0.40870   0.30131   0.93237   0.01267  Uiso   1.00
O19    O     0.42060   0.07752   0.06236   0.01267  Uiso   1.00
O20    O     0.83830   0.85002   0.28244   0.01267  Uiso   1.00
O21    O     0.65010   0.78654   0.24248   0.01267  Uiso   1.00
O22    O     0.42930   0.30742   0.27654   0.01267  Uiso   1.00
O23    O     0.90560   0.13933   0.54019   0.01267  Uiso   1.00
O24    O     0.73630   0.21517   0.60767   0.01267  Uiso   1.00
O25    O     0.06890   0.03170   0.40646   0.01267  Uiso   1.00
O26    O     0.09130   0.93237   0.30131   0.01267  Uiso   1.00
O27    O     0.07940   0.06236   0.07752   0.01267  Uiso   1.00
O28    O     0.66170   0.28244   0.85002   0.01267  Uiso   1.00
O29    O     0.84990   0.24248   0.78654   0.01267  Uiso   1.00
O30    O     0.07070   0.27654   0.30742   0.01267  Uiso   1.00
O31    O     0.59440   0.54019   0.13933   0.01267  Uiso   1.00
O32    O     0.76370   0.60767   0.21517   0.01267  Uiso   1.00
