data_MICNUI_clean
_audit_creation_date              2014-07-02
_audit_creation_method            'Materials Studio'
_symmetry_space_group_name_H-M    'P1'
_symmetry_Int_Tables_number       1
_symmetry_cell_setting            triclinic
loop_
_symmetry_equiv_pos_as_xyz
  x,y,z
_cell_length_a                    13.0366
_cell_length_b                    13.0366
_cell_length_c                    16.2400
_cell_angle_alpha                 109.5390
_cell_angle_beta                  109.5390
_cell_angle_gamma                 95.4748
loop_
_atom_site_label
_atom_site_type_symbol
_atom_site_fract_x
_atom_site_fract_y
_atom_site_fract_z
_atom_site_U_iso_or_equiv
_atom_site_adp_type
_atom_site_occupancy
Cd1    Cd    0.62115   0.37885   0.25000   0.01267  Uiso   1.00
Cd2    Cd    0.37885   0.62115   0.75000   0.01267  Uiso   1.00
H1     H     0.43140   0.44440   0.32790   0.01267  Uiso   1.00
H2     H     0.73010   0.63210   0.41660   0.01267  Uiso   1.00
H3     H     0.37940   0.58760   0.42340   0.01267  Uiso   1.00
H4     H     0.68440   0.78200   0.51230   0.01267  Uiso   1.00
H5     H     0.54450   0.21730   0.02900   0.01267  Uiso   1.00
H6     H     0.84300   0.31280   0.22280   0.01267  Uiso   1.00
H7     H     0.61260   0.12400   0.92000   0.01267  Uiso   1.00
H8     H     0.91860   0.22260   0.12200   0.01267  Uiso   1.00
H9     H     0.75550   0.04250   0.87780   0.01267  Uiso   1.00
H10    H     0.84110   0.15430   0.90850   0.01267  Uiso   1.00
H11    H     0.41540   0.76840   0.53430   0.01267  Uiso   1.00
H12    H     0.54410   0.81590   0.60900   0.01267  Uiso   1.00
H13    H     0.55560   0.56860   0.17210   0.01267  Uiso   1.00
H14    H     0.36790   0.26990   0.08340   0.01267  Uiso   1.00
H15    H     0.41240   0.62060   0.07660   0.01267  Uiso   1.00
H16    H     0.21800   0.31560   0.98770   0.01267  Uiso   1.00
H17    H     0.78270   0.45550   0.47100   0.01267  Uiso   1.00
H18    H     0.68720   0.15700   0.27720   0.01267  Uiso   1.00
H19    H     0.87600   0.38740   0.58000   0.01267  Uiso   1.00
H20    H     0.77740   0.08140   0.37800   0.01267  Uiso   1.00
H21    H     0.95750   0.24450   0.62220   0.01267  Uiso   1.00
H22    H     0.84570   0.15890   0.59150   0.01267  Uiso   1.00
H23    H     0.23160   0.58460   0.96570   0.01267  Uiso   1.00
H24    H     0.18410   0.45590   0.89100   0.01267  Uiso   1.00
H25    H     0.56860   0.55560   0.67210   0.01267  Uiso   1.00
H26    H     0.26990   0.36790   0.58340   0.01267  Uiso   1.00
H27    H     0.62060   0.41240   0.57660   0.01267  Uiso   1.00
H28    H     0.31560   0.21800   0.48770   0.01267  Uiso   1.00
H29    H     0.45550   0.78270   0.97100   0.01267  Uiso   1.00
H30    H     0.15700   0.68720   0.77720   0.01267  Uiso   1.00
H31    H     0.38740   0.87600   0.08000   0.01267  Uiso   1.00
H32    H     0.08140   0.77740   0.87800   0.01267  Uiso   1.00
H33    H     0.24450   0.95750   0.12220   0.01267  Uiso   1.00
H34    H     0.15890   0.84570   0.09150   0.01267  Uiso   1.00
H35    H     0.58460   0.23160   0.46570   0.01267  Uiso   1.00
H36    H     0.45590   0.18410   0.39100   0.01267  Uiso   1.00
H37    H     0.44440   0.43140   0.82790   0.01267  Uiso   1.00
H38    H     0.63210   0.73010   0.91660   0.01267  Uiso   1.00
H39    H     0.58760   0.37940   0.92340   0.01267  Uiso   1.00
H40    H     0.78200   0.68440   0.01230   0.01267  Uiso   1.00
H41    H     0.21730   0.54450   0.52900   0.01267  Uiso   1.00
H42    H     0.31280   0.84300   0.72280   0.01267  Uiso   1.00
H43    H     0.12400   0.61260   0.42000   0.01267  Uiso   1.00
H44    H     0.22260   0.91860   0.62200   0.01267  Uiso   1.00
H45    H     0.04250   0.75550   0.37780   0.01267  Uiso   1.00
H46    H     0.15430   0.84110   0.40850   0.01267  Uiso   1.00
H47    H     0.76840   0.41540   0.03430   0.01267  Uiso   1.00
H48    H     0.81590   0.54410   0.10900   0.01267  Uiso   1.00
C1     C     0.62284   0.22014   0.04733   0.01267  Uiso   1.00
C2     C     0.79791   0.27511   0.16365   0.01267  Uiso   1.00
C3     C     0.66100   0.16280   0.97976   0.01267  Uiso   1.00
C4     C     0.84262   0.21970   0.10023   0.01267  Uiso   1.00
C5     C     0.77336   0.16192   0.00538   0.01267  Uiso   1.00
C6     C     0.81521   0.10067   0.93027   0.01267  Uiso   1.00
C7     C     0.91044   0.04954   0.96633   0.01267  Uiso   1.00
C8     C     0.89203   0.94637   0.97252   0.01267  Uiso   1.00
C9     C     0.97860   0.89836   0.00426   0.01267  Uiso   1.00
C10    C     0.48440   0.51400   0.36650   0.01267  Uiso   1.00
C11    C     0.65730   0.62250   0.41740   0.01267  Uiso   1.00
C12    C     0.45200   0.59960   0.42280   0.01267  Uiso   1.00
C13    C     0.63040   0.71300   0.47500   0.01267  Uiso   1.00
C14    C     0.52619   0.70227   0.47782   0.01267  Uiso   1.00
C15    C     0.49484   0.79722   0.54211   0.01267  Uiso   1.00
C16    C     0.49953   0.90123   0.52006   0.01267  Uiso   1.00
C17    C     0.41575   0.90749   0.44398   0.01267  Uiso   1.00
C18    C     0.41484   0.00292   0.42453   0.01267  Uiso   1.00
C19    C     0.77986   0.37716   0.45267   0.01267  Uiso   1.00
C20    C     0.72489   0.20209   0.33635   0.01267  Uiso   1.00
C21    C     0.83720   0.33900   0.52024   0.01267  Uiso   1.00
C22    C     0.78030   0.15738   0.39977   0.01267  Uiso   1.00
C23    C     0.83808   0.22664   0.49462   0.01267  Uiso   1.00
C24    C     0.89933   0.18479   0.56973   0.01267  Uiso   1.00
C25    C     0.95046   0.08956   0.53367   0.01267  Uiso   1.00
C26    C     0.05363   0.10797   0.52748   0.01267  Uiso   1.00
C27    C     0.10164   0.02140   0.49574   0.01267  Uiso   1.00
C28    C     0.48600   0.51560   0.13350   0.01267  Uiso   1.00
C29    C     0.37750   0.34270   0.08260   0.01267  Uiso   1.00
C30    C     0.40040   0.54800   0.07720   0.01267  Uiso   1.00
C31    C     0.28700   0.36960   0.02500   0.01267  Uiso   1.00
C32    C     0.29773   0.47381   0.02218   0.01267  Uiso   1.00
C33    C     0.20278   0.50516   0.95789   0.01267  Uiso   1.00
C34    C     0.09877   0.50047   0.97994   0.01267  Uiso   1.00
C35    C     0.09251   0.58425   0.05602   0.01267  Uiso   1.00
C36    C     0.99708   0.58516   0.07547   0.01267  Uiso   1.00
C37    C     0.37716   0.77986   0.95267   0.01267  Uiso   1.00
C38    C     0.20209   0.72489   0.83635   0.01267  Uiso   1.00
C39    C     0.33900   0.83720   0.02024   0.01267  Uiso   1.00
C40    C     0.15738   0.78030   0.89977   0.01267  Uiso   1.00
C41    C     0.22664   0.83808   0.99462   0.01267  Uiso   1.00
C42    C     0.18479   0.89933   0.06973   0.01267  Uiso   1.00
C43    C     0.08956   0.95046   0.03367   0.01267  Uiso   1.00
C44    C     0.10797   0.05363   0.02748   0.01267  Uiso   1.00
C45    C     0.02140   0.10164   0.99574   0.01267  Uiso   1.00
C46    C     0.51560   0.48600   0.63350   0.01267  Uiso   1.00
C47    C     0.34270   0.37750   0.58260   0.01267  Uiso   1.00
C48    C     0.54800   0.40040   0.57720   0.01267  Uiso   1.00
C49    C     0.36960   0.28700   0.52500   0.01267  Uiso   1.00
C50    C     0.47381   0.29773   0.52218   0.01267  Uiso   1.00
C51    C     0.50516   0.20278   0.45789   0.01267  Uiso   1.00
C52    C     0.50047   0.09877   0.47994   0.01267  Uiso   1.00
C53    C     0.58425   0.09251   0.55602   0.01267  Uiso   1.00
C54    C     0.58516   0.99708   0.57547   0.01267  Uiso   1.00
C55    C     0.22014   0.62284   0.54733   0.01267  Uiso   1.00
C56    C     0.27511   0.79791   0.66365   0.01267  Uiso   1.00
C57    C     0.16280   0.66100   0.47976   0.01267  Uiso   1.00
C58    C     0.21970   0.84262   0.60023   0.01267  Uiso   1.00
C59    C     0.16192   0.77336   0.50538   0.01267  Uiso   1.00
C60    C     0.10067   0.81521   0.43027   0.01267  Uiso   1.00
C61    C     0.04954   0.91044   0.46633   0.01267  Uiso   1.00
C62    C     0.94637   0.89203   0.47252   0.01267  Uiso   1.00
C63    C     0.89836   0.97860   0.50426   0.01267  Uiso   1.00
C64    C     0.51400   0.48440   0.86650   0.01267  Uiso   1.00
C65    C     0.62250   0.65730   0.91740   0.01267  Uiso   1.00
C66    C     0.59960   0.45200   0.92280   0.01267  Uiso   1.00
C67    C     0.71300   0.63040   0.97500   0.01267  Uiso   1.00
C68    C     0.70227   0.52619   0.97782   0.01267  Uiso   1.00
C69    C     0.79722   0.49484   0.04211   0.01267  Uiso   1.00
C70    C     0.90123   0.49953   0.02006   0.01267  Uiso   1.00
C71    C     0.90749   0.41575   0.94398   0.01267  Uiso   1.00
C72    C     0.00292   0.41484   0.92453   0.01267  Uiso   1.00
N1     N     0.68972   0.27696   0.13901   0.01267  Uiso   1.00
N2     N     0.58616   0.52406   0.36378   0.01267  Uiso   1.00
N3     N     0.72304   0.31028   0.36099   0.01267  Uiso   1.00
N4     N     0.47594   0.41384   0.13622   0.01267  Uiso   1.00
N5     N     0.31028   0.72304   0.86099   0.01267  Uiso   1.00
N6     N     0.41384   0.47594   0.63622   0.01267  Uiso   1.00
N7     N     0.27696   0.68972   0.63901   0.01267  Uiso   1.00
N8     N     0.52406   0.58616   0.86378   0.01267  Uiso   1.00
F1     F     0.78621   0.89091   0.94602   0.01267  Uiso   1.00
F2     F     0.95403   0.79687   0.00722   0.01267  Uiso   1.00
F3     F     0.33061   0.81667   0.38616   0.01267  Uiso   1.00
F4     F     0.32894   0.00142   0.34966   0.01267  Uiso   1.00
F5     F     0.10909   0.21379   0.55398   0.01267  Uiso   1.00
F6     F     0.20313   0.04597   0.49278   0.01267  Uiso   1.00
F7     F     0.18333   0.66939   0.11384   0.01267  Uiso   1.00
F8     F     0.99858   0.67106   0.15034   0.01267  Uiso   1.00
F9     F     0.21379   0.10909   0.05398   0.01267  Uiso   1.00
F10    F     0.04597   0.20313   0.99278   0.01267  Uiso   1.00
F11    F     0.66939   0.18333   0.61384   0.01267  Uiso   1.00
F12    F     0.67106   0.99858   0.65034   0.01267  Uiso   1.00
F13    F     0.89091   0.78621   0.44602   0.01267  Uiso   1.00
F14    F     0.79687   0.95403   0.50722   0.01267  Uiso   1.00
F15    F     0.81667   0.33061   0.88616   0.01267  Uiso   1.00
F16    F     0.00142   0.32894   0.84966   0.01267  Uiso   1.00
