data_MICPEU_clean
_audit_creation_date              2014-07-02
_audit_creation_method            'Materials Studio'
_symmetry_space_group_name_H-M    'P1'
_symmetry_Int_Tables_number       1
_symmetry_cell_setting            triclinic
loop_
_symmetry_equiv_pos_as_xyz
  x,y,z
_cell_length_a                    12.9299
_cell_length_b                    13.1800
_cell_length_c                    16.5203
_cell_angle_alpha                 111.3610
_cell_angle_beta                  108.2780
_cell_angle_gamma                 93.7780
loop_
_atom_site_label
_atom_site_type_symbol
_atom_site_fract_x
_atom_site_fract_y
_atom_site_fract_z
_atom_site_U_iso_or_equiv
_atom_site_adp_type
_atom_site_occupancy
Cd1    Cd    0.38266   0.62479   0.25413   0.01267  Uiso   1.00
Cd2    Cd    0.61734   0.37521   0.74587   0.01267  Uiso   1.00
H1     H     0.45680   0.79910   0.47380   0.01267  Uiso   1.00
H2     H     0.16150   0.67440   0.29110   0.01267  Uiso   1.00
H3     H     0.39160   0.89510   0.58400   0.01267  Uiso   1.00
H4     H     0.08230   0.76260   0.39510   0.01267  Uiso   1.00
H5     H     0.15190   0.84920   0.59620   0.01267  Uiso   1.00
H6     H     0.23710   0.95910   0.62780   0.01267  Uiso   1.00
H7     H     0.30760   0.84400   0.22960   0.01267  Uiso   1.00
H8     H     0.21180   0.53870   0.04040   0.01267  Uiso   1.00
H9     H     0.21540   0.90980   0.12590   0.01267  Uiso   1.00
H10    H     0.11530   0.60210   0.93270   0.01267  Uiso   1.00
H11    H     0.14270   0.81530   0.91150   0.01267  Uiso   1.00
H12    H     0.03740   0.74160   0.89230   0.01267  Uiso   1.00
H13    H     0.29730   0.36410   0.12010   0.01267  Uiso   1.00
H14    H     0.54410   0.56170   0.13730   0.01267  Uiso   1.00
H15    H     0.35280   0.21250   0.02750   0.01267  Uiso   1.00
H16    H     0.59780   0.42020   0.04220   0.01267  Uiso   1.00
H17    H     0.58670   0.22300   0.96630   0.01267  Uiso   1.00
H18    H     0.46930   0.18160   0.89790   0.01267  Uiso   1.00
H19    H     0.46300   0.44500   0.33100   0.01267  Uiso   1.00
H20    H     0.62760   0.74510   0.41330   0.01267  Uiso   1.00
H21    H     0.59800   0.41200   0.44100   0.01267  Uiso   1.00
H22    H     0.77600   0.70840   0.51730   0.01267  Uiso   1.00
H23    H     0.82560   0.58750   0.61500   0.01267  Uiso   1.00
H24    H     0.77780   0.46300   0.55900   0.01267  Uiso   1.00
H25    H     0.54320   0.20090   0.52620   0.01267  Uiso   1.00
H26    H     0.83850   0.32560   0.70890   0.01267  Uiso   1.00
H27    H     0.60840   0.10490   0.41600   0.01267  Uiso   1.00
H28    H     0.91770   0.23740   0.60490   0.01267  Uiso   1.00
H29    H     0.84810   0.15080   0.40380   0.01267  Uiso   1.00
H30    H     0.76290   0.04090   0.37220   0.01267  Uiso   1.00
H31    H     0.69240   0.15600   0.77040   0.01267  Uiso   1.00
H32    H     0.78820   0.46130   0.95960   0.01267  Uiso   1.00
H33    H     0.78460   0.09020   0.87410   0.01267  Uiso   1.00
H34    H     0.88470   0.39790   0.06730   0.01267  Uiso   1.00
H35    H     0.85730   0.18470   0.08850   0.01267  Uiso   1.00
H36    H     0.96260   0.25840   0.10770   0.01267  Uiso   1.00
H37    H     0.70270   0.63590   0.87990   0.01267  Uiso   1.00
H38    H     0.45590   0.43830   0.86270   0.01267  Uiso   1.00
H39    H     0.64720   0.78750   0.97250   0.01267  Uiso   1.00
H40    H     0.40220   0.57980   0.95780   0.01267  Uiso   1.00
H41    H     0.41330   0.77700   0.03370   0.01267  Uiso   1.00
H42    H     0.53070   0.81840   0.10210   0.01267  Uiso   1.00
H43    H     0.53700   0.55500   0.66900   0.01267  Uiso   1.00
H44    H     0.37240   0.25490   0.58670   0.01267  Uiso   1.00
H45    H     0.40200   0.58800   0.55900   0.01267  Uiso   1.00
H46    H     0.22400   0.29160   0.48270   0.01267  Uiso   1.00
H47    H     0.17440   0.41250   0.38500   0.01267  Uiso   1.00
H48    H     0.22220   0.53700   0.44100   0.01267  Uiso   1.00
C1     C     0.38078   0.78911   0.45778   0.01267  Uiso   1.00
C2     C     0.20489   0.71480   0.35010   0.01267  Uiso   1.00
C3     C     0.34177   0.84693   0.52623   0.01267  Uiso   1.00
C4     C     0.15934   0.76950   0.41451   0.01267  Uiso   1.00
C5     C     0.22802   0.83796   0.50519   0.01267  Uiso   1.00
C6     C     0.18239   0.90227   0.57872   0.01267  Uiso   1.00
C7     C     0.08839   0.95271   0.53954   0.01267  Uiso   1.00
C8     C     0.10799   0.05390   0.53292   0.01267  Uiso   1.00
C9     C     0.02242   0.09972   0.49549   0.01267  Uiso   1.00
C10    C     0.26966   0.79641   0.16945   0.01267  Uiso   1.00
C11    C     0.21419   0.61813   0.05813   0.01267  Uiso   1.00
C12    C     0.21249   0.83737   0.10648   0.01267  Uiso   1.00
C13    C     0.15518   0.65305   0.99119   0.01267  Uiso   1.00
C14    C     0.15451   0.76542   0.01444   0.01267  Uiso   1.00
C15    C     0.09517   0.80239   0.93842   0.01267  Uiso   1.00
C16    C     0.04745   0.90472   0.97130   0.01267  Uiso   1.00
C17    C     0.94484   0.89765   0.98065   0.01267  Uiso   1.00
C18    C     0.89932   0.99009   0.00846   0.01267  Uiso   1.00
C19    C     0.36050   0.37109   0.10279   0.01267  Uiso   1.00
C20    C     0.50453   0.48990   0.11316   0.01267  Uiso   1.00
C21    C     0.38946   0.28047   0.04657   0.01267  Uiso   1.00
C22    C     0.53684   0.40353   0.05636   0.01267  Uiso   1.00
C23    C     0.48006   0.29526   0.02218   0.01267  Uiso   1.00
C24    C     0.51395   0.19872   0.95897   0.01267  Uiso   1.00
C25    C     0.50585   0.09610   0.97967   0.01267  Uiso   1.00
C26    C     0.58467   0.08887   0.05507   0.01267  Uiso   1.00
C27    C     0.57980   0.99557   0.07498   0.01267  Uiso   1.00
C28    C     0.52985   0.49920   0.36970   0.01267  Uiso   1.00
C29    C     0.62716   0.67265   0.41875   0.01267  Uiso   1.00
C30    C     0.61499   0.47392   0.42920   0.01267  Uiso   1.00
C31    C     0.71564   0.65387   0.48093   0.01267  Uiso   1.00
C32    C     0.71008   0.55233   0.48726   0.01267  Uiso   1.00
C33    C     0.80503   0.52859   0.55521   0.01267  Uiso   1.00
C34    C     0.90519   0.51512   0.52648   0.01267  Uiso   1.00
C35    C     0.90658   0.41963   0.45556   0.01267  Uiso   1.00
C36    C     0.99777   0.40418   0.42945   0.01267  Uiso   1.00
C37    C     0.61922   0.21089   0.54222   0.01267  Uiso   1.00
C38    C     0.79511   0.28520   0.64990   0.01267  Uiso   1.00
C39    C     0.65823   0.15307   0.47377   0.01267  Uiso   1.00
C40    C     0.84066   0.23050   0.58549   0.01267  Uiso   1.00
C41    C     0.77198   0.16204   0.49481   0.01267  Uiso   1.00
C42    C     0.81761   0.09773   0.42128   0.01267  Uiso   1.00
C43    C     0.91161   0.04729   0.46046   0.01267  Uiso   1.00
C44    C     0.89201   0.94610   0.46708   0.01267  Uiso   1.00
C45    C     0.97758   0.90028   0.50451   0.01267  Uiso   1.00
C46    C     0.73034   0.20359   0.83055   0.01267  Uiso   1.00
C47    C     0.78581   0.38187   0.94187   0.01267  Uiso   1.00
C48    C     0.78751   0.16263   0.89352   0.01267  Uiso   1.00
C49    C     0.84482   0.34695   0.00881   0.01267  Uiso   1.00
C50    C     0.84549   0.23458   0.98556   0.01267  Uiso   1.00
C51    C     0.90483   0.19761   0.06158   0.01267  Uiso   1.00
C52    C     0.95255   0.09528   0.02870   0.01267  Uiso   1.00
C53    C     0.05516   0.10235   0.01935   0.01267  Uiso   1.00
C54    C     0.10068   0.00991   0.99154   0.01267  Uiso   1.00
C55    C     0.63950   0.62891   0.89721   0.01267  Uiso   1.00
C56    C     0.49547   0.51010   0.88684   0.01267  Uiso   1.00
C57    C     0.61054   0.71953   0.95343   0.01267  Uiso   1.00
C58    C     0.46316   0.59647   0.94364   0.01267  Uiso   1.00
C59    C     0.51994   0.70474   0.97782   0.01267  Uiso   1.00
C60    C     0.48605   0.80128   0.04103   0.01267  Uiso   1.00
C61    C     0.49415   0.90390   0.02033   0.01267  Uiso   1.00
C62    C     0.41533   0.91113   0.94493   0.01267  Uiso   1.00
C63    C     0.42020   0.00443   0.92502   0.01267  Uiso   1.00
C64    C     0.47015   0.50080   0.63030   0.01267  Uiso   1.00
C65    C     0.37284   0.32735   0.58125   0.01267  Uiso   1.00
C66    C     0.38501   0.52608   0.57080   0.01267  Uiso   1.00
C67    C     0.28436   0.34613   0.51907   0.01267  Uiso   1.00
C68    C     0.28992   0.44767   0.51274   0.01267  Uiso   1.00
C69    C     0.19497   0.47141   0.44479   0.01267  Uiso   1.00
C70    C     0.09481   0.48488   0.47352   0.01267  Uiso   1.00
C71    C     0.09342   0.58037   0.54444   0.01267  Uiso   1.00
C72    C     0.00223   0.59582   0.57055   0.01267  Uiso   1.00
N1     N     0.31449   0.72324   0.36994   0.01267  Uiso   1.00
N2     N     0.27206   0.68812   0.14678   0.01267  Uiso   1.00
N3     N     0.41655   0.47557   0.13769   0.01267  Uiso   1.00
N4     N     0.53380   0.59734   0.36413   0.01267  Uiso   1.00
N5     N     0.68551   0.27676   0.63006   0.01267  Uiso   1.00
N6     N     0.72794   0.31188   0.85322   0.01267  Uiso   1.00
N7     N     0.58345   0.52443   0.86231   0.01267  Uiso   1.00
N8     N     0.46620   0.40266   0.63587   0.01267  Uiso   1.00
F1     F     0.21378   0.10847   0.56376   0.01267  Uiso   1.00
F2     F     0.04776   0.19914   0.49277   0.01267  Uiso   1.00
F3     F     0.88681   0.79743   0.96125   0.01267  Uiso   1.00
F4     F     0.79850   0.97595   0.01586   0.01267  Uiso   1.00
F5     F     0.67008   0.17665   0.11236   0.01267  Uiso   1.00
F6     F     0.66183   0.99576   0.14935   0.01267  Uiso   1.00
F7     F     0.81441   0.33764   0.40898   0.01267  Uiso   1.00
F8     F     0.99069   0.30839   0.35844   0.01267  Uiso   1.00
F9     F     0.78622   0.89153   0.43624   0.01267  Uiso   1.00
F10    F     0.95224   0.80086   0.50723   0.01267  Uiso   1.00
F11    F     0.11319   0.20257   0.03875   0.01267  Uiso   1.00
F12    F     0.20150   0.02405   0.98414   0.01267  Uiso   1.00
F13    F     0.32992   0.82335   0.88764   0.01267  Uiso   1.00
F14    F     0.33817   0.00424   0.85065   0.01267  Uiso   1.00
F15    F     0.18559   0.66236   0.59102   0.01267  Uiso   1.00
F16    F     0.00931   0.69161   0.64156   0.01267  Uiso   1.00
