data_MIDSUP_clean
_audit_creation_date              2015-10-16
_audit_creation_method            'Materials Studio'
_symmetry_space_group_name_H-M    'P1'
_symmetry_Int_Tables_number       1
_symmetry_cell_setting            triclinic
loop_
_symmetry_equiv_pos_as_xyz
  x,y,z
_cell_length_a                    9.2116
_cell_length_b                    17.9402
_cell_length_c                    19.1589
_cell_angle_alpha                 90.1011
_cell_angle_beta                  91.0656
_cell_angle_gamma                 91.4583
loop_
_atom_site_label
_atom_site_type_symbol
_atom_site_fract_x
_atom_site_fract_y
_atom_site_fract_z
_atom_site_U_iso_or_equiv
_atom_site_adp_type
_atom_site_occupancy
Ni1    Ni    0.65548   0.30844   0.75477   0.01267  Uiso   1.00
Ni2    Ni    0.51151   0.80381   0.25428   0.01267  Uiso   1.00
Ni3    Ni    0.39732   0.30280   0.75387   0.01267  Uiso   1.00
Ni4    Ni    0.25316   0.80028   0.25190   0.01267  Uiso   1.00
H1     H     0.13293   0.37376   0.65712   0.01267  Uiso   1.00
H2     H     0.14041   0.18578   0.74861   0.01267  Uiso   1.00
H3     H     0.61963   0.99581   0.38551   0.01267  Uiso   1.00
H4     H     0.76050   0.17728   0.57320   0.01267  Uiso   1.00
H5     H     0.75197   0.71406   0.17548   0.01267  Uiso   1.00
H6     H     0.89585   0.38583   0.83767   0.01267  Uiso   1.00
H7     H     0.01708   0.88375   0.33360   0.01267  Uiso   1.00
H8     H     0.00313   0.68423   0.28304   0.01267  Uiso   1.00
H9     H     0.87533   0.18802   0.77406   0.01267  Uiso   1.00
H10    H     0.14283   0.64929   0.41638   0.01267  Uiso   1.00
H11    H     0.91052   0.42758   0.74836   0.01267  Uiso   1.00
H12    H     0.16950   0.23031   0.83650   0.01267  Uiso   1.00
H13    H     0.27956   0.47636   0.61104   0.01267  Uiso   1.00
H14    H     0.13695   0.55890   0.52276   0.01267  Uiso   1.00
H15    H     0.87119   0.33917   0.64174   0.01267  Uiso   1.00
H16    H     0.01142   0.70109   0.18677   0.01267  Uiso   1.00
H17    H     0.74512   0.59526   0.99201   0.01267  Uiso   1.00
H18    H     0.14162   0.04484   0.51783   0.01267  Uiso   1.00
H19    H     0.73335   0.68062   0.26776   0.01267  Uiso   1.00
H20    H     0.75982   0.91700   0.22002   0.01267  Uiso   1.00
H21    H     0.76737   0.56488   0.50182   0.01267  Uiso   1.00
H22    H     0.76173   0.07568   0.03509   0.01267  Uiso   1.00
H23    H     0.75855   0.09082   0.46481   0.01267  Uiso   1.00
H24    H     0.02904   0.78507   0.36611   0.01267  Uiso   1.00
H25    H     0.74319   0.84538   0.14796   0.01267  Uiso   1.00
H26    H     0.28259   0.13962   0.59903   0.01267  Uiso   1.00
H27    H     0.15127   0.58726   0.13709   0.01267  Uiso   1.00
H28    H     0.62665   0.64458   0.41224   0.01267  Uiso   1.00
H29    H     0.15476   0.92804   0.06584   0.01267  Uiso   1.00
H30    H     0.90480   0.23806   0.66023   0.01267  Uiso   1.00
H31    H     0.76067   0.77058   0.36283   0.01267  Uiso   1.00
H32    H     0.15335   0.01848   0.96052   0.01267  Uiso   1.00
H33    H     0.14442   0.95136   0.41603   0.01267  Uiso   1.00
H34    H     0.29731   0.41723   0.94419   0.01267  Uiso   1.00
H35    H     0.15681   0.48331   0.04288   0.01267  Uiso   1.00
H36    H     0.74322   0.49642   0.89020   0.01267  Uiso   1.00
H37    H     0.15466   0.36446   0.84776   0.01267  Uiso   1.00
H38    H     0.02630   0.91278   0.21056   0.01267  Uiso   1.00
H39    H     0.29825   0.11176   0.87991   0.01267  Uiso   1.00
H40    H     0.75871   0.17182   0.93140   0.01267  Uiso   1.00
H41    H     0.75375   0.87323   0.34635   0.01267  Uiso   1.00
H42    H     0.60616   0.65963   0.08831   0.01267  Uiso   1.00
H43    H     0.00759   0.83501   0.14488   0.01267  Uiso   1.00
H44    H     0.16485   0.27326   0.63763   0.01267  Uiso   1.00
H45    H     0.91188   0.25172   0.85128   0.01267  Uiso   1.00
H46    H     0.17958   0.42609   0.76930   0.01267  Uiso   1.00
H47    H     0.62486   0.97819   0.10873   0.01267  Uiso   1.00
H48    H     0.76267   0.47778   0.61043   0.01267  Uiso   1.00
C1     C     0.96885   0.85529   0.19890   0.01267  Uiso   1.00
C2     C     0.24956   0.98381   0.43258   0.01267  Uiso   1.00
C3     C     0.52631   0.03998   0.01662   0.01267  Uiso   1.00
C4     C     0.52427   0.39842   0.85372   0.01267  Uiso   1.00
C5     C     0.25415   0.57893   0.10422   0.01267  Uiso   1.00
C6     C     0.25773   0.52249   0.05254   0.01267  Uiso   1.00
C7     C     0.38082   0.62774   0.11672   0.01267  Uiso   1.00
C8     C     0.25903   0.96065   0.04995   0.01267  Uiso   1.00
C9     C     0.52439   0.21318   0.65396   0.01267  Uiso   1.00
C10    C     0.38280   0.55042   0.52836   0.01267  Uiso   1.00
C11    C     0.52203   0.98836   0.07468   0.01267  Uiso   1.00
C12    C     0.94051   0.24080   0.79348   0.01267  Uiso   1.00
C13    C     0.38548   0.89370   0.15150   0.01267  Uiso   1.00
C14    C     0.39013   0.94923   0.09129   0.01267  Uiso   1.00
C15    C     0.38260   0.07498   0.51049   0.01267  Uiso   1.00
C16    C     0.79944   0.85894   0.20181   0.01267  Uiso   1.00
C17    C     0.24842   0.62640   0.44082   0.01267  Uiso   1.00
C18    C     0.26011   0.00977   0.99226   0.01267  Uiso   1.00
C19    C     0.52893   0.14292   0.90097   0.01267  Uiso   1.00
C20    C     0.51509   0.00830   0.41566   0.01267  Uiso   1.00
C21    C     0.39892   0.10142   0.91533   0.01267  Uiso   1.00
C22    C     0.39342   0.05029   0.97379   0.01267  Uiso   1.00
C23    C     0.38333   0.96934   0.39622   0.01267  Uiso   1.00
C24    C     0.38540   0.65094   0.41099   0.01267  Uiso   1.00
C25    C     0.96166   0.72190   0.23800   0.01267  Uiso   1.00
C26    C     0.65409   0.14767   0.55394   0.01267  Uiso   1.00
C27    C     0.79215   0.72424   0.23237   0.01267  Uiso   1.00
C28    C     0.51510   0.56322   0.02328   0.01267  Uiso   1.00
C29    C     0.11748   0.37360   0.79040   0.01267  Uiso   1.00
C30    C     0.38467   0.70793   0.35255   0.01267  Uiso   1.00
C31    C     0.10796   0.23550   0.78354   0.01267  Uiso   1.00
C32    C     0.52119   0.16080   0.59148   0.01267  Uiso   1.00
C33    C     0.52854   0.20138   0.84346   0.01267  Uiso   1.00
C34    C     0.65918   0.13379   0.94401   0.01267  Uiso   1.00
C35    C     0.38412   0.90949   0.33998   0.01267  Uiso   1.00
C36    C     0.64412   0.55667   0.98047   0.01267  Uiso   1.00
C37    C     0.51759   0.06167   0.47240   0.01267  Uiso   1.00
C38    C     0.65849   0.08314   0.00042   0.01267  Uiso   1.00
C39    C     0.93654   0.29852   0.67668   0.01267  Uiso   1.00
C40    C     0.50918   0.61890   0.07767   0.01267  Uiso   1.00
C41    C     0.51983   0.62450   0.43802   0.01267  Uiso   1.00
C42    C     0.24871   0.03509   0.48857   0.01267  Uiso   1.00
C43    C     0.38692   0.12631   0.56893   0.01267  Uiso   1.00
C44    C     0.24648   0.57731   0.49834   0.01267  Uiso   1.00
C45    C     0.80340   0.81827   0.32702   0.01267  Uiso   1.00
C46    C     0.52024   0.47447   0.61472   0.01267  Uiso   1.00
C47    C     0.37777   0.69200   0.16885   0.01267  Uiso   1.00
C48    C     0.65697   0.50001   0.58555   0.01267  Uiso   1.00
C49    C     0.10474   0.31338   0.67478   0.01267  Uiso   1.00
C50    C     0.94835   0.37874   0.78365   0.01267  Uiso   1.00
C51    C     0.39311   0.45882   0.95498   0.01267  Uiso   1.00
C52    C     0.38548   0.49952   0.58688   0.01267  Uiso   1.00
C53    C     0.65218   0.10056   0.49477   0.01267  Uiso   1.00
C54    C     0.52270   0.41302   0.66890   0.01267  Uiso   1.00
C55    C     0.64499   0.50347   0.92619   0.01267  Uiso   1.00
C56    C     0.38713   0.51392   0.01027   0.01267  Uiso   1.00
C57    C     0.97336   0.82340   0.32524   0.01267  Uiso   1.00
C58    C     0.52184   0.57437   0.49713   0.01267  Uiso   1.00
C59    C     0.51921   0.45426   0.91346   0.01267  Uiso   1.00
C60    C     0.65824   0.54762   0.52705   0.01267  Uiso   1.00
N1     N     0.02589   0.79996   0.25320   0.01267  Uiso   1.00
N2     N     0.74025   0.80141   0.25384   0.01267  Uiso   1.00
N3     N     0.16884   0.30628   0.74905   0.01267  Uiso   1.00
N4     N     0.88318   0.30686   0.75171   0.01267  Uiso   1.00
O1     O     0.51082   0.87744   0.33006   0.01267  Uiso   1.00
O2     O     0.25854   0.73936   0.33758   0.01267  Uiso   1.00
O3     O     0.25196   0.70630   0.19764   0.01267  Uiso   1.00
O4     O     0.51126   0.72190   0.32217   0.01267  Uiso   1.00
O5     O     0.39812   0.24354   0.66905   0.01267  Uiso   1.00
O6     O     0.50936   0.88551   0.18700   0.01267  Uiso   1.00
O7     O     0.40405   0.35734   0.84201   0.01267  Uiso   1.00
O8     O     0.65062   0.22448   0.68735   0.01267  Uiso   1.00
O9     O     0.64840   0.37828   0.67626   0.01267  Uiso   1.00
O10    O     0.40029   0.39762   0.70217   0.01267  Uiso   1.00
O11    O     0.26004   0.85842   0.16347   0.01267  Uiso   1.00
O12    O     0.50271   0.72941   0.17939   0.01267  Uiso   1.00
O13    O     0.65092   0.24130   0.83567   0.01267  Uiso   1.00
O14    O     0.64695   0.39582   0.81857   0.01267  Uiso   1.00
O15    O     0.25884   0.89288   0.30734   0.01267  Uiso   1.00
O16    O     0.40516   0.20875   0.80738   0.01267  Uiso   1.00
