data_MIFGEP_clean
_audit_creation_date              2014-07-02
_audit_creation_method            'Materials Studio'
_symmetry_space_group_name_H-M    'P1'
_symmetry_Int_Tables_number       1
_symmetry_cell_setting            triclinic
loop_
_symmetry_equiv_pos_as_xyz
  x,y,z
_cell_length_a                    8.9860
_cell_length_b                    14.9150
_cell_length_c                    26.7590
_cell_angle_alpha                 96.2720
_cell_angle_beta                  90.0000
_cell_angle_gamma                 90.0000
loop_
_atom_site_label
_atom_site_type_symbol
_atom_site_fract_x
_atom_site_fract_y
_atom_site_fract_z
_atom_site_U_iso_or_equiv
_atom_site_adp_type
_atom_site_occupancy
Cd1    Cd    0.81228   0.55884   0.85851   0.01267  Uiso   1.00
Cd2    Cd    0.68772   0.05884   0.35851   0.01267  Uiso   1.00
H1     H     0.99760   0.40860   0.99610   0.01267  Uiso   1.00
H2     H     0.98220   0.24850   0.86540   0.01267  Uiso   1.00
H3     H     0.40240   0.68200   0.97490   0.01267  Uiso   1.00
H4     H     0.25760   0.79820   0.01260   0.01267  Uiso   1.00
H5     H     0.46440   0.97100   0.93070   0.01267  Uiso   1.00
H6     H     0.60850   0.85430   0.89330   0.01267  Uiso   1.00
H7     H     0.23090   0.92160   0.06830   0.01267  Uiso   1.00
H8     H     0.03130   0.16170   0.06590   0.01267  Uiso   1.00
H9     H     0.25620   0.05170   0.94490   0.01267  Uiso   1.00
H10    H     0.22980   0.97120   0.15650   0.01267  Uiso   1.00
H11    H     0.12430   0.96520   0.23470   0.01267  Uiso   1.00
H12    H     0.75840   0.08640   0.19110   0.01267  Uiso   1.00
H13    H     0.86240   0.09600   0.11310   0.01267  Uiso   1.00
H14    H     0.09160   0.29130   0.03550   0.01267  Uiso   1.00
H15    H     0.07630   0.13090   0.90500   0.01267  Uiso   1.00
H16    H     0.50240   0.90860   0.49610   0.01267  Uiso   1.00
H17    H     0.51780   0.74850   0.36540   0.01267  Uiso   1.00
H18    H     0.09760   0.18200   0.47490   0.01267  Uiso   1.00
H19    H     0.24240   0.29820   0.51260   0.01267  Uiso   1.00
H20    H     0.03560   0.47100   0.43070   0.01267  Uiso   1.00
H21    H     0.89150   0.35430   0.39330   0.01267  Uiso   1.00
H22    H     0.26910   0.42160   0.56830   0.01267  Uiso   1.00
H23    H     0.46870   0.66170   0.56590   0.01267  Uiso   1.00
H24    H     0.24380   0.55170   0.44490   0.01267  Uiso   1.00
H25    H     0.27020   0.47120   0.65650   0.01267  Uiso   1.00
H26    H     0.37570   0.46520   0.73470   0.01267  Uiso   1.00
H27    H     0.74160   0.58640   0.69110   0.01267  Uiso   1.00
H28    H     0.63760   0.59600   0.61310   0.01267  Uiso   1.00
H29    H     0.40840   0.79130   0.53550   0.01267  Uiso   1.00
H30    H     0.42370   0.63090   0.40500   0.01267  Uiso   1.00
C1     C     0.01240   0.35270   0.97771   0.01267  Uiso   1.00
C2     C     0.97750   0.34120   0.92673   0.01267  Uiso   1.00
C3     C     0.00320   0.25710   0.89967   0.01267  Uiso   1.00
C4     C     0.91820   0.41710   0.90118   0.01267  Uiso   1.00
C5     C     0.86120   0.02330   0.27187   0.01267  Uiso   1.00
C6     C     0.52200   0.75590   0.93107   0.01267  Uiso   1.00
C7     C     0.41590   0.74020   0.96628   0.01267  Uiso   1.00
C8     C     0.32890   0.81010   0.98902   0.01267  Uiso   1.00
C9     C     0.34760   0.89820   0.97671   0.01267  Uiso   1.00
C10    C     0.45240   0.91320   0.94009   0.01267  Uiso   1.00
C11    C     0.53880   0.84320   0.91759   0.01267  Uiso   1.00
C12    C     0.25810   0.97420   0.00248   0.01267  Uiso   1.00
C13    C     0.20740   0.97100   0.05141   0.01267  Uiso   1.00
C14    C     0.12140   0.04100   0.07540   0.01267  Uiso   1.00
C15    C     0.08800   0.11480   0.05001   0.01267  Uiso   1.00
C16    C     0.13810   0.12010   0.00097   0.01267  Uiso   1.00
C17    C     0.22280   0.04910   0.97757   0.01267  Uiso   1.00
C18    C     0.05880   0.03570   0.12608   0.01267  Uiso   1.00
C19    C     0.13560   0.99540   0.16323   0.01267  Uiso   1.00
C20    C     0.07150   0.99130   0.21011   0.01267  Uiso   1.00
C21    C     0.93140   0.02510   0.22085   0.01267  Uiso   1.00
C22    C     0.85360   0.06380   0.18423   0.01267  Uiso   1.00
C23    C     0.91600   0.06950   0.13736   0.01267  Uiso   1.00
C24    C     0.09140   0.19770   0.97473   0.01267  Uiso   1.00
C25    C     0.06860   0.28230   0.00140   0.01267  Uiso   1.00
C26    C     0.05950   0.18650   0.92344   0.01267  Uiso   1.00
C27    C     0.61970   0.68200   0.90712   0.01267  Uiso   1.00
C28    C     0.48760   0.85270   0.47771   0.01267  Uiso   1.00
C29    C     0.52250   0.84120   0.42673   0.01267  Uiso   1.00
C30    C     0.49680   0.75710   0.39967   0.01267  Uiso   1.00
C31    C     0.58180   0.91710   0.40118   0.01267  Uiso   1.00
C32    C     0.63880   0.52330   0.77187   0.01267  Uiso   1.00
C33    C     0.97800   0.25590   0.43107   0.01267  Uiso   1.00
C34    C     0.08410   0.24020   0.46628   0.01267  Uiso   1.00
C35    C     0.17110   0.31010   0.48902   0.01267  Uiso   1.00
C36    C     0.15240   0.39820   0.47671   0.01267  Uiso   1.00
C37    C     0.04760   0.41320   0.44009   0.01267  Uiso   1.00
C38    C     0.96120   0.34320   0.41759   0.01267  Uiso   1.00
C39    C     0.24190   0.47420   0.50248   0.01267  Uiso   1.00
C40    C     0.29260   0.47100   0.55141   0.01267  Uiso   1.00
C41    C     0.37860   0.54100   0.57540   0.01267  Uiso   1.00
C42    C     0.41200   0.61480   0.55001   0.01267  Uiso   1.00
C43    C     0.36190   0.62010   0.50097   0.01267  Uiso   1.00
C44    C     0.27720   0.54910   0.47757   0.01267  Uiso   1.00
C45    C     0.44120   0.53570   0.62608   0.01267  Uiso   1.00
C46    C     0.36440   0.49540   0.66323   0.01267  Uiso   1.00
C47    C     0.42850   0.49130   0.71011   0.01267  Uiso   1.00
C48    C     0.56860   0.52510   0.72085   0.01267  Uiso   1.00
C49    C     0.64640   0.56380   0.68423   0.01267  Uiso   1.00
C50    C     0.58400   0.56950   0.63736   0.01267  Uiso   1.00
C51    C     0.40860   0.69770   0.47473   0.01267  Uiso   1.00
C52    C     0.43140   0.78230   0.50140   0.01267  Uiso   1.00
C53    C     0.44050   0.68650   0.42344   0.01267  Uiso   1.00
C54    C     0.88030   0.18200   0.40712   0.01267  Uiso   1.00
O1     O     0.93260   0.99530   0.30655   0.01267  Uiso   1.00
O2     O     0.73040   0.05400   0.27676   0.01267  Uiso   1.00
O3     O     0.88420   0.40537   0.85620   0.01267  Uiso   1.00
O4     O     0.90340   0.49323   0.92633   0.01267  Uiso   1.00
O5     O     0.72150   0.70045   0.87829   0.01267  Uiso   1.00
O6     O     0.59740   0.60220   0.91720   0.01267  Uiso   1.00
O7     O     0.56740   0.49530   0.80655   0.01267  Uiso   1.00
O8     O     0.76960   0.55400   0.77676   0.01267  Uiso   1.00
O9     O     0.61580   0.90537   0.35620   0.01267  Uiso   1.00
O10    O     0.59660   0.99323   0.42633   0.01267  Uiso   1.00
O11    O     0.77850   0.20045   0.37829   0.01267  Uiso   1.00
O12    O     0.90260   0.10220   0.41720   0.01267  Uiso   1.00
Cd3    Cd    0.31228   0.94116   0.64149   0.01267  Uiso   1.00
Cd4    Cd    0.18772   0.44116   0.14149   0.01267  Uiso   1.00
H31    H     0.49760   0.09140   0.50390   0.01267  Uiso   1.00
H32    H     0.48220   0.25150   0.63460   0.01267  Uiso   1.00
H33    H     0.90240   0.81800   0.52510   0.01267  Uiso   1.00
H34    H     0.75760   0.70180   0.48740   0.01267  Uiso   1.00
H35    H     0.96440   0.52900   0.56930   0.01267  Uiso   1.00
H36    H     0.10850   0.64570   0.60670   0.01267  Uiso   1.00
H37    H     0.73090   0.57840   0.43170   0.01267  Uiso   1.00
H38    H     0.53130   0.33830   0.43410   0.01267  Uiso   1.00
H39    H     0.75620   0.44830   0.55510   0.01267  Uiso   1.00
H40    H     0.72980   0.52880   0.34350   0.01267  Uiso   1.00
H41    H     0.62430   0.53480   0.26530   0.01267  Uiso   1.00
H42    H     0.25840   0.41360   0.30890   0.01267  Uiso   1.00
H43    H     0.36240   0.40400   0.38690   0.01267  Uiso   1.00
H44    H     0.59160   0.20870   0.46450   0.01267  Uiso   1.00
H45    H     0.57630   0.36910   0.59500   0.01267  Uiso   1.00
H46    H     0.00240   0.59140   0.00390   0.01267  Uiso   1.00
H47    H     0.01780   0.75150   0.13460   0.01267  Uiso   1.00
H48    H     0.59760   0.31800   0.02510   0.01267  Uiso   1.00
H49    H     0.74240   0.20180   0.98740   0.01267  Uiso   1.00
H50    H     0.53560   0.02900   0.06930   0.01267  Uiso   1.00
H51    H     0.39150   0.14570   0.10670   0.01267  Uiso   1.00
H52    H     0.76910   0.07840   0.93170   0.01267  Uiso   1.00
H53    H     0.96870   0.83830   0.93410   0.01267  Uiso   1.00
H54    H     0.74380   0.94830   0.05510   0.01267  Uiso   1.00
H55    H     0.77020   0.02880   0.84350   0.01267  Uiso   1.00
H56    H     0.87570   0.03480   0.76530   0.01267  Uiso   1.00
H57    H     0.24160   0.91360   0.80890   0.01267  Uiso   1.00
H58    H     0.13760   0.90400   0.88690   0.01267  Uiso   1.00
H59    H     0.90840   0.70870   0.96450   0.01267  Uiso   1.00
H60    H     0.92370   0.86910   0.09500   0.01267  Uiso   1.00
C55    C     0.51240   0.14730   0.52229   0.01267  Uiso   1.00
C56    C     0.47750   0.15880   0.57327   0.01267  Uiso   1.00
C57    C     0.50320   0.24290   0.60033   0.01267  Uiso   1.00
C58    C     0.41820   0.08290   0.59882   0.01267  Uiso   1.00
C59    C     0.36120   0.47670   0.22813   0.01267  Uiso   1.00
C60    C     0.02200   0.74410   0.56893   0.01267  Uiso   1.00
C61    C     0.91590   0.75980   0.53372   0.01267  Uiso   1.00
C62    C     0.82890   0.68990   0.51098   0.01267  Uiso   1.00
C63    C     0.84760   0.60180   0.52329   0.01267  Uiso   1.00
C64    C     0.95240   0.58680   0.55991   0.01267  Uiso   1.00
C65    C     0.03880   0.65680   0.58241   0.01267  Uiso   1.00
C66    C     0.75810   0.52580   0.49752   0.01267  Uiso   1.00
C67    C     0.70740   0.52900   0.44859   0.01267  Uiso   1.00
C68    C     0.62140   0.45900   0.42460   0.01267  Uiso   1.00
C69    C     0.58800   0.38520   0.44999   0.01267  Uiso   1.00
C70    C     0.63810   0.37990   0.49903   0.01267  Uiso   1.00
C71    C     0.72280   0.45090   0.52243   0.01267  Uiso   1.00
C72    C     0.55880   0.46430   0.37392   0.01267  Uiso   1.00
C73    C     0.63560   0.50460   0.33677   0.01267  Uiso   1.00
C74    C     0.57150   0.50870   0.28989   0.01267  Uiso   1.00
C75    C     0.43140   0.47490   0.27915   0.01267  Uiso   1.00
C76    C     0.35360   0.43620   0.31577   0.01267  Uiso   1.00
C77    C     0.41600   0.43050   0.36264   0.01267  Uiso   1.00
C78    C     0.59140   0.30230   0.52527   0.01267  Uiso   1.00
C79    C     0.56860   0.21770   0.49860   0.01267  Uiso   1.00
C80    C     0.55950   0.31350   0.57656   0.01267  Uiso   1.00
C81    C     0.11970   0.81800   0.59288   0.01267  Uiso   1.00
C82    C     0.98760   0.64730   0.02229   0.01267  Uiso   1.00
C83    C     0.02250   0.65880   0.07327   0.01267  Uiso   1.00
C84    C     0.99680   0.74290   0.10033   0.01267  Uiso   1.00
C85    C     0.08180   0.58290   0.09882   0.01267  Uiso   1.00
C86    C     0.13880   0.97670   0.72813   0.01267  Uiso   1.00
C87    C     0.47800   0.24410   0.06893   0.01267  Uiso   1.00
C88    C     0.58410   0.25980   0.03372   0.01267  Uiso   1.00
C89    C     0.67110   0.18990   0.01098   0.01267  Uiso   1.00
C90    C     0.65240   0.10180   0.02329   0.01267  Uiso   1.00
C91    C     0.54760   0.08680   0.05991   0.01267  Uiso   1.00
C92    C     0.46120   0.15680   0.08241   0.01267  Uiso   1.00
C93    C     0.74190   0.02580   0.99752   0.01267  Uiso   1.00
C94    C     0.79260   0.02900   0.94859   0.01267  Uiso   1.00
C95    C     0.87860   0.95900   0.92460   0.01267  Uiso   1.00
C96    C     0.91200   0.88520   0.94999   0.01267  Uiso   1.00
C97    C     0.86190   0.87990   0.99903   0.01267  Uiso   1.00
C98    C     0.77720   0.95090   0.02243   0.01267  Uiso   1.00
C99    C     0.94120   0.96430   0.87392   0.01267  Uiso   1.00
C100   C     0.86440   0.00460   0.83677   0.01267  Uiso   1.00
C101   C     0.92850   0.00870   0.78989   0.01267  Uiso   1.00
C102   C     0.06860   0.97490   0.77915   0.01267  Uiso   1.00
C103   C     0.14640   0.93620   0.81577   0.01267  Uiso   1.00
C104   C     0.08400   0.93050   0.86264   0.01267  Uiso   1.00
C105   C     0.90860   0.80230   0.02527   0.01267  Uiso   1.00
C106   C     0.93140   0.71770   0.99860   0.01267  Uiso   1.00
C107   C     0.94050   0.81350   0.07656   0.01267  Uiso   1.00
C108   C     0.38030   0.31800   0.09288   0.01267  Uiso   1.00
O13    O     0.43260   0.50470   0.19345   0.01267  Uiso   1.00
O14    O     0.23040   0.44600   0.22324   0.01267  Uiso   1.00
O15    O     0.38420   0.09463   0.64380   0.01267  Uiso   1.00
O16    O     0.40340   0.00677   0.57367   0.01267  Uiso   1.00
O17    O     0.22150   0.79955   0.62171   0.01267  Uiso   1.00
O18    O     0.09740   0.89780   0.58280   0.01267  Uiso   1.00
O19    O     0.06740   0.00470   0.69345   0.01267  Uiso   1.00
O20    O     0.26960   0.94600   0.72324   0.01267  Uiso   1.00
O21    O     0.11580   0.59463   0.14380   0.01267  Uiso   1.00
O22    O     0.09660   0.50677   0.07367   0.01267  Uiso   1.00
O23    O     0.27850   0.29955   0.12171   0.01267  Uiso   1.00
O24    O     0.40260   0.39780   0.08280   0.01267  Uiso   1.00
