data_MIFGEP01_clean
_audit_creation_date              2014-07-02
_audit_creation_method            'Materials Studio'
_symmetry_space_group_name_H-M    'P1'
_symmetry_Int_Tables_number       1
_symmetry_cell_setting            triclinic
loop_
_symmetry_equiv_pos_as_xyz
  x,y,z
_cell_length_a                    8.9860
_cell_length_b                    14.9150
_cell_length_c                    26.7590
_cell_angle_alpha                 96.2720
_cell_angle_beta                  90.0000
_cell_angle_gamma                 90.0000
loop_
_atom_site_label
_atom_site_type_symbol
_atom_site_fract_x
_atom_site_fract_y
_atom_site_fract_z
_atom_site_U_iso_or_equiv
_atom_site_adp_type
_atom_site_occupancy
Cd1    Cd    0.81224   0.55884   0.85852   0.01267  Uiso   1.00
Cd2    Cd    0.68776   0.05884   0.35852   0.01267  Uiso   1.00
H1     H     0.40210   0.68230   0.97500   0.01267  Uiso   1.00
H2     H     0.25750   0.79820   0.01250   0.01267  Uiso   1.00
H3     H     0.46520   0.97090   0.93080   0.01267  Uiso   1.00
H4     H     0.60840   0.85380   0.89320   0.01267  Uiso   1.00
H5     H     0.23160   0.92160   0.06820   0.01267  Uiso   1.00
H6     H     0.03190   0.16160   0.06580   0.01267  Uiso   1.00
H7     H     0.25560   0.05120   0.94470   0.01267  Uiso   1.00
H8     H     0.22970   0.97120   0.15640   0.01267  Uiso   1.00
H9     H     0.12520   0.96490   0.23450   0.01267  Uiso   1.00
H10    H     0.75870   0.08680   0.19070   0.01267  Uiso   1.00
H11    H     0.86320   0.09590   0.11330   0.01267  Uiso   1.00
H12    H     0.09150   0.29100   0.03550   0.01267  Uiso   1.00
H13    H     0.07680   0.13160   0.90490   0.01267  Uiso   1.00
H14    H     0.99700   0.40880   0.99590   0.01267  Uiso   1.00
H15    H     0.98220   0.24910   0.86550   0.01267  Uiso   1.00
H16    H     0.09790   0.18230   0.47500   0.01267  Uiso   1.00
H17    H     0.24250   0.29820   0.51250   0.01267  Uiso   1.00
H18    H     0.03480   0.47090   0.43080   0.01267  Uiso   1.00
H19    H     0.89160   0.35380   0.39320   0.01267  Uiso   1.00
H20    H     0.26840   0.42160   0.56820   0.01267  Uiso   1.00
H21    H     0.46810   0.66160   0.56580   0.01267  Uiso   1.00
H22    H     0.24440   0.55120   0.44470   0.01267  Uiso   1.00
H23    H     0.27030   0.47120   0.65640   0.01267  Uiso   1.00
H24    H     0.37480   0.46490   0.73450   0.01267  Uiso   1.00
H25    H     0.74130   0.58680   0.69070   0.01267  Uiso   1.00
H26    H     0.63680   0.59590   0.61330   0.01267  Uiso   1.00
H27    H     0.40850   0.79100   0.53550   0.01267  Uiso   1.00
H28    H     0.42320   0.63160   0.40490   0.01267  Uiso   1.00
H29    H     0.50300   0.90880   0.49590   0.01267  Uiso   1.00
H30    H     0.51780   0.74910   0.36550   0.01267  Uiso   1.00
C1     C     0.52170   0.75625   0.93096   0.01267  Uiso   1.00
C2     C     0.41550   0.74050   0.96630   0.01267  Uiso   1.00
C3     C     0.32880   0.81007   0.98891   0.01267  Uiso   1.00
C4     C     0.34750   0.89783   0.97659   0.01267  Uiso   1.00
C5     C     0.45270   0.91307   0.94008   0.01267  Uiso   1.00
C6     C     0.53880   0.84281   0.91749   0.01267  Uiso   1.00
C7     C     0.25780   0.97399   0.00241   0.01267  Uiso   1.00
C8     C     0.20770   0.97096   0.05124   0.01267  Uiso   1.00
C9     C     0.12150   0.04101   0.07548   0.01267  Uiso   1.00
C10    C     0.08850   0.11470   0.04992   0.01267  Uiso   1.00
C11    C     0.13820   0.12004   0.00100   0.01267  Uiso   1.00
C12    C     0.22250   0.04881   0.97744   0.01267  Uiso   1.00
C13    C     0.05860   0.03560   0.12614   0.01267  Uiso   1.00
C14    C     0.13550   0.99531   0.16320   0.01267  Uiso   1.00
C15    C     0.07220   0.99106   0.21003   0.01267  Uiso   1.00
C16    C     0.93110   0.02519   0.22095   0.01267  Uiso   1.00
C17    C     0.85390   0.06405   0.18402   0.01267  Uiso   1.00
C18    C     0.91660   0.06933   0.13760   0.01267  Uiso   1.00
C19    C     0.09130   0.19759   0.97470   0.01267  Uiso   1.00
C20    C     0.06860   0.28204   0.00142   0.01267  Uiso   1.00
C21    C     0.05970   0.18702   0.92351   0.01267  Uiso   1.00
C22    C     0.01200   0.35287   0.97757   0.01267  Uiso   1.00
C23    C     0.97780   0.34116   0.92684   0.01267  Uiso   1.00
C24    C     0.00320   0.25757   0.89968   0.01267  Uiso   1.00
C25    C     0.91820   0.41715   0.90130   0.01267  Uiso   1.00
C26    C     0.86100   0.02379   0.27209   0.01267  Uiso   1.00
C27    C     0.61990   0.68200   0.90704   0.01267  Uiso   1.00
C28    C     0.97830   0.25625   0.43096   0.01267  Uiso   1.00
C29    C     0.08450   0.24050   0.46630   0.01267  Uiso   1.00
C30    C     0.17120   0.31007   0.48891   0.01267  Uiso   1.00
C31    C     0.15250   0.39783   0.47659   0.01267  Uiso   1.00
C32    C     0.04730   0.41307   0.44008   0.01267  Uiso   1.00
C33    C     0.96120   0.34281   0.41749   0.01267  Uiso   1.00
C34    C     0.24220   0.47399   0.50241   0.01267  Uiso   1.00
C35    C     0.29230   0.47096   0.55124   0.01267  Uiso   1.00
C36    C     0.37850   0.54101   0.57548   0.01267  Uiso   1.00
C37    C     0.41150   0.61470   0.54992   0.01267  Uiso   1.00
C38    C     0.36180   0.62004   0.50100   0.01267  Uiso   1.00
C39    C     0.27750   0.54881   0.47744   0.01267  Uiso   1.00
C40    C     0.44140   0.53560   0.62614   0.01267  Uiso   1.00
C41    C     0.36450   0.49531   0.66320   0.01267  Uiso   1.00
C42    C     0.42780   0.49106   0.71003   0.01267  Uiso   1.00
C43    C     0.56890   0.52519   0.72095   0.01267  Uiso   1.00
C44    C     0.64610   0.56405   0.68402   0.01267  Uiso   1.00
C45    C     0.58340   0.56933   0.63760   0.01267  Uiso   1.00
C46    C     0.40870   0.69759   0.47470   0.01267  Uiso   1.00
C47    C     0.43140   0.78204   0.50142   0.01267  Uiso   1.00
C48    C     0.44030   0.68702   0.42351   0.01267  Uiso   1.00
C49    C     0.48800   0.85287   0.47757   0.01267  Uiso   1.00
C50    C     0.52220   0.84116   0.42684   0.01267  Uiso   1.00
C51    C     0.49680   0.75757   0.39968   0.01267  Uiso   1.00
C52    C     0.58180   0.91715   0.40130   0.01267  Uiso   1.00
C53    C     0.63900   0.52379   0.77209   0.01267  Uiso   1.00
C54    C     0.88010   0.18200   0.40704   0.01267  Uiso   1.00
O1     O     0.72140   0.70072   0.87832   0.01267  Uiso   1.00
O2     O     0.59700   0.60182   0.91719   0.01267  Uiso   1.00
O3     O     0.93190   0.99582   0.30637   0.01267  Uiso   1.00
O4     O     0.73030   0.05406   0.27693   0.01267  Uiso   1.00
O5     O     0.88360   0.40498   0.85615   0.01267  Uiso   1.00
O6     O     0.90370   0.49342   0.92625   0.01267  Uiso   1.00
O7     O     0.77860   0.20072   0.37832   0.01267  Uiso   1.00
O8     O     0.90300   0.10182   0.41719   0.01267  Uiso   1.00
O9     O     0.56810   0.49582   0.80637   0.01267  Uiso   1.00
O10    O     0.76970   0.55406   0.77693   0.01267  Uiso   1.00
O11    O     0.61640   0.90498   0.35615   0.01267  Uiso   1.00
O12    O     0.59630   0.99342   0.42625   0.01267  Uiso   1.00
Cd3    Cd    0.31224   0.94116   0.64148   0.01267  Uiso   1.00
Cd4    Cd    0.18776   0.44116   0.14149   0.01267  Uiso   1.00
H31    H     0.90210   0.81770   0.52500   0.01267  Uiso   1.00
H32    H     0.75750   0.70180   0.48750   0.01267  Uiso   1.00
H33    H     0.96520   0.52910   0.56920   0.01267  Uiso   1.00
H34    H     0.10840   0.64620   0.60680   0.01267  Uiso   1.00
H35    H     0.73160   0.57840   0.43180   0.01267  Uiso   1.00
H36    H     0.53190   0.33840   0.43420   0.01267  Uiso   1.00
H37    H     0.75560   0.44880   0.55530   0.01267  Uiso   1.00
H38    H     0.72970   0.52880   0.34360   0.01267  Uiso   1.00
H39    H     0.62520   0.53510   0.26550   0.01267  Uiso   1.00
H40    H     0.25870   0.41320   0.30930   0.01267  Uiso   1.00
H41    H     0.36320   0.40410   0.38670   0.01267  Uiso   1.00
H42    H     0.59150   0.20900   0.46450   0.01267  Uiso   1.00
H43    H     0.57680   0.36840   0.59510   0.01267  Uiso   1.00
H44    H     0.49700   0.09120   0.50410   0.01267  Uiso   1.00
H45    H     0.48220   0.25090   0.63450   0.01267  Uiso   1.00
H46    H     0.59790   0.31770   0.02500   0.01267  Uiso   1.00
H47    H     0.74250   0.20180   0.98750   0.01267  Uiso   1.00
H48    H     0.53480   0.02910   0.06920   0.01267  Uiso   1.00
H49    H     0.39160   0.14620   0.10680   0.01267  Uiso   1.00
H50    H     0.76840   0.07840   0.93180   0.01267  Uiso   1.00
H51    H     0.96810   0.83840   0.93420   0.01267  Uiso   1.00
H52    H     0.74440   0.94880   0.05530   0.01267  Uiso   1.00
H53    H     0.77030   0.02880   0.84360   0.01267  Uiso   1.00
H54    H     0.87480   0.03510   0.76550   0.01267  Uiso   1.00
H55    H     0.24130   0.91320   0.80930   0.01267  Uiso   1.00
H56    H     0.13680   0.90410   0.88670   0.01267  Uiso   1.00
H57    H     0.90850   0.70900   0.96450   0.01267  Uiso   1.00
H58    H     0.92320   0.86840   0.09510   0.01267  Uiso   1.00
H59    H     0.00300   0.59120   0.00410   0.01267  Uiso   1.00
H60    H     0.01780   0.75090   0.13450   0.01267  Uiso   1.00
C55    C     0.02170   0.74375   0.56904   0.01267  Uiso   1.00
C56    C     0.91550   0.75950   0.53370   0.01267  Uiso   1.00
C57    C     0.82880   0.68993   0.51109   0.01267  Uiso   1.00
C58    C     0.84750   0.60217   0.52341   0.01267  Uiso   1.00
C59    C     0.95270   0.58693   0.55992   0.01267  Uiso   1.00
C60    C     0.03880   0.65719   0.58251   0.01267  Uiso   1.00
C61    C     0.75780   0.52601   0.49759   0.01267  Uiso   1.00
C62    C     0.70770   0.52904   0.44876   0.01267  Uiso   1.00
C63    C     0.62150   0.45899   0.42452   0.01267  Uiso   1.00
C64    C     0.58850   0.38530   0.45008   0.01267  Uiso   1.00
C65    C     0.63820   0.37996   0.49900   0.01267  Uiso   1.00
C66    C     0.72250   0.45119   0.52256   0.01267  Uiso   1.00
C67    C     0.55860   0.46440   0.37386   0.01267  Uiso   1.00
C68    C     0.63550   0.50469   0.33680   0.01267  Uiso   1.00
C69    C     0.57220   0.50894   0.28997   0.01267  Uiso   1.00
C70    C     0.43110   0.47481   0.27905   0.01267  Uiso   1.00
C71    C     0.35390   0.43595   0.31598   0.01267  Uiso   1.00
C72    C     0.41660   0.43067   0.36240   0.01267  Uiso   1.00
C73    C     0.59130   0.30241   0.52530   0.01267  Uiso   1.00
C74    C     0.56860   0.21796   0.49858   0.01267  Uiso   1.00
C75    C     0.55970   0.31298   0.57649   0.01267  Uiso   1.00
C76    C     0.51200   0.14713   0.52243   0.01267  Uiso   1.00
C77    C     0.47780   0.15884   0.57316   0.01267  Uiso   1.00
C78    C     0.50320   0.24243   0.60032   0.01267  Uiso   1.00
C79    C     0.41820   0.08285   0.59870   0.01267  Uiso   1.00
C80    C     0.36100   0.47621   0.22791   0.01267  Uiso   1.00
C81    C     0.11990   0.81800   0.59296   0.01267  Uiso   1.00
C82    C     0.47830   0.24375   0.06904   0.01267  Uiso   1.00
C83    C     0.58450   0.25950   0.03370   0.01267  Uiso   1.00
C84    C     0.67120   0.18993   0.01109   0.01267  Uiso   1.00
C85    C     0.65250   0.10217   0.02341   0.01267  Uiso   1.00
C86    C     0.54730   0.08693   0.05992   0.01267  Uiso   1.00
C87    C     0.46120   0.15719   0.08251   0.01267  Uiso   1.00
C88    C     0.74220   0.02601   0.99759   0.01267  Uiso   1.00
C89    C     0.79230   0.02904   0.94876   0.01267  Uiso   1.00
C90    C     0.87850   0.95899   0.92452   0.01267  Uiso   1.00
C91    C     0.91150   0.88530   0.95008   0.01267  Uiso   1.00
C92    C     0.86180   0.87996   0.99900   0.01267  Uiso   1.00
C93    C     0.77750   0.95119   0.02256   0.01267  Uiso   1.00
C94    C     0.94140   0.96440   0.87386   0.01267  Uiso   1.00
C95    C     0.86450   0.00469   0.83680   0.01267  Uiso   1.00
C96    C     0.92780   0.00894   0.78997   0.01267  Uiso   1.00
C97    C     0.06890   0.97481   0.77905   0.01267  Uiso   1.00
C98    C     0.14610   0.93595   0.81598   0.01267  Uiso   1.00
C99    C     0.08340   0.93067   0.86240   0.01267  Uiso   1.00
C100   C     0.90870   0.80241   0.02530   0.01267  Uiso   1.00
C101   C     0.93140   0.71796   0.99858   0.01267  Uiso   1.00
C102   C     0.94030   0.81298   0.07649   0.01267  Uiso   1.00
C103   C     0.98800   0.64713   0.02243   0.01267  Uiso   1.00
C104   C     0.02220   0.65884   0.07316   0.01267  Uiso   1.00
C105   C     0.99680   0.74243   0.10032   0.01267  Uiso   1.00
C106   C     0.08180   0.58285   0.09870   0.01267  Uiso   1.00
C107   C     0.13900   0.97621   0.72791   0.01267  Uiso   1.00
C108   C     0.38010   0.31800   0.09296   0.01267  Uiso   1.00
O13    O     0.22140   0.79928   0.62168   0.01267  Uiso   1.00
O14    O     0.09700   0.89818   0.58281   0.01267  Uiso   1.00
O15    O     0.43190   0.50418   0.19363   0.01267  Uiso   1.00
O16    O     0.23030   0.44594   0.22307   0.01267  Uiso   1.00
O17    O     0.38360   0.09502   0.64385   0.01267  Uiso   1.00
O18    O     0.40370   0.00658   0.57375   0.01267  Uiso   1.00
O19    O     0.27860   0.29928   0.12168   0.01267  Uiso   1.00
O20    O     0.40300   0.39818   0.08281   0.01267  Uiso   1.00
O21    O     0.06810   0.00418   0.69363   0.01267  Uiso   1.00
O22    O     0.26970   0.94594   0.72307   0.01267  Uiso   1.00
O23    O     0.11640   0.59502   0.14385   0.01267  Uiso   1.00
O24    O     0.09630   0.50658   0.07375   0.01267  Uiso   1.00
