data_image0
_cell_length_a       16.163
_cell_length_b       9.912
_cell_length_c       27.816
_cell_angle_alpha    90
_cell_angle_beta     98.809
_cell_angle_gamma    90

_symmetry_space_group_name_H-M    "P 1"
_symmetry_int_tables_number       1

loop_
  _symmetry_equiv_pos_as_xyz
  'x, y, z'

loop_
  _atom_site_label
  _atom_site_occupancy
  _atom_site_fract_x
  _atom_site_fract_y
  _atom_site_fract_z
  _atom_site_thermal_displace_type
  _atom_site_B_iso_or_equiv
  _atom_site_type_symbol
  Ba1      1.0000 0.20620  0.62060  0.77030  Biso   1.000  Ba
  Ba2      1.0000 0.96130  0.84390  0.82010  Biso   1.000  Ba
  Na1      1.0000 0.81400  0.81040  0.55820  Biso   1.000  Na
  Co1      1.0000 0.06500  0.00930  0.69150  Biso   1.000  Co
  Co2      1.0000 0.09880  0.45520  0.89690  Biso   1.000  Co
  O1       1.0000 0.27980  0.83520  0.71880  Biso   1.000  O
  O2       1.0000 0.14300  0.86860  0.71510  Biso   1.000  O
  O3       1.0000 0.95820  0.78320  0.58430  Biso   1.000  O
  O4       1.0000 0.98840  0.88780  0.65620  Biso   1.000  O
  O5       1.0000 0.86400  0.05190  0.75040  Biso   1.000  O
  O6       1.0000 0.99530  0.00670  0.74130  Biso   1.000  O
  O7       1.0000 0.16820  0.35170  0.74010  Biso   1.000  O
  O8       1.0000 0.14270  0.13320  0.72560  Biso   1.000  O
  O9       1.0000 0.88430  0.63350  0.87080  Biso   1.000  O
  O10      1.0000 0.01930  0.59100  0.87150  Biso   1.000  O
  O11      1.0000 0.19830  0.70250  0.99940  Biso   1.000  O
  O12      1.0000 0.17290  0.58280  0.93090  Biso   1.000  O
  O13      1.0000 0.30280  0.41510  0.84050  Biso   1.000  O
  O14      1.0000 0.17000  0.45500  0.84730  Biso   1.000  O
  O15      1.0000 0.00300  0.10780  0.84850  Biso   1.000  O
  O16      1.0000 0.02410  0.32700  0.86340  Biso   1.000  O
  N1       1.0000 0.12300  0.01120  0.63580  Biso   1.000  N
  N2       1.0000 0.99990  0.16540  0.66780  Biso   1.000  N
  N3       1.0000 0.04030  0.45570  0.95260  Biso   1.000  N
  N4       1.0000 0.16610  0.30310  0.92280  Biso   1.000  N
  C1       1.0000 0.10360  0.14650  0.61240  Biso   1.000  C
  C2       1.0000 0.01120  0.17640  0.61480  Biso   1.000  C
  C3       1.0000 0.21290  0.98410  0.65630  Biso   1.000  C
  C4       1.0000 0.21410  0.88930  0.69960  Biso   1.000  C
  C5       1.0000 0.08890  0.89900  0.60200  Biso   1.000  C
  C6       1.0000 0.00500  0.85220  0.61320  Biso   1.000  C
  C7       1.0000 0.91240  0.13580  0.67750  Biso   1.000  C
  C8       1.0000 0.92150  0.06150  0.72660  Biso   1.000  C
  C9       1.0000 0.03490  0.28650  0.69630  Biso   1.000  C
  C10      1.0000 0.12220  0.25980  0.72260  Biso   1.000  C
  C11      1.0000 0.06020  0.32080  0.97680  Biso   1.000  C
  C12      1.0000 0.15380  0.29500  0.97540  Biso   1.000  C
  C13      1.0000 0.95080  0.47920  0.93180  Biso   1.000  C
  C14      1.0000 0.94950  0.57470  0.88820  Biso   1.000  C
  C15      1.0000 0.07320  0.56890  0.98550  Biso   1.000  C
  C16      1.0000 0.15410  0.62310  0.97220  Biso   1.000  C
  C17      1.0000 0.25260  0.33510  0.91360  Biso   1.000  C
  C18      1.0000 0.24360  0.40500  0.86320  Biso   1.000  C
  C19      1.0000 0.13400  0.17840  0.89540  Biso   1.000  C
  C20      1.0000 0.04700  0.20110  0.86700  Biso   1.000  C
  Cl1      1.0000 0.18270  0.52290  0.62390  Biso   1.000  Cl
  O17      1.0000 0.18970  0.59250  0.66880  Biso   1.000  O
  O18      1.0000 0.10370  0.46130  0.61090  Biso   1.000  O
  O19      1.0000 0.19610  0.61780  0.58620  Biso   1.000  O
  O20      1.0000 0.24630  0.41690  0.62770  Biso   1.000  O
  O21      1.0000 0.14030  0.81950  0.83360  Biso   1.000  O
  O22      1.0000 0.02630  0.63870  0.75660  Biso   1.000  O
  Ba3      1.0000 0.70620  0.12060  0.77030  Biso   1.000  Ba
  Ba4      1.0000 0.46130  0.34390  0.82010  Biso   1.000  Ba
  Na2      1.0000 0.31400  0.31040  0.55820  Biso   1.000  Na
  Co3      1.0000 0.56500  0.50930  0.69150  Biso   1.000  Co
  Co4      1.0000 0.59880  0.95520  0.89690  Biso   1.000  Co
  O23      1.0000 0.77980  0.33520  0.71880  Biso   1.000  O
  O24      1.0000 0.64300  0.36860  0.71510  Biso   1.000  O
  O25      1.0000 0.45820  0.28320  0.58430  Biso   1.000  O
  O26      1.0000 0.48840  0.38780  0.65620  Biso   1.000  O
  O27      1.0000 0.36400  0.55190  0.75040  Biso   1.000  O
  O28      1.0000 0.49530  0.50670  0.74130  Biso   1.000  O
  O29      1.0000 0.66820  0.85170  0.74010  Biso   1.000  O
  O30      1.0000 0.64270  0.63320  0.72560  Biso   1.000  O
  O31      1.0000 0.38430  0.13350  0.87080  Biso   1.000  O
  O32      1.0000 0.51930  0.09100  0.87150  Biso   1.000  O
  O33      1.0000 0.69830  0.20250  0.99940  Biso   1.000  O
  O34      1.0000 0.67290  0.08280  0.93090  Biso   1.000  O
  O35      1.0000 0.80280  0.91510  0.84050  Biso   1.000  O
  O36      1.0000 0.67000  0.95500  0.84730  Biso   1.000  O
  O37      1.0000 0.50300  0.60780  0.84850  Biso   1.000  O
  O38      1.0000 0.52410  0.82700  0.86340  Biso   1.000  O
  N5       1.0000 0.62300  0.51120  0.63580  Biso   1.000  N
  N6       1.0000 0.49990  0.66540  0.66780  Biso   1.000  N
  N7       1.0000 0.54030  0.95570  0.95260  Biso   1.000  N
  N8       1.0000 0.66610  0.80310  0.92280  Biso   1.000  N
  C21      1.0000 0.60360  0.64650  0.61240  Biso   1.000  C
  C22      1.0000 0.51120  0.67640  0.61480  Biso   1.000  C
  C23      1.0000 0.71290  0.48410  0.65630  Biso   1.000  C
  C24      1.0000 0.71410  0.38930  0.69960  Biso   1.000  C
  C25      1.0000 0.58890  0.39900  0.60200  Biso   1.000  C
  C26      1.0000 0.50500  0.35220  0.61320  Biso   1.000  C
  C27      1.0000 0.41240  0.63580  0.67750  Biso   1.000  C
  C28      1.0000 0.42150  0.56150  0.72660  Biso   1.000  C
  C29      1.0000 0.53490  0.78650  0.69630  Biso   1.000  C
  C30      1.0000 0.62220  0.75980  0.72260  Biso   1.000  C
  C31      1.0000 0.56020  0.82080  0.97680  Biso   1.000  C
  C32      1.0000 0.65380  0.79500  0.97540  Biso   1.000  C
  C33      1.0000 0.45080  0.97920  0.93180  Biso   1.000  C
  C34      1.0000 0.44950  0.07470  0.88820  Biso   1.000  C
  C35      1.0000 0.57320  0.06890  0.98550  Biso   1.000  C
  C36      1.0000 0.65410  0.12310  0.97220  Biso   1.000  C
  C37      1.0000 0.75260  0.83510  0.91360  Biso   1.000  C
  C38      1.0000 0.74360  0.90500  0.86320  Biso   1.000  C
  C39      1.0000 0.63400  0.67840  0.89540  Biso   1.000  C
  C40      1.0000 0.54700  0.70110  0.86700  Biso   1.000  C
  Cl2      1.0000 0.68270  0.02290  0.62390  Biso   1.000  Cl
  O39      1.0000 0.68970  0.09250  0.66880  Biso   1.000  O
  O40      1.0000 0.60370  0.96130  0.61090  Biso   1.000  O
  O41      1.0000 0.69610  0.11780  0.58620  Biso   1.000  O
  O42      1.0000 0.74630  0.91690  0.62770  Biso   1.000  O
  O43      1.0000 0.64030  0.31950  0.83360  Biso   1.000  O
  O44      1.0000 0.52630  0.13870  0.75660  Biso   1.000  O
  Ba5      1.0000 0.20620  0.37940  0.27030  Biso   1.000  Ba
  Ba6      1.0000 0.96130  0.15610  0.32010  Biso   1.000  Ba
  Na3      1.0000 0.81400  0.18960  0.05820  Biso   1.000  Na
  Co5      1.0000 0.06500  0.99070  0.19150  Biso   1.000  Co
  Co6      1.0000 0.09880  0.54480  0.39690  Biso   1.000  Co
  O45      1.0000 0.27980  0.16480  0.21880  Biso   1.000  O
  O46      1.0000 0.14300  0.13140  0.21510  Biso   1.000  O
  O47      1.0000 0.95820  0.21680  0.08430  Biso   1.000  O
  O48      1.0000 0.98840  0.11220  0.15620  Biso   1.000  O
  O49      1.0000 0.86400  0.94810  0.25040  Biso   1.000  O
  O50      1.0000 0.99530  0.99330  0.24130  Biso   1.000  O
  O51      1.0000 0.16820  0.64830  0.24010  Biso   1.000  O
  O52      1.0000 0.14270  0.86680  0.22560  Biso   1.000  O
  O53      1.0000 0.88430  0.36650  0.37080  Biso   1.000  O
  O54      1.0000 0.01930  0.40900  0.37150  Biso   1.000  O
  O55      1.0000 0.19830  0.29750  0.49940  Biso   1.000  O
  O56      1.0000 0.17290  0.41720  0.43090  Biso   1.000  O
  O57      1.0000 0.30280  0.58490  0.34050  Biso   1.000  O
  O58      1.0000 0.17000  0.54500  0.34730  Biso   1.000  O
  O59      1.0000 0.00300  0.89220  0.34850  Biso   1.000  O
  O60      1.0000 0.02410  0.67300  0.36340  Biso   1.000  O
  N9       1.0000 0.12300  0.98880  0.13580  Biso   1.000  N
  N10      1.0000 0.99990  0.83460  0.16780  Biso   1.000  N
  N11      1.0000 0.04030  0.54430  0.45260  Biso   1.000  N
  N12      1.0000 0.16610  0.69690  0.42280  Biso   1.000  N
  C41      1.0000 0.10360  0.85350  0.11240  Biso   1.000  C
  C42      1.0000 0.01120  0.82360  0.11480  Biso   1.000  C
  C43      1.0000 0.21290  0.01590  0.15630  Biso   1.000  C
  C44      1.0000 0.21410  0.11070  0.19960  Biso   1.000  C
  C45      1.0000 0.08890  0.10100  0.10200  Biso   1.000  C
  C46      1.0000 0.00500  0.14780  0.11320  Biso   1.000  C
  C47      1.0000 0.91240  0.86420  0.17750  Biso   1.000  C
  C48      1.0000 0.92150  0.93850  0.22660  Biso   1.000  C
  C49      1.0000 0.03490  0.71350  0.19630  Biso   1.000  C
  C50      1.0000 0.12220  0.74020  0.22260  Biso   1.000  C
  C51      1.0000 0.06020  0.67920  0.47680  Biso   1.000  C
  C52      1.0000 0.15380  0.70500  0.47540  Biso   1.000  C
  C53      1.0000 0.95080  0.52080  0.43180  Biso   1.000  C
  C54      1.0000 0.94950  0.42530  0.38820  Biso   1.000  C
  C55      1.0000 0.07320  0.43110  0.48550  Biso   1.000  C
  C56      1.0000 0.15410  0.37690  0.47220  Biso   1.000  C
  C57      1.0000 0.25260  0.66490  0.41360  Biso   1.000  C
  C58      1.0000 0.24360  0.59500  0.36320  Biso   1.000  C
  C59      1.0000 0.13400  0.82160  0.39540  Biso   1.000  C
  C60      1.0000 0.04700  0.79890  0.36700  Biso   1.000  C
  Cl3      1.0000 0.18270  0.47710  0.12390  Biso   1.000  Cl
  O61      1.0000 0.18970  0.40750  0.16880  Biso   1.000  O
  O62      1.0000 0.10370  0.53870  0.11090  Biso   1.000  O
  O63      1.0000 0.19610  0.38220  0.08620  Biso   1.000  O
  O64      1.0000 0.24630  0.58310  0.12770  Biso   1.000  O
  O65      1.0000 0.14030  0.18050  0.33360  Biso   1.000  O
  O66      1.0000 0.02630  0.36130  0.25660  Biso   1.000  O
  Ba7      1.0000 0.70620  0.87940  0.27030  Biso   1.000  Ba
  Ba8      1.0000 0.46130  0.65610  0.32010  Biso   1.000  Ba
  Na4      1.0000 0.31400  0.68960  0.05820  Biso   1.000  Na
  Co7      1.0000 0.56500  0.49070  0.19150  Biso   1.000  Co
  Co8      1.0000 0.59880  0.04480  0.39690  Biso   1.000  Co
  O67      1.0000 0.77980  0.66480  0.21880  Biso   1.000  O
  O68      1.0000 0.64300  0.63140  0.21510  Biso   1.000  O
  O69      1.0000 0.45820  0.71680  0.08430  Biso   1.000  O
  O70      1.0000 0.48840  0.61220  0.15620  Biso   1.000  O
  O71      1.0000 0.36400  0.44810  0.25040  Biso   1.000  O
  O72      1.0000 0.49530  0.49330  0.24130  Biso   1.000  O
  O73      1.0000 0.66820  0.14830  0.24010  Biso   1.000  O
  O74      1.0000 0.64270  0.36680  0.22560  Biso   1.000  O
  O75      1.0000 0.38430  0.86650  0.37080  Biso   1.000  O
  O76      1.0000 0.51930  0.90900  0.37150  Biso   1.000  O
  O77      1.0000 0.69830  0.79750  0.49940  Biso   1.000  O
  O78      1.0000 0.67290  0.91720  0.43090  Biso   1.000  O
  O79      1.0000 0.80280  0.08490  0.34050  Biso   1.000  O
  O80      1.0000 0.67000  0.04500  0.34730  Biso   1.000  O
  O81      1.0000 0.50300  0.39220  0.34850  Biso   1.000  O
  O82      1.0000 0.52410  0.17300  0.36340  Biso   1.000  O
  N13      1.0000 0.62300  0.48880  0.13580  Biso   1.000  N
  N14      1.0000 0.49990  0.33460  0.16780  Biso   1.000  N
  N15      1.0000 0.54030  0.04430  0.45260  Biso   1.000  N
  N16      1.0000 0.66610  0.19690  0.42280  Biso   1.000  N
  C61      1.0000 0.60360  0.35350  0.11240  Biso   1.000  C
  C62      1.0000 0.51120  0.32360  0.11480  Biso   1.000  C
  C63      1.0000 0.71290  0.51590  0.15630  Biso   1.000  C
  C64      1.0000 0.71410  0.61070  0.19960  Biso   1.000  C
  C65      1.0000 0.58890  0.60100  0.10200  Biso   1.000  C
  C66      1.0000 0.50500  0.64780  0.11320  Biso   1.000  C
  C67      1.0000 0.41240  0.36420  0.17750  Biso   1.000  C
  C68      1.0000 0.42150  0.43850  0.22660  Biso   1.000  C
  C69      1.0000 0.53490  0.21350  0.19630  Biso   1.000  C
  C70      1.0000 0.62220  0.24020  0.22260  Biso   1.000  C
  C71      1.0000 0.56020  0.17920  0.47680  Biso   1.000  C
  C72      1.0000 0.65380  0.20500  0.47540  Biso   1.000  C
  C73      1.0000 0.45080  0.02080  0.43180  Biso   1.000  C
  C74      1.0000 0.44950  0.92530  0.38820  Biso   1.000  C
  C75      1.0000 0.57320  0.93110  0.48550  Biso   1.000  C
  C76      1.0000 0.65410  0.87690  0.47220  Biso   1.000  C
  C77      1.0000 0.75260  0.16490  0.41360  Biso   1.000  C
  C78      1.0000 0.74360  0.09500  0.36320  Biso   1.000  C
  C79      1.0000 0.63400  0.32160  0.39540  Biso   1.000  C
  C80      1.0000 0.54700  0.29890  0.36700  Biso   1.000  C
  Cl4      1.0000 0.68270  0.97710  0.12390  Biso   1.000  Cl
  O83      1.0000 0.68970  0.90750  0.16880  Biso   1.000  O
  O84      1.0000 0.60370  0.03870  0.11090  Biso   1.000  O
  O85      1.0000 0.69610  0.88220  0.08620  Biso   1.000  O
  O86      1.0000 0.74630  0.08310  0.12770  Biso   1.000  O
  O87      1.0000 0.64030  0.68050  0.33360  Biso   1.000  O
  O88      1.0000 0.52630  0.86130  0.25660  Biso   1.000  O
