data_MIFQOJ_clean
_audit_creation_date              2014-07-02
_audit_creation_method            'Materials Studio'
_symmetry_space_group_name_H-M    'P1'
_symmetry_Int_Tables_number       1
_symmetry_cell_setting            triclinic
loop_
_symmetry_equiv_pos_as_xyz
  x,y,z
_cell_length_a                    14.1070
_cell_length_b                    17.2750
_cell_length_c                    17.2750
_cell_angle_alpha                 120.0000
_cell_angle_beta                  90.0000
_cell_angle_gamma                 90.0000
loop_
_atom_site_label
_atom_site_type_symbol
_atom_site_fract_x
_atom_site_fract_y
_atom_site_fract_z
_atom_site_U_iso_or_equiv
_atom_site_adp_type
_atom_site_occupancy
Mn1    Mn    0.89616   0.33333   0.66666   0.01267  Uiso   1.00
Mn2    Mn    0.60384   0.33333   0.66666   0.01267  Uiso   1.00
Mn3    Mn    0.10384   0.66667   0.33334   0.01267  Uiso   1.00
Mn4    Mn    0.39616   0.66667   0.33334   0.01267  Uiso   1.00
H1     H     0.61540   0.06470   0.57090   0.01267  Uiso   1.00
H2     H     0.59140   0.78540   0.36830   0.01267  Uiso   1.00
H3     H     0.35290   0.78490   0.56120   0.01267  Uiso   1.00
H4     H     0.33720   0.90400   0.70520   0.01267  Uiso   1.00
H5     H     0.44520   0.02020   0.76250   0.01267  Uiso   1.00
H6     H     0.56420   0.02710   0.67450   0.01267  Uiso   1.00
H7     H     0.61540   0.50620   0.93530   0.01267  Uiso   1.00
H8     H     0.59140   0.58290   0.21460   0.01267  Uiso   1.00
H9     H     0.35290   0.77630   0.21510   0.01267  Uiso   1.00
H10    H     0.33720   0.80120   0.09600   0.01267  Uiso   1.00
H11    H     0.44520   0.74230   0.97980   0.01267  Uiso   1.00
H12    H     0.56420   0.64740   0.97290   0.01267  Uiso   1.00
H13    H     0.61540   0.42910   0.49380   0.01267  Uiso   1.00
H14    H     0.59140   0.63170   0.41710   0.01267  Uiso   1.00
H15    H     0.35290   0.43880   0.22370   0.01267  Uiso   1.00
H16    H     0.33720   0.29480   0.19880   0.01267  Uiso   1.00
H17    H     0.44520   0.23750   0.25770   0.01267  Uiso   1.00
H18    H     0.56420   0.32550   0.35260   0.01267  Uiso   1.00
H19    H     0.88460   0.50620   0.57090   0.01267  Uiso   1.00
H20    H     0.90860   0.58290   0.36830   0.01267  Uiso   1.00
H21    H     0.14710   0.77630   0.56120   0.01267  Uiso   1.00
H22    H     0.16280   0.80120   0.70520   0.01267  Uiso   1.00
H23    H     0.05480   0.74230   0.76250   0.01267  Uiso   1.00
H24    H     0.93580   0.64740   0.67450   0.01267  Uiso   1.00
H25    H     0.88460   0.42910   0.93530   0.01267  Uiso   1.00
H26    H     0.90860   0.63170   0.21460   0.01267  Uiso   1.00
H27    H     0.14710   0.43880   0.21510   0.01267  Uiso   1.00
H28    H     0.16280   0.29480   0.09600   0.01267  Uiso   1.00
H29    H     0.05480   0.23750   0.97980   0.01267  Uiso   1.00
H30    H     0.93580   0.32550   0.97290   0.01267  Uiso   1.00
H31    H     0.88460   0.06470   0.49380   0.01267  Uiso   1.00
H32    H     0.90860   0.78540   0.41710   0.01267  Uiso   1.00
H33    H     0.14710   0.78490   0.22370   0.01267  Uiso   1.00
H34    H     0.16280   0.90400   0.19880   0.01267  Uiso   1.00
H35    H     0.05480   0.02020   0.25770   0.01267  Uiso   1.00
H36    H     0.93580   0.02710   0.35260   0.01267  Uiso   1.00
H37    H     0.38460   0.93530   0.42910   0.01267  Uiso   1.00
H38    H     0.40860   0.21460   0.63170   0.01267  Uiso   1.00
H39    H     0.64710   0.21510   0.43880   0.01267  Uiso   1.00
H40    H     0.66280   0.09600   0.29480   0.01267  Uiso   1.00
H41    H     0.55480   0.97980   0.23750   0.01267  Uiso   1.00
H42    H     0.43580   0.97290   0.32550   0.01267  Uiso   1.00
H43    H     0.38460   0.49380   0.06470   0.01267  Uiso   1.00
H44    H     0.40860   0.41710   0.78540   0.01267  Uiso   1.00
H45    H     0.64710   0.22370   0.78490   0.01267  Uiso   1.00
H46    H     0.66280   0.19880   0.90400   0.01267  Uiso   1.00
H47    H     0.55480   0.25770   0.02020   0.01267  Uiso   1.00
H48    H     0.43580   0.35260   0.02710   0.01267  Uiso   1.00
H49    H     0.38460   0.57090   0.50620   0.01267  Uiso   1.00
H50    H     0.40860   0.36830   0.58290   0.01267  Uiso   1.00
H51    H     0.64710   0.56120   0.77630   0.01267  Uiso   1.00
H52    H     0.66280   0.70520   0.80120   0.01267  Uiso   1.00
H53    H     0.55480   0.76250   0.74230   0.01267  Uiso   1.00
H54    H     0.43580   0.67450   0.64740   0.01267  Uiso   1.00
H55    H     0.11540   0.49380   0.42910   0.01267  Uiso   1.00
H56    H     0.09140   0.41710   0.63170   0.01267  Uiso   1.00
H57    H     0.85290   0.22370   0.43880   0.01267  Uiso   1.00
H58    H     0.83720   0.19880   0.29480   0.01267  Uiso   1.00
H59    H     0.94520   0.25770   0.23750   0.01267  Uiso   1.00
H60    H     0.06420   0.35260   0.32550   0.01267  Uiso   1.00
H61    H     0.11540   0.57090   0.06470   0.01267  Uiso   1.00
H62    H     0.09140   0.36830   0.78540   0.01267  Uiso   1.00
H63    H     0.85290   0.56120   0.78490   0.01267  Uiso   1.00
H64    H     0.83720   0.70520   0.90400   0.01267  Uiso   1.00
H65    H     0.94520   0.76250   0.02020   0.01267  Uiso   1.00
H66    H     0.06420   0.67450   0.02710   0.01267  Uiso   1.00
H67    H     0.11540   0.93530   0.50620   0.01267  Uiso   1.00
H68    H     0.09140   0.21460   0.58290   0.01267  Uiso   1.00
H69    H     0.85290   0.21510   0.77630   0.01267  Uiso   1.00
H70    H     0.83720   0.09600   0.80120   0.01267  Uiso   1.00
H71    H     0.94520   0.97980   0.74230   0.01267  Uiso   1.00
H72    H     0.06420   0.97290   0.64740   0.01267  Uiso   1.00
H73    H     0.75000   0.83240   0.41620   0.01267  Uiso   1.00
H74    H     0.75000   0.58380   0.16760   0.01267  Uiso   1.00
H75    H     0.75000   0.58380   0.41620   0.01267  Uiso   1.00
H76    H     0.25000   0.16760   0.58380   0.01267  Uiso   1.00
H77    H     0.25000   0.41620   0.83240   0.01267  Uiso   1.00
H78    H     0.25000   0.41620   0.58380   0.01267  Uiso   1.00
C1     C     0.66953   0.03378   0.54029   0.01267  Uiso   1.00
C2     C     0.67082   0.94124   0.49448   0.01267  Uiso   1.00
C3     C     0.56160   0.81180   0.42372   0.01267  Uiso   1.00
C4     C     0.46543   0.83659   0.53018   0.01267  Uiso   1.00
C5     C     0.39430   0.83330   0.58310   0.01267  Uiso   1.00
C6     C     0.38630   0.90360   0.66900   0.01267  Uiso   1.00
C7     C     0.45090   0.97490   0.70330   0.01267  Uiso   1.00
C8     C     0.52200   0.97940   0.65190   0.01267  Uiso   1.00
C9     C     0.52820   0.90959   0.56452   0.01267  Uiso   1.00
C10    C     0.66953   0.50651   0.96622   0.01267  Uiso   1.00
C11    C     0.67082   0.55324   0.05876   0.01267  Uiso   1.00
C12    C     0.56160   0.61192   0.18820   0.01267  Uiso   1.00
C13    C     0.46543   0.69359   0.16341   0.01267  Uiso   1.00
C14    C     0.39430   0.74980   0.16670   0.01267  Uiso   1.00
C15    C     0.38630   0.76540   0.09640   0.01267  Uiso   1.00
C16    C     0.45090   0.72840   0.02510   0.01267  Uiso   1.00
C17    C     0.52200   0.67250   0.02060   0.01267  Uiso   1.00
C18    C     0.52820   0.65493   0.09041   0.01267  Uiso   1.00
C19    C     0.66953   0.45971   0.49349   0.01267  Uiso   1.00
C20    C     0.67082   0.50552   0.44676   0.01267  Uiso   1.00
C21    C     0.56160   0.57628   0.38808   0.01267  Uiso   1.00
C22    C     0.46543   0.46982   0.30641   0.01267  Uiso   1.00
C23    C     0.39430   0.41690   0.25020   0.01267  Uiso   1.00
C24    C     0.38630   0.33100   0.23460   0.01267  Uiso   1.00
C25    C     0.45090   0.29670   0.27160   0.01267  Uiso   1.00
C26    C     0.52200   0.34810   0.32750   0.01267  Uiso   1.00
C27    C     0.52820   0.43548   0.34507   0.01267  Uiso   1.00
C28    C     0.83047   0.50651   0.54029   0.01267  Uiso   1.00
C29    C     0.82918   0.55324   0.49448   0.01267  Uiso   1.00
C30    C     0.93840   0.61192   0.42372   0.01267  Uiso   1.00
C31    C     0.03457   0.69359   0.53018   0.01267  Uiso   1.00
C32    C     0.10570   0.74980   0.58310   0.01267  Uiso   1.00
C33    C     0.11370   0.76540   0.66900   0.01267  Uiso   1.00
C34    C     0.04910   0.72840   0.70330   0.01267  Uiso   1.00
C35    C     0.97800   0.67250   0.65190   0.01267  Uiso   1.00
C36    C     0.97180   0.65493   0.56452   0.01267  Uiso   1.00
C37    C     0.83047   0.45971   0.96622   0.01267  Uiso   1.00
C38    C     0.82918   0.50552   0.05876   0.01267  Uiso   1.00
C39    C     0.93840   0.57628   0.18820   0.01267  Uiso   1.00
C40    C     0.03457   0.46982   0.16341   0.01267  Uiso   1.00
C41    C     0.10570   0.41690   0.16670   0.01267  Uiso   1.00
C42    C     0.11370   0.33100   0.09640   0.01267  Uiso   1.00
C43    C     0.04910   0.29670   0.02510   0.01267  Uiso   1.00
C44    C     0.97800   0.34810   0.02060   0.01267  Uiso   1.00
C45    C     0.97180   0.43548   0.09041   0.01267  Uiso   1.00
C46    C     0.83047   0.03378   0.49349   0.01267  Uiso   1.00
C47    C     0.82918   0.94124   0.44676   0.01267  Uiso   1.00
C48    C     0.93840   0.81180   0.38808   0.01267  Uiso   1.00
C49    C     0.03457   0.83659   0.30641   0.01267  Uiso   1.00
C50    C     0.10570   0.83330   0.25020   0.01267  Uiso   1.00
C51    C     0.11370   0.90360   0.23460   0.01267  Uiso   1.00
C52    C     0.04910   0.97490   0.27160   0.01267  Uiso   1.00
C53    C     0.97800   0.97940   0.32750   0.01267  Uiso   1.00
C54    C     0.97180   0.90959   0.34507   0.01267  Uiso   1.00
C55    C     0.33047   0.96622   0.45971   0.01267  Uiso   1.00
C56    C     0.32918   0.05876   0.50552   0.01267  Uiso   1.00
C57    C     0.43840   0.18820   0.57628   0.01267  Uiso   1.00
C58    C     0.53457   0.16341   0.46982   0.01267  Uiso   1.00
C59    C     0.60570   0.16670   0.41690   0.01267  Uiso   1.00
C60    C     0.61370   0.09640   0.33100   0.01267  Uiso   1.00
C61    C     0.54910   0.02510   0.29670   0.01267  Uiso   1.00
C62    C     0.47800   0.02060   0.34810   0.01267  Uiso   1.00
C63    C     0.47180   0.09041   0.43548   0.01267  Uiso   1.00
C64    C     0.33047   0.49349   0.03378   0.01267  Uiso   1.00
C65    C     0.32918   0.44676   0.94124   0.01267  Uiso   1.00
C66    C     0.43840   0.38808   0.81180   0.01267  Uiso   1.00
C67    C     0.53457   0.30641   0.83659   0.01267  Uiso   1.00
C68    C     0.60570   0.25020   0.83330   0.01267  Uiso   1.00
C69    C     0.61370   0.23460   0.90360   0.01267  Uiso   1.00
C70    C     0.54910   0.27160   0.97490   0.01267  Uiso   1.00
C71    C     0.47800   0.32750   0.97940   0.01267  Uiso   1.00
C72    C     0.47180   0.34507   0.90959   0.01267  Uiso   1.00
C73    C     0.33047   0.54029   0.50651   0.01267  Uiso   1.00
C74    C     0.32918   0.49448   0.55324   0.01267  Uiso   1.00
C75    C     0.43840   0.42372   0.61192   0.01267  Uiso   1.00
C76    C     0.53457   0.53018   0.69359   0.01267  Uiso   1.00
C77    C     0.60570   0.58310   0.74980   0.01267  Uiso   1.00
C78    C     0.61370   0.66900   0.76540   0.01267  Uiso   1.00
C79    C     0.54910   0.70330   0.72840   0.01267  Uiso   1.00
C80    C     0.47800   0.65190   0.67250   0.01267  Uiso   1.00
C81    C     0.47180   0.56452   0.65493   0.01267  Uiso   1.00
C82    C     0.16953   0.49349   0.45971   0.01267  Uiso   1.00
C83    C     0.17082   0.44676   0.50552   0.01267  Uiso   1.00
C84    C     0.06160   0.38808   0.57628   0.01267  Uiso   1.00
C85    C     0.96543   0.30641   0.46982   0.01267  Uiso   1.00
C86    C     0.89430   0.25020   0.41690   0.01267  Uiso   1.00
C87    C     0.88630   0.23460   0.33100   0.01267  Uiso   1.00
C88    C     0.95090   0.27160   0.29670   0.01267  Uiso   1.00
C89    C     0.02200   0.32750   0.34810   0.01267  Uiso   1.00
C90    C     0.02820   0.34507   0.43548   0.01267  Uiso   1.00
C91    C     0.16953   0.54029   0.03378   0.01267  Uiso   1.00
C92    C     0.17082   0.49448   0.94124   0.01267  Uiso   1.00
C93    C     0.06160   0.42372   0.81180   0.01267  Uiso   1.00
C94    C     0.96543   0.53018   0.83659   0.01267  Uiso   1.00
C95    C     0.89430   0.58310   0.83330   0.01267  Uiso   1.00
C96    C     0.88630   0.66900   0.90360   0.01267  Uiso   1.00
C97    C     0.95090   0.70330   0.97490   0.01267  Uiso   1.00
C98    C     0.02200   0.65190   0.97940   0.01267  Uiso   1.00
C99    C     0.02820   0.56452   0.90959   0.01267  Uiso   1.00
C100   C     0.16953   0.96622   0.50651   0.01267  Uiso   1.00
C101   C     0.17082   0.05876   0.55324   0.01267  Uiso   1.00
C102   C     0.06160   0.18820   0.61192   0.01267  Uiso   1.00
C103   C     0.96543   0.16341   0.69359   0.01267  Uiso   1.00
C104   C     0.89430   0.16670   0.74980   0.01267  Uiso   1.00
C105   C     0.88630   0.09640   0.76540   0.01267  Uiso   1.00
C106   C     0.95090   0.02510   0.72840   0.01267  Uiso   1.00
C107   C     0.02200   0.02060   0.67250   0.01267  Uiso   1.00
C108   C     0.02820   0.09041   0.65493   0.01267  Uiso   1.00
C109   C     0.75000   0.18000   0.59000   0.01267  Uiso   1.00
C110   C     0.75000   0.07990   0.53995   0.01267  Uiso   1.00
C111   C     0.75000   0.89460   0.44730   0.01267  Uiso   1.00
C112   C     0.75000   0.41000   0.82000   0.01267  Uiso   1.00
C113   C     0.75000   0.46005   0.92010   0.01267  Uiso   1.00
C114   C     0.75000   0.55270   0.10540   0.01267  Uiso   1.00
C115   C     0.75000   0.41000   0.59000   0.01267  Uiso   1.00
C116   C     0.75000   0.46005   0.53995   0.01267  Uiso   1.00
C117   C     0.75000   0.55270   0.44730   0.01267  Uiso   1.00
C118   C     0.25000   0.82000   0.41000   0.01267  Uiso   1.00
C119   C     0.25000   0.92010   0.46005   0.01267  Uiso   1.00
C120   C     0.25000   0.10540   0.55270   0.01267  Uiso   1.00
C121   C     0.25000   0.59000   0.18000   0.01267  Uiso   1.00
C122   C     0.25000   0.53995   0.07990   0.01267  Uiso   1.00
C123   C     0.25000   0.44730   0.89460   0.01267  Uiso   1.00
C124   C     0.25000   0.59000   0.41000   0.01267  Uiso   1.00
C125   C     0.25000   0.53995   0.46005   0.01267  Uiso   1.00
C126   C     0.25000   0.44730   0.55270   0.01267  Uiso   1.00
N1     N     0.58962   0.89170   0.49425   0.01267  Uiso   1.00
N2     N     0.48872   0.77557   0.44128   0.01267  Uiso   1.00
N3     N     0.58962   0.60255   0.10830   0.01267  Uiso   1.00
N4     N     0.48872   0.66571   0.22443   0.01267  Uiso   1.00
N5     N     0.58962   0.50575   0.39745   0.01267  Uiso   1.00
N6     N     0.48872   0.55872   0.33429   0.01267  Uiso   1.00
N7     N     0.91038   0.60255   0.49425   0.01267  Uiso   1.00
N8     N     0.01128   0.66571   0.44128   0.01267  Uiso   1.00
N9     N     0.91038   0.50575   0.10830   0.01267  Uiso   1.00
N10    N     0.01128   0.55872   0.22443   0.01267  Uiso   1.00
N11    N     0.91038   0.89170   0.39745   0.01267  Uiso   1.00
N12    N     0.01128   0.77557   0.33429   0.01267  Uiso   1.00
N13    N     0.41038   0.10830   0.50575   0.01267  Uiso   1.00
N14    N     0.51128   0.22443   0.55872   0.01267  Uiso   1.00
N15    N     0.41038   0.39745   0.89170   0.01267  Uiso   1.00
N16    N     0.51128   0.33429   0.77557   0.01267  Uiso   1.00
N17    N     0.41038   0.49425   0.60255   0.01267  Uiso   1.00
N18    N     0.51128   0.44128   0.66571   0.01267  Uiso   1.00
N19    N     0.08962   0.39745   0.50575   0.01267  Uiso   1.00
N20    N     0.98872   0.33429   0.55872   0.01267  Uiso   1.00
N21    N     0.08962   0.49425   0.89170   0.01267  Uiso   1.00
N22    N     0.98872   0.44128   0.77557   0.01267  Uiso   1.00
N23    N     0.08962   0.10830   0.60255   0.01267  Uiso   1.00
N24    N     0.98872   0.22443   0.66571   0.01267  Uiso   1.00
O1     O     0.81787   0.21800   0.57493   0.01267  Uiso   1.00
O2     O     0.81787   0.35693   0.78200   0.01267  Uiso   1.00
O3     O     0.81787   0.42507   0.64307   0.01267  Uiso   1.00
O4     O     0.68213   0.35693   0.57493   0.01267  Uiso   1.00
O5     O     0.68213   0.42507   0.78200   0.01267  Uiso   1.00
O6     O     0.68213   0.21800   0.64307   0.01267  Uiso   1.00
O7     O     0.18213   0.78200   0.42507   0.01267  Uiso   1.00
O8     O     0.18213   0.64307   0.21800   0.01267  Uiso   1.00
O9     O     0.18213   0.57493   0.35693   0.01267  Uiso   1.00
O10    O     0.31787   0.64307   0.42507   0.01267  Uiso   1.00
O11    O     0.31787   0.57493   0.21800   0.01267  Uiso   1.00
O12    O     0.31787   0.78200   0.35693   0.01267  Uiso   1.00
