data_MIHBAG_clean
_audit_creation_date              2014-07-02
_audit_creation_method            'Materials Studio'
_symmetry_space_group_name_H-M    'P1'
_symmetry_Int_Tables_number       1
_symmetry_cell_setting            triclinic
loop_
_symmetry_equiv_pos_as_xyz
  x,y,z
_cell_length_a                    11.7056
_cell_length_b                    12.3216
_cell_length_c                    12.7812
_cell_angle_alpha                 90.0000
_cell_angle_beta                  98.1540
_cell_angle_gamma                 90.0000
loop_
_atom_site_label
_atom_site_type_symbol
_atom_site_fract_x
_atom_site_fract_y
_atom_site_fract_z
_atom_site_U_iso_or_equiv
_atom_site_adp_type
_atom_site_occupancy
Mn1    Mn    0.35960   0.87620   0.33510   0.01267  Uiso   1.00
Mn2    Mn    0.64040   0.37620   0.16490   0.01267  Uiso   1.00
Mn3    Mn    0.64040   0.12380   0.66490   0.01267  Uiso   1.00
Mn4    Mn    0.35960   0.62380   0.83510   0.01267  Uiso   1.00
Mn5    Mn    0.50000   0.50000   0.50000   0.01267  Uiso   1.00
Mn6    Mn    0.50000   0.00000   0.00000   0.01267  Uiso   1.00
H1     H     0.40750   0.66360   0.27650   0.01267  Uiso   1.00
H2     H     0.42040   0.79220   0.14720   0.01267  Uiso   1.00
H3     H     0.56090   0.00150   0.36890   0.01267  Uiso   1.00
H4     H     0.54730   0.87420   0.49770   0.01267  Uiso   1.00
H5     H     0.27800   0.64780   0.45970   0.01267  Uiso   1.00
H6     H     0.08290   0.65480   0.45630   0.01267  Uiso   1.00
H7     H     0.09320   0.34430   0.54350   0.01267  Uiso   1.00
H8     H     0.28770   0.34820   0.54410   0.01267  Uiso   1.00
H9     H     0.59250   0.16360   0.22350   0.01267  Uiso   1.00
H10    H     0.57960   0.29220   0.35280   0.01267  Uiso   1.00
H11    H     0.43910   0.50150   0.13110   0.01267  Uiso   1.00
H12    H     0.45270   0.37420   0.00230   0.01267  Uiso   1.00
H13    H     0.72200   0.14780   0.04030   0.01267  Uiso   1.00
H14    H     0.91710   0.15480   0.04370   0.01267  Uiso   1.00
H15    H     0.90680   0.84430   0.95650   0.01267  Uiso   1.00
H16    H     0.71230   0.84820   0.95590   0.01267  Uiso   1.00
H17    H     0.59250   0.33640   0.72350   0.01267  Uiso   1.00
H18    H     0.57960   0.20780   0.85280   0.01267  Uiso   1.00
H19    H     0.43910   0.99850   0.63110   0.01267  Uiso   1.00
H20    H     0.45270   0.12580   0.50230   0.01267  Uiso   1.00
H21    H     0.72200   0.35220   0.54030   0.01267  Uiso   1.00
H22    H     0.91710   0.34520   0.54370   0.01267  Uiso   1.00
H23    H     0.90680   0.65570   0.45650   0.01267  Uiso   1.00
H24    H     0.71230   0.65180   0.45590   0.01267  Uiso   1.00
H25    H     0.40750   0.83640   0.77650   0.01267  Uiso   1.00
H26    H     0.42040   0.70780   0.64720   0.01267  Uiso   1.00
H27    H     0.56090   0.49850   0.86890   0.01267  Uiso   1.00
H28    H     0.54730   0.62580   0.99770   0.01267  Uiso   1.00
H29    H     0.27800   0.85220   0.95970   0.01267  Uiso   1.00
H30    H     0.08290   0.84520   0.95630   0.01267  Uiso   1.00
H31    H     0.09320   0.15570   0.04350   0.01267  Uiso   1.00
H32    H     0.28770   0.15180   0.04410   0.01267  Uiso   1.00
C1     C     0.49330   0.74390   0.40240   0.01267  Uiso   1.00
C2     C     0.44600   0.72820   0.29550   0.01267  Uiso   1.00
C3     C     0.45460   0.80680   0.21600   0.01267  Uiso   1.00
C4     C     0.51350   0.90710   0.23740   0.01267  Uiso   1.00
C5     C     0.53820   0.93140   0.34850   0.01267  Uiso   1.00
C6     C     0.52930   0.85400   0.42710   0.01267  Uiso   1.00
C7     C     0.30050   0.87110   0.45680   0.01267  Uiso   1.00
C8     C     0.22800   0.82480   0.26250   0.01267  Uiso   1.00
C9     C     0.31590   0.01470   0.30910   0.01267  Uiso   1.00
C10    C     0.24020   0.58530   0.47710   0.01267  Uiso   1.00
C11    C     0.12240   0.59070   0.47490   0.01267  Uiso   1.00
C12    C     0.06390   0.49970   0.50060   0.01267  Uiso   1.00
C13    C     0.12850   0.40810   0.52620   0.01267  Uiso   1.00
C14    C     0.24590   0.41130   0.52610   0.01267  Uiso   1.00
C15    C     0.50670   0.24390   0.09760   0.01267  Uiso   1.00
C16    C     0.55400   0.22820   0.20450   0.01267  Uiso   1.00
C17    C     0.54540   0.30680   0.28400   0.01267  Uiso   1.00
C18    C     0.48650   0.40710   0.26260   0.01267  Uiso   1.00
C19    C     0.46180   0.43140   0.15150   0.01267  Uiso   1.00
C20    C     0.47070   0.35400   0.07290   0.01267  Uiso   1.00
C21    C     0.69950   0.37110   0.04320   0.01267  Uiso   1.00
C22    C     0.77200   0.32480   0.23750   0.01267  Uiso   1.00
C23    C     0.68410   0.51470   0.19090   0.01267  Uiso   1.00
C24    C     0.75980   0.08530   0.02290   0.01267  Uiso   1.00
C25    C     0.87760   0.09070   0.02510   0.01267  Uiso   1.00
C26    C     0.93610   0.99970   0.99940   0.01267  Uiso   1.00
C27    C     0.87150   0.90810   0.97380   0.01267  Uiso   1.00
C28    C     0.75410   0.91130   0.97390   0.01267  Uiso   1.00
C29    C     0.50670   0.25610   0.59760   0.01267  Uiso   1.00
C30    C     0.55400   0.27180   0.70450   0.01267  Uiso   1.00
C31    C     0.54540   0.19320   0.78400   0.01267  Uiso   1.00
C32    C     0.48650   0.09290   0.76260   0.01267  Uiso   1.00
C33    C     0.46180   0.06860   0.65150   0.01267  Uiso   1.00
C34    C     0.47070   0.14600   0.57290   0.01267  Uiso   1.00
C35    C     0.69950   0.12890   0.54320   0.01267  Uiso   1.00
C36    C     0.77200   0.17520   0.73750   0.01267  Uiso   1.00
C37    C     0.68410   0.98530   0.69090   0.01267  Uiso   1.00
C38    C     0.75980   0.41470   0.52290   0.01267  Uiso   1.00
C39    C     0.87760   0.40930   0.52510   0.01267  Uiso   1.00
C40    C     0.93610   0.50030   0.49940   0.01267  Uiso   1.00
C41    C     0.87150   0.59190   0.47380   0.01267  Uiso   1.00
C42    C     0.75410   0.58870   0.47390   0.01267  Uiso   1.00
C43    C     0.49330   0.75610   0.90240   0.01267  Uiso   1.00
C44    C     0.44600   0.77180   0.79550   0.01267  Uiso   1.00
C45    C     0.45460   0.69320   0.71600   0.01267  Uiso   1.00
C46    C     0.51350   0.59290   0.73740   0.01267  Uiso   1.00
C47    C     0.53820   0.56860   0.84850   0.01267  Uiso   1.00
C48    C     0.52930   0.64600   0.92710   0.01267  Uiso   1.00
C49    C     0.30050   0.62890   0.95680   0.01267  Uiso   1.00
C50    C     0.22800   0.67520   0.76250   0.01267  Uiso   1.00
C51    C     0.31590   0.48530   0.80910   0.01267  Uiso   1.00
C52    C     0.24020   0.91470   0.97710   0.01267  Uiso   1.00
C53    C     0.12240   0.90930   0.97490   0.01267  Uiso   1.00
C54    C     0.06390   0.00030   0.00060   0.01267  Uiso   1.00
C55    C     0.12850   0.09190   0.02620   0.01267  Uiso   1.00
C56    C     0.24590   0.08870   0.02610   0.01267  Uiso   1.00
N1     N     0.30350   0.49810   0.50210   0.01267  Uiso   1.00
N2     N     0.69650   0.99810   0.99790   0.01267  Uiso   1.00
N3     N     0.69650   0.50190   0.49790   0.01267  Uiso   1.00
N4     N     0.30350   0.00190   0.00210   0.01267  Uiso   1.00
O1     O     0.49550   0.67310   0.47550   0.01267  Uiso   1.00
O2     O     0.53560   0.97560   0.16840   0.01267  Uiso   1.00
O3     O     0.26710   0.86580   0.53660   0.01267  Uiso   1.00
O4     O     0.14690   0.78920   0.21560   0.01267  Uiso   1.00
O5     O     0.28990   0.10300   0.29330   0.01267  Uiso   1.00
O6     O     0.50450   0.17310   0.02450   0.01267  Uiso   1.00
O7     O     0.46440   0.47560   0.33160   0.01267  Uiso   1.00
O8     O     0.73290   0.36580   0.96340   0.01267  Uiso   1.00
O9     O     0.85310   0.28920   0.28440   0.01267  Uiso   1.00
O10    O     0.71010   0.60300   0.20670   0.01267  Uiso   1.00
O11    O     0.50450   0.32690   0.52450   0.01267  Uiso   1.00
O12    O     0.46440   0.02440   0.83160   0.01267  Uiso   1.00
O13    O     0.73290   0.13420   0.46340   0.01267  Uiso   1.00
O14    O     0.85310   0.21080   0.78440   0.01267  Uiso   1.00
O15    O     0.71010   0.89700   0.70670   0.01267  Uiso   1.00
O16    O     0.49550   0.82690   0.97550   0.01267  Uiso   1.00
O17    O     0.53560   0.52440   0.66840   0.01267  Uiso   1.00
O18    O     0.26710   0.63420   0.03660   0.01267  Uiso   1.00
O19    O     0.14690   0.71080   0.71560   0.01267  Uiso   1.00
O20    O     0.28990   0.39700   0.79330   0.01267  Uiso   1.00
