data_MIHLAR_clean
_audit_creation_date              2014-07-02
_audit_creation_method            'Materials Studio'
_symmetry_space_group_name_H-M    'P1'
_symmetry_Int_Tables_number       1
_symmetry_cell_setting            triclinic
loop_
_symmetry_equiv_pos_as_xyz
  x,y,z
_cell_length_a                    9.8548
_cell_length_b                    13.8138
_cell_length_c                    33.7925
_cell_angle_alpha                 90.0000
_cell_angle_beta                  90.0000
_cell_angle_gamma                 92.8627
loop_
_atom_site_label
_atom_site_type_symbol
_atom_site_fract_x
_atom_site_fract_y
_atom_site_fract_z
_atom_site_U_iso_or_equiv
_atom_site_adp_type
_atom_site_occupancy
La1    La    0.26408   0.02019   0.75105   0.01267  Uiso   1.00
La2    La    0.23592   0.97981   0.25105   0.01267  Uiso   1.00
La3    La    0.73592   0.97981   0.24895   0.01267  Uiso   1.00
La4    La    0.76408   0.02019   0.74895   0.01267  Uiso   1.00
H1     H     0.28240   0.22800   0.45850   0.01267  Uiso   1.00
H2     H     0.39240   0.23830   0.52450   0.01267  Uiso   1.00
H3     H     0.51240   0.52340   0.62620   0.01267  Uiso   1.00
H4     H     0.51590   0.70130   0.62090   0.01267  Uiso   1.00
H5     H     0.25930   0.94750   0.52870   0.01267  Uiso   1.00
H6     H     0.09370   0.92980   0.47410   0.01267  Uiso   1.00
H7     H     0.92990   0.63660   0.37950   0.01267  Uiso   1.00
H8     H     0.98180   0.46450   0.37440   0.01267  Uiso   1.00
H9     H     0.60740   0.31450   0.55800   0.01267  Uiso   1.00
H10    H     0.68160   0.19550   0.60120   0.01267  Uiso   1.00
H11    H     0.56310   0.15940   0.65930   0.01267  Uiso   1.00
H12    H     0.29540   0.36150   0.63270   0.01267  Uiso   1.00
H13    H     0.54560   0.90190   0.52870   0.01267  Uiso   1.00
H14    H     0.69890   0.00600   0.56230   0.01267  Uiso   1.00
H15    H     0.68510   0.02260   0.63080   0.01267  Uiso   1.00
H16    H     0.34680   0.84430   0.63150   0.01267  Uiso   1.00
H17    H     0.83330   0.83490   0.45960   0.01267  Uiso   1.00
H18    H     0.70650   0.93230   0.41880   0.01267  Uiso   1.00
H19    H     0.77780   0.96920   0.35440   0.01267  Uiso   1.00
H20    H     0.10170   0.80390   0.37030   0.01267  Uiso   1.00
H21    H     0.97480   0.25750   0.44620   0.01267  Uiso   1.00
H22    H     0.90420   0.12320   0.40790   0.01267  Uiso   1.00
H23    H     0.00990   0.09650   0.34730   0.01267  Uiso   1.00
H24    H     0.24660   0.34160   0.36220   0.01267  Uiso   1.00
H25    H     0.21760   0.77200   0.95850   0.01267  Uiso   1.00
H26    H     0.10760   0.76170   0.02450   0.01267  Uiso   1.00
H27    H     0.98760   0.47660   0.12620   0.01267  Uiso   1.00
H28    H     0.98410   0.29870   0.12090   0.01267  Uiso   1.00
H29    H     0.24070   0.05250   0.02870   0.01267  Uiso   1.00
H30    H     0.40630   0.07020   0.97410   0.01267  Uiso   1.00
H31    H     0.57010   0.36340   0.87950   0.01267  Uiso   1.00
H32    H     0.51820   0.53550   0.87440   0.01267  Uiso   1.00
H33    H     0.89260   0.68550   0.05800   0.01267  Uiso   1.00
H34    H     0.81840   0.80450   0.10120   0.01267  Uiso   1.00
H35    H     0.93690   0.84060   0.15930   0.01267  Uiso   1.00
H36    H     0.20460   0.63850   0.13270   0.01267  Uiso   1.00
H37    H     0.95440   0.09810   0.02870   0.01267  Uiso   1.00
H38    H     0.80110   0.99400   0.06230   0.01267  Uiso   1.00
H39    H     0.81490   0.97740   0.13080   0.01267  Uiso   1.00
H40    H     0.15320   0.15570   0.13150   0.01267  Uiso   1.00
H41    H     0.66670   0.16510   0.95960   0.01267  Uiso   1.00
H42    H     0.79350   0.06770   0.91880   0.01267  Uiso   1.00
H43    H     0.72220   0.03080   0.85440   0.01267  Uiso   1.00
H44    H     0.39830   0.19610   0.87030   0.01267  Uiso   1.00
H45    H     0.52520   0.74250   0.94620   0.01267  Uiso   1.00
H46    H     0.59580   0.87680   0.90790   0.01267  Uiso   1.00
H47    H     0.49010   0.90350   0.84730   0.01267  Uiso   1.00
H48    H     0.25340   0.65840   0.86220   0.01267  Uiso   1.00
H49    H     0.71760   0.77200   0.54150   0.01267  Uiso   1.00
H50    H     0.60760   0.76170   0.47550   0.01267  Uiso   1.00
H51    H     0.48760   0.47660   0.37380   0.01267  Uiso   1.00
H52    H     0.48410   0.29870   0.37910   0.01267  Uiso   1.00
H53    H     0.74070   0.05250   0.47130   0.01267  Uiso   1.00
H54    H     0.90630   0.07020   0.52590   0.01267  Uiso   1.00
H55    H     0.07010   0.36340   0.62050   0.01267  Uiso   1.00
H56    H     0.01820   0.53550   0.62560   0.01267  Uiso   1.00
H57    H     0.39260   0.68550   0.44200   0.01267  Uiso   1.00
H58    H     0.31840   0.80450   0.39880   0.01267  Uiso   1.00
H59    H     0.43690   0.84060   0.34070   0.01267  Uiso   1.00
H60    H     0.70460   0.63850   0.36730   0.01267  Uiso   1.00
H61    H     0.45440   0.09810   0.47130   0.01267  Uiso   1.00
H62    H     0.30110   0.99400   0.43770   0.01267  Uiso   1.00
H63    H     0.31490   0.97740   0.36920   0.01267  Uiso   1.00
H64    H     0.65320   0.15570   0.36850   0.01267  Uiso   1.00
H65    H     0.16670   0.16510   0.54040   0.01267  Uiso   1.00
H66    H     0.29350   0.06770   0.58120   0.01267  Uiso   1.00
H67    H     0.22220   0.03080   0.64560   0.01267  Uiso   1.00
H68    H     0.89830   0.19610   0.62970   0.01267  Uiso   1.00
H69    H     0.02520   0.74250   0.55380   0.01267  Uiso   1.00
H70    H     0.09580   0.87680   0.59210   0.01267  Uiso   1.00
H71    H     0.99010   0.90350   0.65270   0.01267  Uiso   1.00
H72    H     0.75340   0.65840   0.63780   0.01267  Uiso   1.00
H73    H     0.78240   0.22800   0.04150   0.01267  Uiso   1.00
H74    H     0.89240   0.23830   0.97550   0.01267  Uiso   1.00
H75    H     0.01240   0.52340   0.87380   0.01267  Uiso   1.00
H76    H     0.01590   0.70130   0.87910   0.01267  Uiso   1.00
H77    H     0.75930   0.94750   0.97130   0.01267  Uiso   1.00
H78    H     0.59370   0.92980   0.02590   0.01267  Uiso   1.00
H79    H     0.42990   0.63660   0.12050   0.01267  Uiso   1.00
H80    H     0.48180   0.46450   0.12560   0.01267  Uiso   1.00
H81    H     0.10740   0.31450   0.94200   0.01267  Uiso   1.00
H82    H     0.18160   0.19550   0.89880   0.01267  Uiso   1.00
H83    H     0.06310   0.15940   0.84070   0.01267  Uiso   1.00
H84    H     0.79540   0.36150   0.86730   0.01267  Uiso   1.00
H85    H     0.04560   0.90190   0.97130   0.01267  Uiso   1.00
H86    H     0.19890   0.00600   0.93770   0.01267  Uiso   1.00
H87    H     0.18510   0.02260   0.86920   0.01267  Uiso   1.00
H88    H     0.84680   0.84430   0.86850   0.01267  Uiso   1.00
H89    H     0.33330   0.83490   0.04040   0.01267  Uiso   1.00
H90    H     0.20650   0.93230   0.08120   0.01267  Uiso   1.00
H91    H     0.27780   0.96920   0.14560   0.01267  Uiso   1.00
H92    H     0.60170   0.80390   0.12970   0.01267  Uiso   1.00
H93    H     0.47480   0.25750   0.05380   0.01267  Uiso   1.00
H94    H     0.40420   0.12320   0.09210   0.01267  Uiso   1.00
H95    H     0.50990   0.09650   0.15270   0.01267  Uiso   1.00
H96    H     0.74660   0.34160   0.13780   0.01267  Uiso   1.00
C1     C     0.23740   0.37750   0.46770   0.01267  Uiso   1.00
C2     C     0.28950   0.28310   0.47532   0.01267  Uiso   1.00
C3     C     0.34990   0.28910   0.51101   0.01267  Uiso   1.00
C4     C     0.33780   0.38720   0.52505   0.01267  Uiso   1.00
C5     C     0.38750   0.42110   0.56157   0.01267  Uiso   1.00
C6     C     0.39590   0.51880   0.57342   0.01267  Uiso   1.00
C7     C     0.47000   0.55910   0.60603   0.01267  Uiso   1.00
C8     C     0.47030   0.65650   0.60349   0.01267  Uiso   1.00
C9     C     0.38880   0.68090   0.56969   0.01267  Uiso   1.00
C10    C     0.36220   0.77410   0.55657   0.01267  Uiso   1.00
C11    C     0.27550   0.79430   0.52508   0.01267  Uiso   1.00
C12    C     0.23080   0.88870   0.51586   0.01267  Uiso   1.00
C13    C     0.14170   0.87940   0.48601   0.01267  Uiso   1.00
C14    C     0.13270   0.77850   0.47550   0.01267  Uiso   1.00
C15    C     0.05810   0.73990   0.44355   0.01267  Uiso   1.00
C16    C     0.05830   0.64340   0.43059   0.01267  Uiso   1.00
C17    C     0.98700   0.60280   0.39680   0.01267  Uiso   1.00
C18    C     0.01540   0.50880   0.39405   0.01267  Uiso   1.00
C19    C     0.10600   0.48690   0.42615   0.01267  Uiso   1.00
C20    C     0.15750   0.39740   0.43458   0.01267  Uiso   1.00
C21    C     0.44070   0.34980   0.59038   0.01267  Uiso   1.00
C22    C     0.55810   0.30000   0.58162   0.01267  Uiso   1.00
C23    C     0.60270   0.22920   0.60743   0.01267  Uiso   1.00
C24    C     0.53230   0.20800   0.64200   0.01267  Uiso   1.00
C25    C     0.41810   0.25640   0.65163   0.01267  Uiso   1.00
C26    C     0.37350   0.32750   0.62590   0.01267  Uiso   1.00
C27    C     0.33490   0.22920   0.68859   0.01267  Uiso   1.00
C28    C     0.43820   0.85530   0.57746   0.01267  Uiso   1.00
C29    C     0.53900   0.90870   0.55661   0.01267  Uiso   1.00
C30    C     0.62910   0.97120   0.57650   0.01267  Uiso   1.00
C31    C     0.61850   0.98350   0.61707   0.01267  Uiso   1.00
C32    C     0.51140   0.93910   0.63747   0.01267  Uiso   1.00
C33    C     0.42090   0.87490   0.61754   0.01267  Uiso   1.00
C34    C     0.49370   0.95920   0.68086   0.01267  Uiso   1.00
C35    C     0.97970   0.80780   0.41903   0.01267  Uiso   1.00
C36    C     0.86250   0.84780   0.43324   0.01267  Uiso   1.00
C37    C     0.78760   0.90670   0.40898   0.01267  Uiso   1.00
C38    C     0.82920   0.92870   0.37076   0.01267  Uiso   1.00
C39    C     0.94700   0.89050   0.35679   0.01267  Uiso   1.00
C40    C     0.02150   0.83020   0.38049   0.01267  Uiso   1.00
C41    C     0.00040   0.91490   0.31609   0.01267  Uiso   1.00
C42    C     0.11610   0.31330   0.40802   0.01267  Uiso   1.00
C43    C     0.01610   0.24760   0.42121   0.01267  Uiso   1.00
C44    C     0.97450   0.16710   0.39870   0.01267  Uiso   1.00
C45    C     0.03710   0.15180   0.36254   0.01267  Uiso   1.00
C46    C     0.13800   0.21530   0.34841   0.01267  Uiso   1.00
C47    C     0.17740   0.29710   0.37155   0.01267  Uiso   1.00
C48    C     0.20550   0.19630   0.30982   0.01267  Uiso   1.00
C49    C     0.26260   0.62250   0.96770   0.01267  Uiso   1.00
C50    C     0.21050   0.71690   0.97532   0.01267  Uiso   1.00
C51    C     0.15010   0.71090   0.01101   0.01267  Uiso   1.00
C52    C     0.16220   0.61280   0.02505   0.01267  Uiso   1.00
C53    C     0.11250   0.57890   0.06157   0.01267  Uiso   1.00
C54    C     0.10410   0.48120   0.07342   0.01267  Uiso   1.00
C55    C     0.03000   0.44090   0.10603   0.01267  Uiso   1.00
C56    C     0.02970   0.34350   0.10349   0.01267  Uiso   1.00
C57    C     0.11120   0.31910   0.06969   0.01267  Uiso   1.00
C58    C     0.13780   0.22590   0.05657   0.01267  Uiso   1.00
C59    C     0.22450   0.20570   0.02508   0.01267  Uiso   1.00
C60    C     0.26920   0.11130   0.01586   0.01267  Uiso   1.00
C61    C     0.35830   0.12060   0.98601   0.01267  Uiso   1.00
C62    C     0.36730   0.22150   0.97550   0.01267  Uiso   1.00
C63    C     0.44190   0.26010   0.94355   0.01267  Uiso   1.00
C64    C     0.44170   0.35660   0.93059   0.01267  Uiso   1.00
C65    C     0.51300   0.39720   0.89680   0.01267  Uiso   1.00
C66    C     0.48460   0.49120   0.89405   0.01267  Uiso   1.00
C67    C     0.39400   0.51310   0.92615   0.01267  Uiso   1.00
C68    C     0.34250   0.60260   0.93458   0.01267  Uiso   1.00
C69    C     0.05930   0.65020   0.09038   0.01267  Uiso   1.00
C70    C     0.94190   0.70000   0.08162   0.01267  Uiso   1.00
C71    C     0.89730   0.77080   0.10743   0.01267  Uiso   1.00
C72    C     0.96770   0.79200   0.14200   0.01267  Uiso   1.00
C73    C     0.08190   0.74360   0.15163   0.01267  Uiso   1.00
C74    C     0.12650   0.67250   0.12590   0.01267  Uiso   1.00
C75    C     0.16510   0.77080   0.18859   0.01267  Uiso   1.00
C76    C     0.06180   0.14470   0.07746   0.01267  Uiso   1.00
C77    C     0.96100   0.09130   0.05661   0.01267  Uiso   1.00
C78    C     0.87090   0.02880   0.07650   0.01267  Uiso   1.00
C79    C     0.88150   0.01650   0.11707   0.01267  Uiso   1.00
C80    C     0.98860   0.06090   0.13747   0.01267  Uiso   1.00
C81    C     0.07910   0.12510   0.11754   0.01267  Uiso   1.00
C82    C     0.00630   0.04080   0.18086   0.01267  Uiso   1.00
C83    C     0.52030   0.19220   0.91903   0.01267  Uiso   1.00
C84    C     0.63750   0.15220   0.93324   0.01267  Uiso   1.00
C85    C     0.71240   0.09330   0.90898   0.01267  Uiso   1.00
C86    C     0.67080   0.07130   0.87076   0.01267  Uiso   1.00
C87    C     0.55300   0.10950   0.85679   0.01267  Uiso   1.00
C88    C     0.47850   0.16980   0.88049   0.01267  Uiso   1.00
C89    C     0.49960   0.08510   0.81609   0.01267  Uiso   1.00
C90    C     0.38390   0.68670   0.90802   0.01267  Uiso   1.00
C91    C     0.48390   0.75240   0.92121   0.01267  Uiso   1.00
C92    C     0.52550   0.83290   0.89870   0.01267  Uiso   1.00
C93    C     0.46290   0.84820   0.86254   0.01267  Uiso   1.00
C94    C     0.36200   0.78470   0.84841   0.01267  Uiso   1.00
C95    C     0.32260   0.70290   0.87155   0.01267  Uiso   1.00
C96    C     0.29450   0.80370   0.80982   0.01267  Uiso   1.00
C97    C     0.76260   0.62250   0.53230   0.01267  Uiso   1.00
C98    C     0.71050   0.71690   0.52468   0.01267  Uiso   1.00
C99    C     0.65010   0.71090   0.48899   0.01267  Uiso   1.00
C100   C     0.66220   0.61280   0.47495   0.01267  Uiso   1.00
C101   C     0.61250   0.57890   0.43843   0.01267  Uiso   1.00
C102   C     0.60410   0.48120   0.42658   0.01267  Uiso   1.00
C103   C     0.53000   0.44090   0.39397   0.01267  Uiso   1.00
C104   C     0.52970   0.34350   0.39651   0.01267  Uiso   1.00
C105   C     0.61120   0.31910   0.43031   0.01267  Uiso   1.00
C106   C     0.63780   0.22590   0.44343   0.01267  Uiso   1.00
C107   C     0.72450   0.20570   0.47492   0.01267  Uiso   1.00
C108   C     0.76920   0.11130   0.48414   0.01267  Uiso   1.00
C109   C     0.85830   0.12060   0.51399   0.01267  Uiso   1.00
C110   C     0.86730   0.22150   0.52450   0.01267  Uiso   1.00
C111   C     0.94190   0.26010   0.55645   0.01267  Uiso   1.00
C112   C     0.94170   0.35660   0.56941   0.01267  Uiso   1.00
C113   C     0.01300   0.39720   0.60320   0.01267  Uiso   1.00
C114   C     0.98460   0.49120   0.60595   0.01267  Uiso   1.00
C115   C     0.89400   0.51310   0.57385   0.01267  Uiso   1.00
C116   C     0.84250   0.60260   0.56542   0.01267  Uiso   1.00
C117   C     0.55930   0.65020   0.40962   0.01267  Uiso   1.00
C118   C     0.44190   0.70000   0.41838   0.01267  Uiso   1.00
C119   C     0.39730   0.77080   0.39257   0.01267  Uiso   1.00
C120   C     0.46770   0.79200   0.35800   0.01267  Uiso   1.00
C121   C     0.58190   0.74360   0.34837   0.01267  Uiso   1.00
C122   C     0.62650   0.67250   0.37410   0.01267  Uiso   1.00
C123   C     0.66510   0.77080   0.31141   0.01267  Uiso   1.00
C124   C     0.56180   0.14470   0.42254   0.01267  Uiso   1.00
C125   C     0.46100   0.09130   0.44339   0.01267  Uiso   1.00
C126   C     0.37090   0.02880   0.42350   0.01267  Uiso   1.00
C127   C     0.38150   0.01650   0.38293   0.01267  Uiso   1.00
C128   C     0.48860   0.06090   0.36253   0.01267  Uiso   1.00
C129   C     0.57910   0.12510   0.38246   0.01267  Uiso   1.00
C130   C     0.50630   0.04080   0.31914   0.01267  Uiso   1.00
C131   C     0.02030   0.19220   0.58097   0.01267  Uiso   1.00
C132   C     0.13750   0.15220   0.56676   0.01267  Uiso   1.00
C133   C     0.21240   0.09330   0.59102   0.01267  Uiso   1.00
C134   C     0.17080   0.07130   0.62924   0.01267  Uiso   1.00
C135   C     0.05300   0.10950   0.64321   0.01267  Uiso   1.00
C136   C     0.97850   0.16980   0.61951   0.01267  Uiso   1.00
C137   C     0.99960   0.08510   0.68391   0.01267  Uiso   1.00
C138   C     0.88390   0.68670   0.59198   0.01267  Uiso   1.00
C139   C     0.98390   0.75240   0.57879   0.01267  Uiso   1.00
C140   C     0.02550   0.83290   0.60130   0.01267  Uiso   1.00
C141   C     0.96290   0.84820   0.63746   0.01267  Uiso   1.00
C142   C     0.86200   0.78470   0.65159   0.01267  Uiso   1.00
C143   C     0.82260   0.70290   0.62845   0.01267  Uiso   1.00
C144   C     0.79450   0.80370   0.69018   0.01267  Uiso   1.00
C145   C     0.73740   0.37750   0.03230   0.01267  Uiso   1.00
C146   C     0.78950   0.28310   0.02468   0.01267  Uiso   1.00
C147   C     0.84990   0.28910   0.98899   0.01267  Uiso   1.00
C148   C     0.83780   0.38720   0.97495   0.01267  Uiso   1.00
C149   C     0.88750   0.42110   0.93843   0.01267  Uiso   1.00
C150   C     0.89590   0.51880   0.92658   0.01267  Uiso   1.00
C151   C     0.97000   0.55910   0.89397   0.01267  Uiso   1.00
C152   C     0.97030   0.65650   0.89651   0.01267  Uiso   1.00
C153   C     0.88880   0.68090   0.93031   0.01267  Uiso   1.00
C154   C     0.86220   0.77410   0.94343   0.01267  Uiso   1.00
C155   C     0.77550   0.79430   0.97492   0.01267  Uiso   1.00
C156   C     0.73080   0.88870   0.98414   0.01267  Uiso   1.00
C157   C     0.64170   0.87940   0.01399   0.01267  Uiso   1.00
C158   C     0.63270   0.77850   0.02450   0.01267  Uiso   1.00
C159   C     0.55810   0.73990   0.05645   0.01267  Uiso   1.00
C160   C     0.55830   0.64340   0.06941   0.01267  Uiso   1.00
C161   C     0.48700   0.60280   0.10320   0.01267  Uiso   1.00
C162   C     0.51540   0.50880   0.10595   0.01267  Uiso   1.00
C163   C     0.60600   0.48690   0.07385   0.01267  Uiso   1.00
C164   C     0.65750   0.39740   0.06542   0.01267  Uiso   1.00
C165   C     0.94070   0.34980   0.90962   0.01267  Uiso   1.00
C166   C     0.05810   0.30000   0.91838   0.01267  Uiso   1.00
C167   C     0.10270   0.22920   0.89257   0.01267  Uiso   1.00
C168   C     0.03230   0.20800   0.85800   0.01267  Uiso   1.00
C169   C     0.91810   0.25640   0.84837   0.01267  Uiso   1.00
C170   C     0.87350   0.32750   0.87410   0.01267  Uiso   1.00
C171   C     0.83490   0.22920   0.81141   0.01267  Uiso   1.00
C172   C     0.93820   0.85530   0.92254   0.01267  Uiso   1.00
C173   C     0.03900   0.90870   0.94339   0.01267  Uiso   1.00
C174   C     0.12910   0.97120   0.92350   0.01267  Uiso   1.00
C175   C     0.11850   0.98350   0.88293   0.01267  Uiso   1.00
C176   C     0.01140   0.93910   0.86253   0.01267  Uiso   1.00
C177   C     0.92090   0.87490   0.88246   0.01267  Uiso   1.00
C178   C     0.99370   0.95920   0.81914   0.01267  Uiso   1.00
C179   C     0.47970   0.80780   0.08097   0.01267  Uiso   1.00
C180   C     0.36250   0.84780   0.06676   0.01267  Uiso   1.00
C181   C     0.28760   0.90670   0.09102   0.01267  Uiso   1.00
C182   C     0.32920   0.92870   0.12924   0.01267  Uiso   1.00
C183   C     0.44700   0.89050   0.14321   0.01267  Uiso   1.00
C184   C     0.52150   0.83020   0.11951   0.01267  Uiso   1.00
C185   C     0.50040   0.91490   0.18391   0.01267  Uiso   1.00
C186   C     0.61610   0.31330   0.09198   0.01267  Uiso   1.00
C187   C     0.51610   0.24760   0.07879   0.01267  Uiso   1.00
C188   C     0.47450   0.16710   0.10130   0.01267  Uiso   1.00
C189   C     0.53710   0.15180   0.13746   0.01267  Uiso   1.00
C190   C     0.63800   0.21530   0.15159   0.01267  Uiso   1.00
C191   C     0.67740   0.29710   0.12845   0.01267  Uiso   1.00
C192   C     0.70550   0.19630   0.19018   0.01267  Uiso   1.00
N1     N     0.27150   0.44040   0.49779   0.01267  Uiso   1.00
N2     N     0.34360   0.59490   0.55230   0.01267  Uiso   1.00
N3     N     0.21450   0.72710   0.50033   0.01267  Uiso   1.00
N4     N     0.12880   0.57000   0.44775   0.01267  Uiso   1.00
N5     N     0.22850   0.55960   0.99779   0.01267  Uiso   1.00
N6     N     0.15640   0.40510   0.05230   0.01267  Uiso   1.00
N7     N     0.28550   0.27290   0.00033   0.01267  Uiso   1.00
N8     N     0.37120   0.43000   0.94775   0.01267  Uiso   1.00
N9     N     0.72850   0.55960   0.50221   0.01267  Uiso   1.00
N10    N     0.65640   0.40510   0.44770   0.01267  Uiso   1.00
N11    N     0.78550   0.27290   0.49967   0.01267  Uiso   1.00
N12    N     0.87120   0.43000   0.55225   0.01267  Uiso   1.00
N13    N     0.77150   0.44040   0.00221   0.01267  Uiso   1.00
N14    N     0.84360   0.59490   0.94770   0.01267  Uiso   1.00
N15    N     0.71450   0.72710   0.99967   0.01267  Uiso   1.00
N16    N     0.62880   0.57000   0.05225   0.01267  Uiso   1.00
O1     O     0.23500   0.27740   0.69680   0.01267  Uiso   1.00
O2     O     0.37440   0.15790   0.70888   0.01267  Uiso   1.00
O3     O     0.38020   0.93460   0.69657   0.01267  Uiso   1.00
O4     O     0.59200   0.00150   0.69864   0.01267  Uiso   1.00
O5     O     0.92520   0.96130   0.29308   0.01267  Uiso   1.00
O6     O     0.11660   0.89030   0.30662   0.01267  Uiso   1.00
O7     O     0.15380   0.12350   0.28937   0.01267  Uiso   1.00
O8     O     0.30720   0.24640   0.29928   0.01267  Uiso   1.00
O9     O     0.26500   0.72260   0.19680   0.01267  Uiso   1.00
O10    O     0.12560   0.84210   0.20888   0.01267  Uiso   1.00
O11    O     0.11980   0.06540   0.19657   0.01267  Uiso   1.00
O12    O     0.90800   0.99850   0.19864   0.01267  Uiso   1.00
O13    O     0.57480   0.03870   0.79308   0.01267  Uiso   1.00
O14    O     0.38340   0.10970   0.80662   0.01267  Uiso   1.00
O15    O     0.34620   0.87650   0.78937   0.01267  Uiso   1.00
O16    O     0.19280   0.75360   0.79928   0.01267  Uiso   1.00
O17    O     0.76500   0.72260   0.30320   0.01267  Uiso   1.00
O18    O     0.62560   0.84210   0.29112   0.01267  Uiso   1.00
O19    O     0.61980   0.06540   0.30343   0.01267  Uiso   1.00
O20    O     0.40800   0.99850   0.30136   0.01267  Uiso   1.00
O21    O     0.07480   0.03870   0.70692   0.01267  Uiso   1.00
O22    O     0.88340   0.10970   0.69338   0.01267  Uiso   1.00
O23    O     0.84620   0.87650   0.71063   0.01267  Uiso   1.00
O24    O     0.69280   0.75360   0.70072   0.01267  Uiso   1.00
O25    O     0.73500   0.27740   0.80320   0.01267  Uiso   1.00
O26    O     0.87440   0.15790   0.79112   0.01267  Uiso   1.00
O27    O     0.88020   0.93460   0.80343   0.01267  Uiso   1.00
O28    O     0.09200   0.00150   0.80136   0.01267  Uiso   1.00
O29    O     0.42520   0.96130   0.20692   0.01267  Uiso   1.00
O30    O     0.61660   0.89030   0.19338   0.01267  Uiso   1.00
O31    O     0.65380   0.12350   0.21063   0.01267  Uiso   1.00
O32    O     0.80720   0.24640   0.20072   0.01267  Uiso   1.00
