data_MIHLUL_clean
_audit_creation_date              2014-07-02
_audit_creation_method            'Materials Studio'
_symmetry_space_group_name_H-M    'P1'
_symmetry_Int_Tables_number       1
_symmetry_cell_setting            triclinic
loop_
_symmetry_equiv_pos_as_xyz
  x,y,z
_cell_length_a                    11.7735
_cell_length_b                    18.6144
_cell_length_c                    27.9022
_cell_angle_alpha                 90.0000
_cell_angle_beta                  90.0000
_cell_angle_gamma                 100.0850
loop_
_atom_site_label
_atom_site_type_symbol
_atom_site_fract_x
_atom_site_fract_y
_atom_site_fract_z
_atom_site_U_iso_or_equiv
_atom_site_adp_type
_atom_site_occupancy
Dy1    Dy    0.45507   0.95537   0.71701   0.01267  Uiso   1.00
Dy2    Dy    0.75111   0.00099   0.03244   0.01267  Uiso   1.00
Dy3    Dy    0.04493   0.04463   0.21701   0.01267  Uiso   1.00
Dy4    Dy    0.74889   0.99901   0.53244   0.01267  Uiso   1.00
Dy5    Dy    0.54493   0.04463   0.28299   0.01267  Uiso   1.00
Dy6    Dy    0.24889   0.99901   0.96756   0.01267  Uiso   1.00
Dy7    Dy    0.95507   0.95537   0.78299   0.01267  Uiso   1.00
Dy8    Dy    0.25111   0.00099   0.46756   0.01267  Uiso   1.00
H1     H     0.44500   0.40410   0.70800   0.01267  Uiso   1.00
H2     H     0.35380   0.50990   0.72890   0.01267  Uiso   1.00
H3     H     0.33760   0.67100   0.88450   0.01267  Uiso   1.00
H4     H     0.44030   0.68910   0.96140   0.01267  Uiso   1.00
H5     H     0.74530   0.54810   0.04870   0.01267  Uiso   1.00
H6     H     0.83730   0.44330   0.02980   0.01267  Uiso   1.00
H7     H     0.85840   0.28170   0.87270   0.01267  Uiso   1.00
H8     H     0.75480   0.26760   0.79580   0.01267  Uiso   1.00
H9     H     0.55220   0.47110   0.84020   0.01267  Uiso   1.00
H10    H     0.65510   0.48600   0.91520   0.01267  Uiso   1.00
H11    H     0.46530   0.70710   0.79120   0.01267  Uiso   1.00
H12    H     0.17830   0.73060   0.71660   0.01267  Uiso   1.00
H13    H     0.09180   0.61520   0.74140   0.01267  Uiso   1.00
H14    H     0.19040   0.54320   0.78710   0.01267  Uiso   1.00
H15    H     0.67220   0.73640   0.97740   0.01267  Uiso   1.00
H16    H     0.60300   0.77730   0.11660   0.01267  Uiso   1.00
H17    H     0.55730   0.65480   0.13320   0.01267  Uiso   1.00
H18    H     0.54610   0.57040   0.06890   0.01267  Uiso   1.00
H19    H     0.73450   0.25020   0.96860   0.01267  Uiso   1.00
H20    H     0.04000   0.22120   0.02440   0.01267  Uiso   1.00
H21    H     0.12250   0.33840   0.00200   0.01267  Uiso   1.00
H22    H     0.01240   0.41310   0.96080   0.01267  Uiso   1.00
H23    H     0.51860   0.22060   0.77080   0.01267  Uiso   1.00
H24    H     0.61120   0.18170   0.63680   0.01267  Uiso   1.00
H25    H     0.67520   0.30780   0.62630   0.01267  Uiso   1.00
H26    H     0.66800   0.38990   0.68670   0.01267  Uiso   1.00
H27    H     0.05500   0.59590   0.20800   0.01267  Uiso   1.00
H28    H     0.14620   0.49010   0.22890   0.01267  Uiso   1.00
H29    H     0.16240   0.32900   0.38450   0.01267  Uiso   1.00
H30    H     0.05970   0.31090   0.46140   0.01267  Uiso   1.00
H31    H     0.75470   0.45190   0.54870   0.01267  Uiso   1.00
H32    H     0.66270   0.55670   0.52980   0.01267  Uiso   1.00
H33    H     0.64160   0.71830   0.37270   0.01267  Uiso   1.00
H34    H     0.74520   0.73240   0.29580   0.01267  Uiso   1.00
H35    H     0.94780   0.52890   0.34020   0.01267  Uiso   1.00
H36    H     0.84490   0.51400   0.41520   0.01267  Uiso   1.00
H37    H     0.03470   0.29290   0.29120   0.01267  Uiso   1.00
H38    H     0.32170   0.26940   0.21660   0.01267  Uiso   1.00
H39    H     0.40820   0.38480   0.24140   0.01267  Uiso   1.00
H40    H     0.30960   0.45680   0.28710   0.01267  Uiso   1.00
H41    H     0.82780   0.26360   0.47740   0.01267  Uiso   1.00
H42    H     0.89700   0.22270   0.61660   0.01267  Uiso   1.00
H43    H     0.94270   0.34520   0.63320   0.01267  Uiso   1.00
H44    H     0.95390   0.42960   0.56890   0.01267  Uiso   1.00
H45    H     0.76550   0.74980   0.46860   0.01267  Uiso   1.00
H46    H     0.46000   0.77880   0.52440   0.01267  Uiso   1.00
H47    H     0.37750   0.66160   0.50200   0.01267  Uiso   1.00
H48    H     0.48760   0.58690   0.46080   0.01267  Uiso   1.00
H49    H     0.98140   0.77940   0.27080   0.01267  Uiso   1.00
H50    H     0.88880   0.81830   0.13680   0.01267  Uiso   1.00
H51    H     0.82480   0.69220   0.12630   0.01267  Uiso   1.00
H52    H     0.83200   0.61010   0.18670   0.01267  Uiso   1.00
H53    H     0.55500   0.59590   0.29200   0.01267  Uiso   1.00
H54    H     0.64620   0.49010   0.27110   0.01267  Uiso   1.00
H55    H     0.66240   0.32900   0.11550   0.01267  Uiso   1.00
H56    H     0.55970   0.31090   0.03860   0.01267  Uiso   1.00
H57    H     0.25470   0.45190   0.95130   0.01267  Uiso   1.00
H58    H     0.16270   0.55670   0.97020   0.01267  Uiso   1.00
H59    H     0.14160   0.71830   0.12730   0.01267  Uiso   1.00
H60    H     0.24520   0.73240   0.20420   0.01267  Uiso   1.00
H61    H     0.44780   0.52890   0.15980   0.01267  Uiso   1.00
H62    H     0.34490   0.51400   0.08480   0.01267  Uiso   1.00
H63    H     0.53470   0.29290   0.20880   0.01267  Uiso   1.00
H64    H     0.82170   0.26940   0.28340   0.01267  Uiso   1.00
H65    H     0.90820   0.38480   0.25860   0.01267  Uiso   1.00
H66    H     0.80960   0.45680   0.21290   0.01267  Uiso   1.00
H67    H     0.32780   0.26360   0.02260   0.01267  Uiso   1.00
H68    H     0.39700   0.22270   0.88340   0.01267  Uiso   1.00
H69    H     0.44270   0.34520   0.86680   0.01267  Uiso   1.00
H70    H     0.45390   0.42960   0.93110   0.01267  Uiso   1.00
H71    H     0.26550   0.74980   0.03140   0.01267  Uiso   1.00
H72    H     0.96000   0.77880   0.97560   0.01267  Uiso   1.00
H73    H     0.87750   0.66160   0.99800   0.01267  Uiso   1.00
H74    H     0.98760   0.58690   0.03920   0.01267  Uiso   1.00
H75    H     0.48140   0.77940   0.22920   0.01267  Uiso   1.00
H76    H     0.38880   0.81830   0.36320   0.01267  Uiso   1.00
H77    H     0.32480   0.69220   0.37370   0.01267  Uiso   1.00
H78    H     0.33200   0.61010   0.31330   0.01267  Uiso   1.00
H79    H     0.94500   0.40410   0.79200   0.01267  Uiso   1.00
H80    H     0.85380   0.50990   0.77110   0.01267  Uiso   1.00
H81    H     0.83760   0.67100   0.61550   0.01267  Uiso   1.00
H82    H     0.94030   0.68910   0.53860   0.01267  Uiso   1.00
H83    H     0.24530   0.54810   0.45130   0.01267  Uiso   1.00
H84    H     0.33730   0.44330   0.47020   0.01267  Uiso   1.00
H85    H     0.35840   0.28170   0.62730   0.01267  Uiso   1.00
H86    H     0.25480   0.26760   0.70420   0.01267  Uiso   1.00
H87    H     0.05220   0.47110   0.65980   0.01267  Uiso   1.00
H88    H     0.15510   0.48600   0.58480   0.01267  Uiso   1.00
H89    H     0.96530   0.70710   0.70880   0.01267  Uiso   1.00
H90    H     0.67830   0.73060   0.78340   0.01267  Uiso   1.00
H91    H     0.59180   0.61520   0.75860   0.01267  Uiso   1.00
H92    H     0.69040   0.54320   0.71290   0.01267  Uiso   1.00
H93    H     0.17220   0.73640   0.52260   0.01267  Uiso   1.00
H94    H     0.10300   0.77730   0.38340   0.01267  Uiso   1.00
H95    H     0.05730   0.65480   0.36680   0.01267  Uiso   1.00
H96    H     0.04610   0.57040   0.43110   0.01267  Uiso   1.00
H97    H     0.23450   0.25020   0.53140   0.01267  Uiso   1.00
H98    H     0.54000   0.22120   0.47560   0.01267  Uiso   1.00
H99    H     0.62250   0.33840   0.49800   0.01267  Uiso   1.00
H100   H     0.51240   0.41310   0.53920   0.01267  Uiso   1.00
H101   H     0.01860   0.22060   0.72920   0.01267  Uiso   1.00
H102   H     0.11120   0.18170   0.86320   0.01267  Uiso   1.00
H103   H     0.17520   0.30780   0.87370   0.01267  Uiso   1.00
H104   H     0.16800   0.38990   0.81330   0.01267  Uiso   1.00
C1     C     0.52960   0.41700   0.77600   0.01267  Uiso   1.00
C2     C     0.45620   0.43110   0.73700   0.01267  Uiso   1.00
C3     C     0.40560   0.48890   0.74840   0.01267  Uiso   1.00
C4     C     0.44440   0.51190   0.79460   0.01267  Uiso   1.00
C5     C     0.41220   0.57110   0.81930   0.01267  Uiso   1.00
C6     C     0.44580   0.59260   0.86700   0.01267  Uiso   1.00
C7     C     0.39770   0.64660   0.89480   0.01267  Uiso   1.00
C8     C     0.45150   0.65590   0.93670   0.01267  Uiso   1.00
C9     C     0.53340   0.60330   0.93670   0.01267  Uiso   1.00
C10    C     0.60740   0.59460   0.97620   0.01267  Uiso   1.00
C11    C     0.67150   0.53800   0.97920   0.01267  Uiso   1.00
C12    C     0.73810   0.52210   0.01930   0.01267  Uiso   1.00
C13    C     0.78910   0.46480   0.00890   0.01267  Uiso   1.00
C14    C     0.75870   0.44200   0.96170   0.01267  Uiso   1.00
C15    C     0.78860   0.38550   0.93440   0.01267  Uiso   1.00
C16    C     0.75850   0.36630   0.88730   0.01267  Uiso   1.00
C17    C     0.80220   0.30880   0.86180   0.01267  Uiso   1.00
C18    C     0.74730   0.30210   0.82020   0.01267  Uiso   1.00
C19    C     0.67450   0.35640   0.81840   0.01267  Uiso   1.00
C20    C     0.60130   0.36530   0.77910   0.01267  Uiso   1.00
C21    C     0.33990   0.61610   0.79350   0.01267  Uiso   1.00
C22    C     0.38960   0.68760   0.78040   0.01267  Uiso   1.00
C23    C     0.32960   0.73150   0.75150   0.01267  Uiso   1.00
C24    C     0.21940   0.70280   0.73660   0.01267  Uiso   1.00
C25    C     0.16890   0.63370   0.75090   0.01267  Uiso   1.00
C26    C     0.22750   0.59090   0.77830   0.01267  Uiso   1.00
C27    C     0.38390   0.80630   0.73790   0.01267  Uiso   1.00
C28    C     0.60850   0.64560   0.01780   0.01267  Uiso   1.00
C29    C     0.64610   0.71990   0.00830   0.01267  Uiso   1.00
C30    C     0.64360   0.76930   0.04680   0.01267  Uiso   1.00
C31    C     0.60680   0.74320   0.09160   0.01267  Uiso   1.00
C32    C     0.57610   0.67110   0.10140   0.01267  Uiso   1.00
C33    C     0.57270   0.62090   0.06350   0.01267  Uiso   1.00
C34    C     0.68100   0.85040   0.03750   0.01267  Uiso   1.00
C35    C     0.86120   0.34040   0.96040   0.01267  Uiso   1.00
C36    C     0.81320   0.26910   0.97530   0.01267  Uiso   1.00
C37    C     0.88020   0.22570   0.00000   0.01267  Uiso   1.00
C38    C     0.99450   0.25150   0.00870   0.01267  Uiso   1.00
C39    C     0.04370   0.32050   0.99500   0.01267  Uiso   1.00
C40    C     0.97740   0.36540   0.97050   0.01267  Uiso   1.00
C41    C     0.82200   0.14940   0.01410   0.01267  Uiso   1.00
C42    C     0.59780   0.31340   0.73820   0.01267  Uiso   1.00
C43    C     0.55470   0.23930   0.74190   0.01267  Uiso   1.00
C44    C     0.56330   0.19250   0.70440   0.01267  Uiso   1.00
C45    C     0.60650   0.21500   0.66220   0.01267  Uiso   1.00
C46    C     0.64520   0.29040   0.65650   0.01267  Uiso   1.00
C47    C     0.64180   0.33930   0.69210   0.01267  Uiso   1.00
C48    C     0.52270   0.11070   0.71320   0.01267  Uiso   1.00
C49    C     0.98200   0.01000   0.97470   0.01267  Uiso   1.00
C50    C     0.51670   0.98480   0.97470   0.01267  Uiso   1.00
C51    C     0.22260   0.94350   0.77400   0.01267  Uiso   1.00
C52    C     0.18890   0.97380   0.72380   0.01267  Uiso   1.00
C53    C     0.97040   0.58300   0.27600   0.01267  Uiso   1.00
C54    C     0.04380   0.56890   0.23700   0.01267  Uiso   1.00
C55    C     0.09440   0.51110   0.24840   0.01267  Uiso   1.00
C56    C     0.05560   0.48810   0.29460   0.01267  Uiso   1.00
C57    C     0.08780   0.42890   0.31930   0.01267  Uiso   1.00
C58    C     0.05420   0.40740   0.36700   0.01267  Uiso   1.00
C59    C     0.10230   0.35340   0.39480   0.01267  Uiso   1.00
C60    C     0.04850   0.34410   0.43670   0.01267  Uiso   1.00
C61    C     0.96660   0.39670   0.43670   0.01267  Uiso   1.00
C62    C     0.89260   0.40540   0.47620   0.01267  Uiso   1.00
C63    C     0.82850   0.46200   0.47920   0.01267  Uiso   1.00
C64    C     0.76190   0.47790   0.51930   0.01267  Uiso   1.00
C65    C     0.71090   0.53520   0.50890   0.01267  Uiso   1.00
C66    C     0.74130   0.55800   0.46170   0.01267  Uiso   1.00
C67    C     0.71140   0.61450   0.43440   0.01267  Uiso   1.00
C68    C     0.74150   0.63370   0.38730   0.01267  Uiso   1.00
C69    C     0.69780   0.69120   0.36180   0.01267  Uiso   1.00
C70    C     0.75270   0.69790   0.32020   0.01267  Uiso   1.00
C71    C     0.82550   0.64360   0.31840   0.01267  Uiso   1.00
C72    C     0.89870   0.63470   0.27910   0.01267  Uiso   1.00
C73    C     0.16010   0.38390   0.29350   0.01267  Uiso   1.00
C74    C     0.11040   0.31240   0.28040   0.01267  Uiso   1.00
C75    C     0.17040   0.26850   0.25150   0.01267  Uiso   1.00
C76    C     0.28060   0.29720   0.23660   0.01267  Uiso   1.00
C77    C     0.33110   0.36630   0.25090   0.01267  Uiso   1.00
C78    C     0.27250   0.40910   0.27830   0.01267  Uiso   1.00
C79    C     0.11610   0.19370   0.23790   0.01267  Uiso   1.00
C80    C     0.89150   0.35440   0.51780   0.01267  Uiso   1.00
C81    C     0.85390   0.28010   0.50830   0.01267  Uiso   1.00
C82    C     0.85640   0.23070   0.54680   0.01267  Uiso   1.00
C83    C     0.89320   0.25680   0.59160   0.01267  Uiso   1.00
C84    C     0.92390   0.32890   0.60140   0.01267  Uiso   1.00
C85    C     0.92730   0.37910   0.56350   0.01267  Uiso   1.00
C86    C     0.81900   0.14960   0.53750   0.01267  Uiso   1.00
C87    C     0.63880   0.65960   0.46040   0.01267  Uiso   1.00
C88    C     0.68680   0.73090   0.47530   0.01267  Uiso   1.00
C89    C     0.61980   0.77430   0.50000   0.01267  Uiso   1.00
C90    C     0.50550   0.74850   0.50870   0.01267  Uiso   1.00
C91    C     0.45630   0.67950   0.49500   0.01267  Uiso   1.00
C92    C     0.52260   0.63460   0.47050   0.01267  Uiso   1.00
C93    C     0.67800   0.85060   0.51410   0.01267  Uiso   1.00
C94    C     0.90220   0.68660   0.23820   0.01267  Uiso   1.00
C95    C     0.94530   0.76070   0.24190   0.01267  Uiso   1.00
C96    C     0.93670   0.80750   0.20440   0.01267  Uiso   1.00
C97    C     0.89350   0.78500   0.16220   0.01267  Uiso   1.00
C98    C     0.85480   0.70960   0.15650   0.01267  Uiso   1.00
C99    C     0.85820   0.66070   0.19210   0.01267  Uiso   1.00
C100   C     0.97730   0.88930   0.21320   0.01267  Uiso   1.00
C101   C     0.51800   0.99000   0.47470   0.01267  Uiso   1.00
C102   C     0.98330   0.01520   0.47470   0.01267  Uiso   1.00
C103   C     0.27740   0.05650   0.27400   0.01267  Uiso   1.00
C104   C     0.31110   0.02620   0.22380   0.01267  Uiso   1.00
C105   C     0.47040   0.58300   0.22400   0.01267  Uiso   1.00
C106   C     0.54380   0.56890   0.26300   0.01267  Uiso   1.00
C107   C     0.59440   0.51110   0.25160   0.01267  Uiso   1.00
C108   C     0.55560   0.48810   0.20540   0.01267  Uiso   1.00
C109   C     0.58780   0.42890   0.18070   0.01267  Uiso   1.00
C110   C     0.55420   0.40740   0.13300   0.01267  Uiso   1.00
C111   C     0.60230   0.35340   0.10520   0.01267  Uiso   1.00
C112   C     0.54850   0.34410   0.06330   0.01267  Uiso   1.00
C113   C     0.46660   0.39670   0.06330   0.01267  Uiso   1.00
C114   C     0.39260   0.40540   0.02380   0.01267  Uiso   1.00
C115   C     0.32850   0.46200   0.02080   0.01267  Uiso   1.00
C116   C     0.26190   0.47790   0.98070   0.01267  Uiso   1.00
C117   C     0.21090   0.53520   0.99110   0.01267  Uiso   1.00
C118   C     0.24130   0.55800   0.03830   0.01267  Uiso   1.00
C119   C     0.21140   0.61450   0.06560   0.01267  Uiso   1.00
C120   C     0.24150   0.63370   0.11270   0.01267  Uiso   1.00
C121   C     0.19780   0.69120   0.13820   0.01267  Uiso   1.00
C122   C     0.25270   0.69790   0.17980   0.01267  Uiso   1.00
C123   C     0.32550   0.64360   0.18160   0.01267  Uiso   1.00
C124   C     0.39870   0.63470   0.22090   0.01267  Uiso   1.00
C125   C     0.66010   0.38390   0.20650   0.01267  Uiso   1.00
C126   C     0.61040   0.31240   0.21960   0.01267  Uiso   1.00
C127   C     0.67040   0.26850   0.24850   0.01267  Uiso   1.00
C128   C     0.78060   0.29720   0.26340   0.01267  Uiso   1.00
C129   C     0.83110   0.36630   0.24910   0.01267  Uiso   1.00
C130   C     0.77250   0.40910   0.22170   0.01267  Uiso   1.00
C131   C     0.61610   0.19370   0.26210   0.01267  Uiso   1.00
C132   C     0.39150   0.35440   0.98220   0.01267  Uiso   1.00
C133   C     0.35390   0.28010   0.99170   0.01267  Uiso   1.00
C134   C     0.35640   0.23070   0.95320   0.01267  Uiso   1.00
C135   C     0.39320   0.25680   0.90840   0.01267  Uiso   1.00
C136   C     0.42390   0.32890   0.89860   0.01267  Uiso   1.00
C137   C     0.42730   0.37910   0.93650   0.01267  Uiso   1.00
C138   C     0.31900   0.14960   0.96250   0.01267  Uiso   1.00
C139   C     0.13880   0.65960   0.03960   0.01267  Uiso   1.00
C140   C     0.18680   0.73090   0.02470   0.01267  Uiso   1.00
C141   C     0.11980   0.77430   0.00000   0.01267  Uiso   1.00
C142   C     0.00550   0.74850   0.99130   0.01267  Uiso   1.00
C143   C     0.95630   0.67950   0.00500   0.01267  Uiso   1.00
C144   C     0.02260   0.63460   0.02950   0.01267  Uiso   1.00
C145   C     0.17800   0.85060   0.98590   0.01267  Uiso   1.00
C146   C     0.40220   0.68660   0.26180   0.01267  Uiso   1.00
C147   C     0.44530   0.76070   0.25810   0.01267  Uiso   1.00
C148   C     0.43670   0.80750   0.29560   0.01267  Uiso   1.00
C149   C     0.39350   0.78500   0.33780   0.01267  Uiso   1.00
C150   C     0.35480   0.70960   0.34350   0.01267  Uiso   1.00
C151   C     0.35820   0.66070   0.30790   0.01267  Uiso   1.00
C152   C     0.47730   0.88930   0.28680   0.01267  Uiso   1.00
C153   C     0.01800   0.99000   0.02530   0.01267  Uiso   1.00
C154   C     0.48330   0.01520   0.02530   0.01267  Uiso   1.00
C155   C     0.77740   0.05650   0.22600   0.01267  Uiso   1.00
C156   C     0.81110   0.02620   0.27620   0.01267  Uiso   1.00
C157   C     0.02960   0.41700   0.72400   0.01267  Uiso   1.00
C158   C     0.95620   0.43110   0.76300   0.01267  Uiso   1.00
C159   C     0.90560   0.48890   0.75160   0.01267  Uiso   1.00
C160   C     0.94440   0.51190   0.70540   0.01267  Uiso   1.00
C161   C     0.91220   0.57110   0.68070   0.01267  Uiso   1.00
C162   C     0.94580   0.59260   0.63300   0.01267  Uiso   1.00
C163   C     0.89770   0.64660   0.60520   0.01267  Uiso   1.00
C164   C     0.95150   0.65590   0.56330   0.01267  Uiso   1.00
C165   C     0.03340   0.60330   0.56330   0.01267  Uiso   1.00
C166   C     0.10740   0.59460   0.52380   0.01267  Uiso   1.00
C167   C     0.17150   0.53800   0.52080   0.01267  Uiso   1.00
C168   C     0.23810   0.52210   0.48070   0.01267  Uiso   1.00
C169   C     0.28910   0.46480   0.49110   0.01267  Uiso   1.00
C170   C     0.25870   0.44200   0.53830   0.01267  Uiso   1.00
C171   C     0.28860   0.38550   0.56560   0.01267  Uiso   1.00
C172   C     0.25850   0.36630   0.61270   0.01267  Uiso   1.00
C173   C     0.30220   0.30880   0.63820   0.01267  Uiso   1.00
C174   C     0.24730   0.30210   0.67980   0.01267  Uiso   1.00
C175   C     0.17450   0.35640   0.68160   0.01267  Uiso   1.00
C176   C     0.10130   0.36530   0.72090   0.01267  Uiso   1.00
C177   C     0.83990   0.61610   0.70650   0.01267  Uiso   1.00
C178   C     0.88960   0.68760   0.71960   0.01267  Uiso   1.00
C179   C     0.82960   0.73150   0.74850   0.01267  Uiso   1.00
C180   C     0.71940   0.70280   0.76340   0.01267  Uiso   1.00
C181   C     0.66890   0.63370   0.74910   0.01267  Uiso   1.00
C182   C     0.72750   0.59090   0.72170   0.01267  Uiso   1.00
C183   C     0.88390   0.80630   0.76210   0.01267  Uiso   1.00
C184   C     0.10850   0.64560   0.48220   0.01267  Uiso   1.00
C185   C     0.14610   0.71990   0.49170   0.01267  Uiso   1.00
C186   C     0.14360   0.76930   0.45320   0.01267  Uiso   1.00
C187   C     0.10680   0.74320   0.40840   0.01267  Uiso   1.00
C188   C     0.07610   0.67110   0.39860   0.01267  Uiso   1.00
C189   C     0.07270   0.62090   0.43650   0.01267  Uiso   1.00
C190   C     0.18100   0.85040   0.46250   0.01267  Uiso   1.00
C191   C     0.36120   0.34040   0.53960   0.01267  Uiso   1.00
C192   C     0.31320   0.26910   0.52470   0.01267  Uiso   1.00
C193   C     0.38020   0.22570   0.50000   0.01267  Uiso   1.00
C194   C     0.49450   0.25150   0.49130   0.01267  Uiso   1.00
C195   C     0.54370   0.32050   0.50500   0.01267  Uiso   1.00
C196   C     0.47740   0.36540   0.52950   0.01267  Uiso   1.00
C197   C     0.32200   0.14940   0.48590   0.01267  Uiso   1.00
C198   C     0.09780   0.31340   0.76180   0.01267  Uiso   1.00
C199   C     0.05470   0.23930   0.75810   0.01267  Uiso   1.00
C200   C     0.06330   0.19250   0.79560   0.01267  Uiso   1.00
C201   C     0.10650   0.21500   0.83780   0.01267  Uiso   1.00
C202   C     0.14520   0.29040   0.84350   0.01267  Uiso   1.00
C203   C     0.14180   0.33930   0.80790   0.01267  Uiso   1.00
C204   C     0.02270   0.11070   0.78680   0.01267  Uiso   1.00
C205   C     0.48200   0.01000   0.52530   0.01267  Uiso   1.00
C206   C     0.01670   0.98480   0.52530   0.01267  Uiso   1.00
C207   C     0.72260   0.94350   0.72600   0.01267  Uiso   1.00
C208   C     0.68890   0.97380   0.77620   0.01267  Uiso   1.00
N1     N     0.51850   0.46780   0.81190   0.01267  Uiso   1.00
N2     N     0.52480   0.56660   0.89400   0.01267  Uiso   1.00
N3     N     0.68610   0.48830   0.94400   0.01267  Uiso   1.00
N4     N     0.68390   0.39600   0.85940   0.01267  Uiso   1.00
N5     N     0.98150   0.53220   0.31190   0.01267  Uiso   1.00
N6     N     0.97520   0.43340   0.39400   0.01267  Uiso   1.00
N7     N     0.81390   0.51170   0.44400   0.01267  Uiso   1.00
N8     N     0.81610   0.60400   0.35940   0.01267  Uiso   1.00
N9     N     0.48150   0.53220   0.18810   0.01267  Uiso   1.00
N10    N     0.47520   0.43340   0.10600   0.01267  Uiso   1.00
N11    N     0.31390   0.51170   0.05600   0.01267  Uiso   1.00
N12    N     0.31610   0.60400   0.14060   0.01267  Uiso   1.00
N13    N     0.01850   0.46780   0.68810   0.01267  Uiso   1.00
N14    N     0.02480   0.56660   0.60600   0.01267  Uiso   1.00
N15    N     0.18610   0.48830   0.55600   0.01267  Uiso   1.00
N16    N     0.18390   0.39600   0.64060   0.01267  Uiso   1.00
O1     O     0.33900   0.83700   0.70310   0.01267  Uiso   1.00
O2     O     0.47090   0.83820   0.75960   0.01267  Uiso   1.00
O3     O     0.75570   0.87260   0.00520   0.01267  Uiso   1.00
O4     O     0.63770   0.89290   0.06360   0.01267  Uiso   1.00
O5     O     0.86660   0.11860   0.04920   0.01267  Uiso   1.00
O6     O     0.73870   0.11720   0.99200   0.01267  Uiso   1.00
O7     O     0.56990   0.06880   0.68640   0.01267  Uiso   1.00
O8     O     0.44580   0.08660   0.74280   0.01267  Uiso   1.00
O9     O     0.87870   0.01330   0.96670   0.01267  Uiso   1.00
O10    O     0.06330   0.02110   0.94370   0.01267  Uiso   1.00
O11    O     0.61770   0.97570   0.96770   0.01267  Uiso   1.00
O12    O     0.43310   0.96820   0.94540   0.01267  Uiso   1.00
O13    O     0.32440   0.93960   0.78130   0.01267  Uiso   1.00
O14    O     0.13770   0.92710   0.80410   0.01267  Uiso   1.00
O15    O     0.08980   0.98280   0.71810   0.01267  Uiso   1.00
O16    O     0.26770   0.98190   0.69380   0.01267  Uiso   1.00
O17    O     0.16100   0.16300   0.20310   0.01267  Uiso   1.00
O18    O     0.02910   0.16180   0.25960   0.01267  Uiso   1.00
O19    O     0.74430   0.12740   0.50520   0.01267  Uiso   1.00
O20    O     0.86230   0.10710   0.56360   0.01267  Uiso   1.00
O21    O     0.63340   0.88140   0.54920   0.01267  Uiso   1.00
O22    O     0.76130   0.88280   0.49200   0.01267  Uiso   1.00
O23    O     0.93010   0.93120   0.18640   0.01267  Uiso   1.00
O24    O     0.05420   0.91340   0.24280   0.01267  Uiso   1.00
O25    O     0.62130   0.98670   0.46670   0.01267  Uiso   1.00
O26    O     0.43670   0.97890   0.44370   0.01267  Uiso   1.00
O27    O     0.88230   0.02430   0.46770   0.01267  Uiso   1.00
O28    O     0.06690   0.03180   0.44540   0.01267  Uiso   1.00
O29    O     0.17560   0.06040   0.28130   0.01267  Uiso   1.00
O30    O     0.36230   0.07290   0.30410   0.01267  Uiso   1.00
O31    O     0.41020   0.01720   0.21810   0.01267  Uiso   1.00
O32    O     0.23230   0.01810   0.19380   0.01267  Uiso   1.00
O33    O     0.66100   0.16300   0.29690   0.01267  Uiso   1.00
O34    O     0.52910   0.16180   0.24040   0.01267  Uiso   1.00
O35    O     0.24430   0.12740   0.99480   0.01267  Uiso   1.00
O36    O     0.36230   0.10710   0.93640   0.01267  Uiso   1.00
O37    O     0.13340   0.88140   0.95080   0.01267  Uiso   1.00
O38    O     0.26130   0.88280   0.00800   0.01267  Uiso   1.00
O39    O     0.43010   0.93120   0.31360   0.01267  Uiso   1.00
O40    O     0.55420   0.91340   0.25720   0.01267  Uiso   1.00
O41    O     0.12130   0.98670   0.03330   0.01267  Uiso   1.00
O42    O     0.93670   0.97890   0.05630   0.01267  Uiso   1.00
O43    O     0.38230   0.02430   0.03230   0.01267  Uiso   1.00
O44    O     0.56690   0.03180   0.05460   0.01267  Uiso   1.00
O45    O     0.67560   0.06040   0.21870   0.01267  Uiso   1.00
O46    O     0.86230   0.07290   0.19590   0.01267  Uiso   1.00
O47    O     0.91020   0.01720   0.28190   0.01267  Uiso   1.00
O48    O     0.73230   0.01810   0.30620   0.01267  Uiso   1.00
O49    O     0.83900   0.83700   0.79690   0.01267  Uiso   1.00
O50    O     0.97090   0.83820   0.74040   0.01267  Uiso   1.00
O51    O     0.25570   0.87260   0.49480   0.01267  Uiso   1.00
O52    O     0.13770   0.89290   0.43640   0.01267  Uiso   1.00
O53    O     0.36660   0.11860   0.45080   0.01267  Uiso   1.00
O54    O     0.23870   0.11720   0.50800   0.01267  Uiso   1.00
O55    O     0.06990   0.06880   0.81360   0.01267  Uiso   1.00
O56    O     0.94580   0.08660   0.75720   0.01267  Uiso   1.00
O57    O     0.37870   0.01330   0.53330   0.01267  Uiso   1.00
O58    O     0.56330   0.02110   0.55630   0.01267  Uiso   1.00
O59    O     0.11770   0.97570   0.53230   0.01267  Uiso   1.00
O60    O     0.93310   0.96820   0.55460   0.01267  Uiso   1.00
O61    O     0.82440   0.93960   0.71870   0.01267  Uiso   1.00
O62    O     0.63770   0.92710   0.69590   0.01267  Uiso   1.00
O63    O     0.58980   0.98280   0.78190   0.01267  Uiso   1.00
O64    O     0.76770   0.98190   0.80620   0.01267  Uiso   1.00
