data_MIHLEV_clean
_audit_creation_date              2014-07-02
_audit_creation_method            'Materials Studio'
_symmetry_space_group_name_H-M    'P1'
_symmetry_Int_Tables_number       1
_symmetry_cell_setting            triclinic
loop_
_symmetry_equiv_pos_as_xyz
  x,y,z
_cell_length_a                    7.4595
_cell_length_b                    11.4740
_cell_length_c                    16.4767
_cell_angle_alpha                 98.9511
_cell_angle_beta                  90.9863
_cell_angle_gamma                 91.3109
loop_
_atom_site_label
_atom_site_type_symbol
_atom_site_fract_x
_atom_site_fract_y
_atom_site_fract_z
_atom_site_U_iso_or_equiv
_atom_site_adp_type
_atom_site_occupancy
Pr1    Pr    0.75915   0.57644   0.00495   0.01267  Uiso   1.00
Pr2    Pr    0.24085   0.42356   0.99505   0.01267  Uiso   1.00
H1     H     0.31280   0.39130   0.41070   0.01267  Uiso   1.00
H2     H     0.08690   0.35880   0.51380   0.01267  Uiso   1.00
H3     H     0.94690   0.00600   0.68450   0.01267  Uiso   1.00
H4     H     0.10010   0.82310   0.70330   0.01267  Uiso   1.00
H5     H     0.40930   0.08240   0.48510   0.01267  Uiso   1.00
H6     H     0.79980   0.21580   0.53020   0.01267  Uiso   1.00
H7     H     0.58540   0.33140   0.60490   0.01267  Uiso   1.00
H8     H     0.63210   0.39780   0.74440   0.01267  Uiso   1.00
H9     H     0.10720   0.23290   0.73740   0.01267  Uiso   1.00
H10    H     0.80840   0.39840   0.41500   0.01267  Uiso   1.00
H11    H     0.89040   0.54180   0.33590   0.01267  Uiso   1.00
H12    H     0.75430   0.54310   0.20720   0.01267  Uiso   1.00
H13    H     0.44570   0.25920   0.23890   0.01267  Uiso   1.00
H14    H     0.19120   0.73700   0.94240   0.01267  Uiso   1.00
H15    H     0.68720   0.60870   0.58930   0.01267  Uiso   1.00
H16    H     0.91310   0.64120   0.48620   0.01267  Uiso   1.00
H17    H     0.05310   0.99400   0.31550   0.01267  Uiso   1.00
H18    H     0.89990   0.17690   0.29670   0.01267  Uiso   1.00
H19    H     0.59070   0.91760   0.51490   0.01267  Uiso   1.00
H20    H     0.20020   0.78420   0.46980   0.01267  Uiso   1.00
H21    H     0.41460   0.66860   0.39510   0.01267  Uiso   1.00
H22    H     0.36790   0.60220   0.25560   0.01267  Uiso   1.00
H23    H     0.89280   0.76710   0.26260   0.01267  Uiso   1.00
H24    H     0.19160   0.60160   0.58500   0.01267  Uiso   1.00
H25    H     0.10960   0.45820   0.66410   0.01267  Uiso   1.00
H26    H     0.24570   0.45690   0.79280   0.01267  Uiso   1.00
H27    H     0.55430   0.74080   0.76110   0.01267  Uiso   1.00
H28    H     0.80880   0.26300   0.05760   0.01267  Uiso   1.00
C1     C     0.42320   0.22800   0.43060   0.01267  Uiso   1.00
C2     C     0.30530   0.32560   0.43920   0.01267  Uiso   1.00
C3     C     0.18090   0.30730   0.49540   0.01267  Uiso   1.00
C4     C     0.21600   0.19670   0.52210   0.01267  Uiso   1.00
C5     C     0.12300   0.14590   0.58100   0.01267  Uiso   1.00
C6     C     0.16420   0.03710   0.60540   0.01267  Uiso   1.00
C7     C     0.05600   0.97890   0.66030   0.01267  Uiso   1.00
C8     C     0.13890   0.87950   0.67040   0.01267  Uiso   1.00
C9     C     0.29860   0.87470   0.62170   0.01267  Uiso   1.00
C10    C     0.57750   0.21660   0.38310   0.01267  Uiso   1.00
C11    C     0.97750   0.21490   0.62620   0.01267  Uiso   1.00
C12    C     0.81970   0.24330   0.58710   0.01267  Uiso   1.00
C13    C     0.69180   0.31180   0.63170   0.01267  Uiso   1.00
C14    C     0.71960   0.35110   0.71450   0.01267  Uiso   1.00
C15    C     0.87480   0.32290   0.75440   0.01267  Uiso   1.00
C16    C     0.00230   0.25370   0.71000   0.01267  Uiso   1.00
C17    C     0.91090   0.37030   0.84400   0.01267  Uiso   1.00
C18    C     0.62020   0.31280   0.33420   0.01267  Uiso   1.00
C19    C     0.75190   0.39860   0.36290   0.01267  Uiso   1.00
C20    C     0.80070   0.48380   0.31580   0.01267  Uiso   1.00
C21    C     0.71970   0.48510   0.23970   0.01267  Uiso   1.00
C22    C     0.58750   0.40090   0.21120   0.01267  Uiso   1.00
C23    C     0.53750   0.31590   0.25850   0.01267  Uiso   1.00
C24    C     0.49520   0.40030   0.12990   0.01267  Uiso   1.00
C25    C     0.08250   0.70130   0.95680   0.01267  Uiso   1.00
C26    C     0.57680   0.77200   0.56940   0.01267  Uiso   1.00
C27    C     0.69470   0.67440   0.56080   0.01267  Uiso   1.00
C28    C     0.81910   0.69270   0.50460   0.01267  Uiso   1.00
C29    C     0.78400   0.80330   0.47790   0.01267  Uiso   1.00
C30    C     0.87700   0.85410   0.41900   0.01267  Uiso   1.00
C31    C     0.83580   0.96290   0.39460   0.01267  Uiso   1.00
C32    C     0.94400   0.02110   0.33970   0.01267  Uiso   1.00
C33    C     0.86110   0.12050   0.32960   0.01267  Uiso   1.00
C34    C     0.70140   0.12530   0.37830   0.01267  Uiso   1.00
C35    C     0.42250   0.78340   0.61690   0.01267  Uiso   1.00
C36    C     0.02250   0.78510   0.37380   0.01267  Uiso   1.00
C37    C     0.18030   0.75670   0.41290   0.01267  Uiso   1.00
C38    C     0.30820   0.68820   0.36830   0.01267  Uiso   1.00
C39    C     0.28040   0.64890   0.28550   0.01267  Uiso   1.00
C40    C     0.12520   0.67710   0.24560   0.01267  Uiso   1.00
C41    C     0.99770   0.74630   0.29000   0.01267  Uiso   1.00
C42    C     0.08910   0.62970   0.15600   0.01267  Uiso   1.00
C43    C     0.37980   0.68720   0.66580   0.01267  Uiso   1.00
C44    C     0.24810   0.60140   0.63710   0.01267  Uiso   1.00
C45    C     0.19930   0.51620   0.68420   0.01267  Uiso   1.00
C46    C     0.28030   0.51490   0.76030   0.01267  Uiso   1.00
C47    C     0.41250   0.59910   0.78880   0.01267  Uiso   1.00
C48    C     0.46250   0.68410   0.74150   0.01267  Uiso   1.00
C49    C     0.50480   0.59970   0.87010   0.01267  Uiso   1.00
C50    C     0.91750   0.29870   0.04320   0.01267  Uiso   1.00
N1     N     0.36190   0.15070   0.48057   0.01267  Uiso   1.00
N2     N     0.31020   0.97100   0.58218   0.01267  Uiso   1.00
N3     N     0.63810   0.84930   0.51943   0.01267  Uiso   1.00
N4     N     0.68980   0.02900   0.41782   0.01267  Uiso   1.00
O1     O     0.78870   0.42600   0.88302   0.01267  Uiso   1.00
O2     O     0.06310   0.34890   0.87358   0.01267  Uiso   1.00
O3     O     0.54960   0.46900   0.08066   0.01267  Uiso   1.00
O4     O     0.36180   0.33290   0.11180   0.01267  Uiso   1.00
O5     O     0.95660   0.76570   0.97840   0.01267  Uiso   1.00
O6     O     0.07510   0.58980   0.95257   0.01267  Uiso   1.00
O7     O     0.21130   0.57400   0.11698   0.01267  Uiso   1.00
O8     O     0.93690   0.65110   0.12642   0.01267  Uiso   1.00
O9     O     0.45040   0.53100   0.91934   0.01267  Uiso   1.00
O10    O     0.63820   0.66710   0.88820   0.01267  Uiso   1.00
O11    O     0.04340   0.23430   0.02160   0.01267  Uiso   1.00
O12    O     0.92490   0.41020   0.04743   0.01267  Uiso   1.00
