data_image0
_cell_length_a       18.8184
_cell_length_b       9.4843
_cell_length_c       17.349
_cell_angle_alpha    90
_cell_angle_beta     90
_cell_angle_gamma    90

_symmetry_space_group_name_H-M    "P 1"
_symmetry_int_tables_number       1

loop_
  _symmetry_equiv_pos_as_xyz
  'x, y, z'

loop_
  _atom_site_label
  _atom_site_occupancy
  _atom_site_fract_x
  _atom_site_fract_y
  _atom_site_fract_z
  _atom_site_thermal_displace_type
  _atom_site_B_iso_or_equiv
  _atom_site_type_symbol
  Mg1      1.0000 0.25519  0.26214  0.30410  Biso   1.000  Mg
  C1       1.0000 0.15530  0.32700  0.12939  Biso   1.000  C
  C2       1.0000 0.13021  0.27190  0.06019  Biso   1.000  C
  C3       1.0000 0.15687  0.31370  0.98906  Biso   1.000  C
  C4       1.0000 0.20973  0.41740  0.98693  Biso   1.000  C
  C5       1.0000 0.23442  0.47500  0.05621  Biso   1.000  C
  C6       1.0000 0.20901  0.42900  0.12728  Biso   1.000  C
  C7       1.0000 0.24189  0.49480  0.19884  Biso   1.000  C
  C8       1.0000 0.12174  0.27440  0.20313  Biso   1.000  C
  C9       1.0000 0.12379  0.24840  0.91784  Biso   1.000  C
  C10      1.0000 0.24360  0.47140  0.91327  Biso   1.000  C
  O1       1.0000 0.15421  0.29130  0.26554  Biso   1.000  O
  O2       1.0000 0.06211  0.21660  0.19680  Biso   1.000  O
  O3       1.0000 0.07130  0.17110  0.92833  Biso   1.000  O
  O4       1.0000 0.14909  0.27645  0.85279  Biso   1.000  O
  O5       1.0000 0.28609  0.39157  0.87888  Biso   1.000  O
  O6       1.0000 0.22916  0.59591  0.89463  Biso   1.000  O
  O7       1.0000 0.22080  0.61501  0.21697  Biso   1.000  O
  O8       1.0000 0.28992  0.42518  0.23241  Biso   1.000  O
  H1       1.0000 0.09240  0.20100  0.06220  Biso   1.000  H
  H2       1.0000 0.27090  0.54400  0.05420  Biso   1.000  H
  Mg2      1.0000 0.24481  0.23786  0.80410  Biso   1.000  Mg
  C11      1.0000 0.34470  0.17300  0.62939  Biso   1.000  C
  C12      1.0000 0.36979  0.22810  0.56019  Biso   1.000  C
  C13      1.0000 0.34313  0.18630  0.48906  Biso   1.000  C
  C14      1.0000 0.29027  0.08260  0.48693  Biso   1.000  C
  C15      1.0000 0.26558  0.02500  0.55621  Biso   1.000  C
  C16      1.0000 0.29099  0.07100  0.62728  Biso   1.000  C
  C17      1.0000 0.25811  0.00520  0.69884  Biso   1.000  C
  C18      1.0000 0.37826  0.22560  0.70313  Biso   1.000  C
  C19      1.0000 0.37621  0.25160  0.41784  Biso   1.000  C
  C20      1.0000 0.25640  0.02860  0.41327  Biso   1.000  C
  O9       1.0000 0.34579  0.20870  0.76554  Biso   1.000  O
  O10      1.0000 0.43789  0.28340  0.69680  Biso   1.000  O
  O11      1.0000 0.42870  0.32890  0.42833  Biso   1.000  O
  O12      1.0000 0.35091  0.22355  0.35279  Biso   1.000  O
  O13      1.0000 0.21391  0.10843  0.37888  Biso   1.000  O
  O14      1.0000 0.27084  0.90409  0.39463  Biso   1.000  O
  O15      1.0000 0.27920  0.88499  0.71697  Biso   1.000  O
  O16      1.0000 0.21008  0.07482  0.73241  Biso   1.000  O
  H3       1.0000 0.40760  0.29900  0.56220  Biso   1.000  H
  H4       1.0000 0.22910  0.95600  0.55420  Biso   1.000  H
  Mg3      1.0000 0.74481  0.26214  0.19590  Biso   1.000  Mg
  C21      1.0000 0.84470  0.32700  0.37061  Biso   1.000  C
  C22      1.0000 0.86979  0.27190  0.43981  Biso   1.000  C
  C23      1.0000 0.84313  0.31370  0.51094  Biso   1.000  C
  C24      1.0000 0.79027  0.41740  0.51307  Biso   1.000  C
  C25      1.0000 0.76558  0.47500  0.44379  Biso   1.000  C
  C26      1.0000 0.79099  0.42900  0.37272  Biso   1.000  C
  C27      1.0000 0.75811  0.49480  0.30116  Biso   1.000  C
  C28      1.0000 0.87826  0.27440  0.29687  Biso   1.000  C
  C29      1.0000 0.87621  0.24840  0.58216  Biso   1.000  C
  C30      1.0000 0.75640  0.47140  0.58673  Biso   1.000  C
  O17      1.0000 0.84579  0.29130  0.23446  Biso   1.000  O
  O18      1.0000 0.93789  0.21660  0.30320  Biso   1.000  O
  O19      1.0000 0.92870  0.17110  0.57167  Biso   1.000  O
  O20      1.0000 0.85091  0.27645  0.64721  Biso   1.000  O
  O21      1.0000 0.71391  0.39157  0.62112  Biso   1.000  O
  O22      1.0000 0.77084  0.59591  0.60537  Biso   1.000  O
  O23      1.0000 0.77920  0.61501  0.28303  Biso   1.000  O
  O24      1.0000 0.71008  0.42518  0.26759  Biso   1.000  O
  H5       1.0000 0.90760  0.20100  0.43780  Biso   1.000  H
  H6       1.0000 0.72910  0.54400  0.44580  Biso   1.000  H
  Mg4      1.0000 0.75519  0.23786  0.69590  Biso   1.000  Mg
  C31      1.0000 0.65530  0.17300  0.87061  Biso   1.000  C
  C32      1.0000 0.63021  0.22810  0.93981  Biso   1.000  C
  C33      1.0000 0.65687  0.18630  0.01094  Biso   1.000  C
  C34      1.0000 0.70973  0.08260  0.01307  Biso   1.000  C
  C35      1.0000 0.73442  0.02500  0.94379  Biso   1.000  C
  C36      1.0000 0.70901  0.07100  0.87272  Biso   1.000  C
  C37      1.0000 0.74189  0.00520  0.80116  Biso   1.000  C
  C38      1.0000 0.62174  0.22560  0.79687  Biso   1.000  C
  C39      1.0000 0.62379  0.25160  0.08216  Biso   1.000  C
  C40      1.0000 0.74360  0.02860  0.08673  Biso   1.000  C
  O25      1.0000 0.65421  0.20870  0.73446  Biso   1.000  O
  O26      1.0000 0.56211  0.28340  0.80320  Biso   1.000  O
  O27      1.0000 0.57130  0.32890  0.07167  Biso   1.000  O
  O28      1.0000 0.64909  0.22355  0.14721  Biso   1.000  O
  O29      1.0000 0.78609  0.10843  0.12112  Biso   1.000  O
  O30      1.0000 0.72916  0.90409  0.10537  Biso   1.000  O
  O31      1.0000 0.72080  0.88499  0.78303  Biso   1.000  O
  O32      1.0000 0.78992  0.07482  0.76759  Biso   1.000  O
  H7       1.0000 0.59240  0.29900  0.93780  Biso   1.000  H
  H8       1.0000 0.77090  0.95600  0.94580  Biso   1.000  H
  Mg5      1.0000 0.74481  0.73786  0.69590  Biso   1.000  Mg
  C41      1.0000 0.84470  0.67300  0.87061  Biso   1.000  C
  C42      1.0000 0.86979  0.72810  0.93981  Biso   1.000  C
  C43      1.0000 0.84313  0.68630  0.01094  Biso   1.000  C
  C44      1.0000 0.79027  0.58260  0.01307  Biso   1.000  C
  C45      1.0000 0.76558  0.52500  0.94379  Biso   1.000  C
  C46      1.0000 0.79099  0.57100  0.87272  Biso   1.000  C
  C47      1.0000 0.75811  0.50520  0.80116  Biso   1.000  C
  C48      1.0000 0.87826  0.72560  0.79687  Biso   1.000  C
  C49      1.0000 0.87621  0.75160  0.08216  Biso   1.000  C
  C50      1.0000 0.75640  0.52860  0.08673  Biso   1.000  C
  O33      1.0000 0.84579  0.70870  0.73446  Biso   1.000  O
  O34      1.0000 0.93789  0.78340  0.80320  Biso   1.000  O
  O35      1.0000 0.92870  0.82890  0.07167  Biso   1.000  O
  O36      1.0000 0.85091  0.72355  0.14721  Biso   1.000  O
  O37      1.0000 0.71391  0.60843  0.12112  Biso   1.000  O
  O38      1.0000 0.77084  0.40409  0.10537  Biso   1.000  O
  O39      1.0000 0.77920  0.38499  0.78303  Biso   1.000  O
  O40      1.0000 0.71008  0.57482  0.76759  Biso   1.000  O
  H9       1.0000 0.90760  0.79900  0.93780  Biso   1.000  H
  H10      1.0000 0.72910  0.45600  0.94580  Biso   1.000  H
  Mg6      1.0000 0.75519  0.76214  0.19590  Biso   1.000  Mg
  C51      1.0000 0.65530  0.82700  0.37061  Biso   1.000  C
  C52      1.0000 0.63021  0.77190  0.43981  Biso   1.000  C
  C53      1.0000 0.65687  0.81370  0.51094  Biso   1.000  C
  C54      1.0000 0.70973  0.91740  0.51307  Biso   1.000  C
  C55      1.0000 0.73442  0.97500  0.44379  Biso   1.000  C
  C56      1.0000 0.70901  0.92900  0.37272  Biso   1.000  C
  C57      1.0000 0.74189  0.99480  0.30116  Biso   1.000  C
  C58      1.0000 0.62174  0.77440  0.29687  Biso   1.000  C
  C59      1.0000 0.62379  0.74840  0.58216  Biso   1.000  C
  C60      1.0000 0.74360  0.97140  0.58673  Biso   1.000  C
  O41      1.0000 0.65421  0.79130  0.23446  Biso   1.000  O
  O42      1.0000 0.56211  0.71660  0.30320  Biso   1.000  O
  O43      1.0000 0.57130  0.67110  0.57167  Biso   1.000  O
  O44      1.0000 0.64909  0.77645  0.64721  Biso   1.000  O
  O45      1.0000 0.78609  0.89157  0.62112  Biso   1.000  O
  O46      1.0000 0.72916  0.09591  0.60537  Biso   1.000  O
  O47      1.0000 0.72080  0.11501  0.28303  Biso   1.000  O
  O48      1.0000 0.78992  0.92518  0.26759  Biso   1.000  O
  H11      1.0000 0.59240  0.70100  0.43780  Biso   1.000  H
  H12      1.0000 0.77090  0.04400  0.44580  Biso   1.000  H
  Mg7      1.0000 0.25519  0.73786  0.80410  Biso   1.000  Mg
  C61      1.0000 0.15530  0.67300  0.62939  Biso   1.000  C
  C62      1.0000 0.13021  0.72810  0.56019  Biso   1.000  C
  C63      1.0000 0.15687  0.68630  0.48906  Biso   1.000  C
  C64      1.0000 0.20973  0.58260  0.48693  Biso   1.000  C
  C65      1.0000 0.23442  0.52500  0.55621  Biso   1.000  C
  C66      1.0000 0.20901  0.57100  0.62728  Biso   1.000  C
  C67      1.0000 0.24189  0.50520  0.69884  Biso   1.000  C
  C68      1.0000 0.12174  0.72560  0.70313  Biso   1.000  C
  C69      1.0000 0.12379  0.75160  0.41784  Biso   1.000  C
  C70      1.0000 0.24360  0.52860  0.41327  Biso   1.000  C
  O49      1.0000 0.15421  0.70870  0.76554  Biso   1.000  O
  O50      1.0000 0.06211  0.78340  0.69680  Biso   1.000  O
  O51      1.0000 0.07130  0.82890  0.42833  Biso   1.000  O
  O52      1.0000 0.14909  0.72355  0.35279  Biso   1.000  O
  O53      1.0000 0.28609  0.60843  0.37888  Biso   1.000  O
  O54      1.0000 0.22916  0.40409  0.39463  Biso   1.000  O
  O55      1.0000 0.22080  0.38499  0.71697  Biso   1.000  O
  O56      1.0000 0.28992  0.57482  0.73241  Biso   1.000  O
  H13      1.0000 0.09240  0.79900  0.56220  Biso   1.000  H
  H14      1.0000 0.27090  0.45600  0.55420  Biso   1.000  H
  Mg8      1.0000 0.24481  0.76214  0.30410  Biso   1.000  Mg
  C71      1.0000 0.34470  0.82700  0.12939  Biso   1.000  C
  C72      1.0000 0.36979  0.77190  0.06019  Biso   1.000  C
  C73      1.0000 0.34313  0.81370  0.98906  Biso   1.000  C
  C74      1.0000 0.29027  0.91740  0.98693  Biso   1.000  C
  C75      1.0000 0.26558  0.97500  0.05621  Biso   1.000  C
  C76      1.0000 0.29099  0.92900  0.12728  Biso   1.000  C
  C77      1.0000 0.25811  0.99480  0.19884  Biso   1.000  C
  C78      1.0000 0.37826  0.77440  0.20313  Biso   1.000  C
  C79      1.0000 0.37621  0.74840  0.91784  Biso   1.000  C
  C80      1.0000 0.25640  0.97140  0.91327  Biso   1.000  C
  O57      1.0000 0.34579  0.79130  0.26554  Biso   1.000  O
  O58      1.0000 0.43789  0.71660  0.19680  Biso   1.000  O
  O59      1.0000 0.42870  0.67110  0.92833  Biso   1.000  O
  O60      1.0000 0.35091  0.77645  0.85279  Biso   1.000  O
  O61      1.0000 0.21391  0.89157  0.87888  Biso   1.000  O
  O62      1.0000 0.27084  0.09591  0.89463  Biso   1.000  O
  O63      1.0000 0.27920  0.11501  0.21697  Biso   1.000  O
  O64      1.0000 0.21008  0.92518  0.23241  Biso   1.000  O
  H15      1.0000 0.40760  0.70100  0.06220  Biso   1.000  H
  H16      1.0000 0.22910  0.04400  0.05420  Biso   1.000  H
  Mg9      1.0000 0.00000  0.07076  0.25000  Biso   1.000  Mg
  Mg10     1.0000 0.50000  0.42924  0.75000  Biso   1.000  Mg
  Mg11     1.0000 0.00000  0.92924  0.75000  Biso   1.000  Mg
  Mg12     1.0000 0.50000  0.57076  0.25000  Biso   1.000  Mg
