data_MIJMAU_clean
_audit_creation_date              2014-07-02
_audit_creation_method            'Materials Studio'
_symmetry_space_group_name_H-M    'P1'
_symmetry_Int_Tables_number       1
_symmetry_cell_setting            triclinic
loop_
_symmetry_equiv_pos_as_xyz
  x,y,z
_cell_length_a                    16.1312
_cell_length_b                    16.1312
_cell_length_c                    16.2674
_cell_angle_alpha                 73.6582
_cell_angle_beta                  68.1988
_cell_angle_gamma                 109.9830
loop_
_atom_site_label
_atom_site_type_symbol
_atom_site_fract_x
_atom_site_fract_y
_atom_site_fract_z
_atom_site_U_iso_or_equiv
_atom_site_adp_type
_atom_site_occupancy
Ni1    Ni    0.50000   0.00000   0.00000   0.01267  Uiso   1.00
Ni2    Ni    0.50000   0.50000   0.50000   0.01267  Uiso   1.00
Ni3    Ni    0.50000   0.00000   0.50000   0.01267  Uiso   1.00
Ni4    Ni    0.00000   0.00000   0.00000   0.01267  Uiso   1.00
H1     H     0.44160   0.01540   0.21660   0.01267  Uiso   1.00
H2     H     0.37170   0.06230   0.24140   0.01267  Uiso   1.00
H3     H     0.30780   0.00090   0.14430   0.01267  Uiso   1.00
H4     H     0.72960   0.14170   0.90090   0.01267  Uiso   1.00
H5     H     0.75580   0.22260   0.80000   0.01267  Uiso   1.00
H6     H     0.60590   0.23140   0.89170   0.01267  Uiso   1.00
H7     H     0.68270   0.26080   0.93010   0.01267  Uiso   1.00
H8     H     0.41270   0.22000   0.09070   0.01267  Uiso   1.00
H9     H     0.39260   0.14500   0.04720   0.01267  Uiso   1.00
H10    H     0.49650   0.24700   0.98410   0.01267  Uiso   1.00
H11    H     0.58010   0.17620   0.16130   0.01267  Uiso   1.00
H12    H     0.51340   0.22840   0.17000   0.01267  Uiso   1.00
H13    H     0.61370   0.27100   0.06770   0.01267  Uiso   1.00
H14    H     0.18520   0.83780   0.28860   0.01267  Uiso   1.00
H15    H     0.19130   0.92710   0.31160   0.01267  Uiso   1.00
H16    H     0.24640   0.87060   0.34000   0.01267  Uiso   1.00
H17    H     0.25310   0.87240   0.69030   0.01267  Uiso   1.00
H18    H     0.18080   0.78460   0.68360   0.01267  Uiso   1.00
H19    H     0.30370   0.88540   0.49970   0.01267  Uiso   1.00
H20    H     0.58640   0.93840   0.63020   0.01267  Uiso   1.00
H21    H     0.64630   0.89390   0.57420   0.01267  Uiso   1.00
H22    H     0.50400   0.80210   0.56790   0.01267  Uiso   1.00
H23    H     0.47280   0.77520   0.67980   0.01267  Uiso   1.00
H24    H     0.19000   0.66350   0.79170   0.01267  Uiso   1.00
H25    H     0.25280   0.74790   0.80950   0.01267  Uiso   1.00
H26    H     0.29540   0.67950   0.78190   0.01267  Uiso   1.00
H27    H     0.33160   0.76940   0.53640   0.01267  Uiso   1.00
H28    H     0.24460   0.67110   0.63610   0.01267  Uiso   1.00
H29    H     0.36080   0.70400   0.59880   0.01267  Uiso   1.00
H30    H     0.15330   0.92580   0.61010   0.01267  Uiso   1.00
H31    H     0.14380   0.86700   0.54900   0.01267  Uiso   1.00
H32    H     0.21500   0.98330   0.49270   0.01267  Uiso   1.00
H33    H     0.59750   0.10660   0.05030   0.01267  Uiso   1.00
H34    H     0.38780   0.87860   0.18340   0.01267  Uiso   1.00
H35    H     0.41250   0.87830   0.67700   0.01267  Uiso   1.00
H36    H     0.34560   0.02170   0.56570   0.01267  Uiso   1.00
H37    H     0.73200   0.65820   0.28340   0.01267  Uiso   1.00
H38    H     0.80370   0.61310   0.25860   0.01267  Uiso   1.00
H39    H     0.64520   0.45210   0.35570   0.01267  Uiso   1.00
H40    H     0.54260   0.63050   0.59910   0.01267  Uiso   1.00
H41    H     0.52260   0.55580   0.70000   0.01267  Uiso   1.00
H42    H     0.62310   0.49760   0.60830   0.01267  Uiso   1.00
H43    H     0.69090   0.61280   0.56990   0.01267  Uiso   1.00
H44    H     0.81070   0.50340   0.40930   0.01267  Uiso   1.00
H45    H     0.69220   0.43980   0.45280   0.01267  Uiso   1.00
H46    H     0.73110   0.48060   0.51590   0.01267  Uiso   1.00
H47    H     0.83750   0.74140   0.33870   0.01267  Uiso   1.00
H48    H     0.89840   0.68340   0.33000   0.01267  Uiso   1.00
H49    H     0.83870   0.68140   0.43230   0.01267  Uiso   1.00
H50    H     0.62640   0.47380   0.21140   0.01267  Uiso   1.00
H51    H     0.73870   0.50290   0.18840   0.01267  Uiso   1.00
H52    H     0.71060   0.58640   0.16000   0.01267  Uiso   1.00
H53    H     0.06270   0.94340   0.80970   0.01267  Uiso   1.00
H54    H     0.96820   0.86440   0.81640   0.01267  Uiso   1.00
H55    H     0.88510   0.80340   0.00030   0.01267  Uiso   1.00
H56    H     0.06860   0.21660   0.86980   0.01267  Uiso   1.00
H57    H     0.96810   0.22050   0.92580   0.01267  Uiso   1.00
H58    H     0.87000   0.07190   0.93210   0.01267  Uiso   1.00
H59    H     0.95500   0.15260   0.82020   0.01267  Uiso   1.00
H60    H     0.95520   0.98170   0.70830   0.01267  Uiso   1.00
H61    H     0.05740   0.06230   0.69050   0.01267  Uiso   1.00
H62    H     0.96140   0.07730   0.71810   0.01267  Uiso   1.00
H63    H     0.80580   0.86800   0.96360   0.01267  Uiso   1.00
H64    H     0.80720   0.88070   0.86390   0.01267  Uiso   1.00
H65    H     0.80280   0.95960   0.90120   0.01267  Uiso   1.00
H66    H     0.03590   0.76340   0.88990   0.01267  Uiso   1.00
H67    H     0.91600   0.69280   0.95100   0.01267  Uiso   1.00
H68    H     0.97600   0.70770   0.00730   0.01267  Uiso   1.00
H69    H     0.65690   0.64780   0.44970   0.01267  Uiso   1.00
H70    H     0.56200   0.57120   0.31660   0.01267  Uiso   1.00
H71    H     0.05530   0.08950   0.82300   0.01267  Uiso   1.00
H72    H     0.08740   0.91130   0.93430   0.01267  Uiso   1.00
H73    H     0.55840   0.98460   0.78340   0.01267  Uiso   1.00
H74    H     0.62830   0.93770   0.75860   0.01267  Uiso   1.00
H75    H     0.69220   0.99910   0.85570   0.01267  Uiso   1.00
H76    H     0.27040   0.85830   0.09910   0.01267  Uiso   1.00
H77    H     0.24420   0.77740   0.20000   0.01267  Uiso   1.00
H78    H     0.39410   0.76860   0.10830   0.01267  Uiso   1.00
H79    H     0.31730   0.73920   0.06990   0.01267  Uiso   1.00
H80    H     0.58730   0.78000   0.90930   0.01267  Uiso   1.00
H81    H     0.60740   0.85500   0.95280   0.01267  Uiso   1.00
H82    H     0.50350   0.75300   0.01590   0.01267  Uiso   1.00
H83    H     0.41990   0.82380   0.83870   0.01267  Uiso   1.00
H84    H     0.48660   0.77160   0.83000   0.01267  Uiso   1.00
H85    H     0.38630   0.72900   0.93230   0.01267  Uiso   1.00
H86    H     0.81480   0.16220   0.71140   0.01267  Uiso   1.00
H87    H     0.80870   0.07290   0.68840   0.01267  Uiso   1.00
H88    H     0.75360   0.12940   0.66000   0.01267  Uiso   1.00
H89    H     0.74690   0.12760   0.30970   0.01267  Uiso   1.00
H90    H     0.81920   0.21540   0.31640   0.01267  Uiso   1.00
H91    H     0.69630   0.11460   0.50030   0.01267  Uiso   1.00
H92    H     0.41360   0.06160   0.36980   0.01267  Uiso   1.00
H93    H     0.35370   0.10610   0.42580   0.01267  Uiso   1.00
H94    H     0.49600   0.19790   0.43210   0.01267  Uiso   1.00
H95    H     0.52720   0.22480   0.32020   0.01267  Uiso   1.00
H96    H     0.81000   0.33650   0.20830   0.01267  Uiso   1.00
H97    H     0.74720   0.25210   0.19050   0.01267  Uiso   1.00
H98    H     0.70460   0.32050   0.21810   0.01267  Uiso   1.00
H99    H     0.66840   0.23060   0.46360   0.01267  Uiso   1.00
H100   H     0.75540   0.32890   0.36390   0.01267  Uiso   1.00
H101   H     0.63920   0.29600   0.40120   0.01267  Uiso   1.00
H102   H     0.84670   0.07420   0.38990   0.01267  Uiso   1.00
H103   H     0.85620   0.13300   0.45100   0.01267  Uiso   1.00
H104   H     0.78500   0.01670   0.50730   0.01267  Uiso   1.00
H105   H     0.40250   0.89340   0.94970   0.01267  Uiso   1.00
H106   H     0.61220   0.12140   0.81660   0.01267  Uiso   1.00
H107   H     0.58750   0.12170   0.32300   0.01267  Uiso   1.00
H108   H     0.65440   0.97830   0.43430   0.01267  Uiso   1.00
H109   H     0.26800   0.34180   0.71660   0.01267  Uiso   1.00
H110   H     0.19630   0.38690   0.74140   0.01267  Uiso   1.00
H111   H     0.35480   0.54790   0.64430   0.01267  Uiso   1.00
H112   H     0.45740   0.36950   0.40090   0.01267  Uiso   1.00
H113   H     0.47740   0.44420   0.30000   0.01267  Uiso   1.00
H114   H     0.37690   0.50240   0.39170   0.01267  Uiso   1.00
H115   H     0.30910   0.38720   0.43010   0.01267  Uiso   1.00
H116   H     0.18930   0.49660   0.59070   0.01267  Uiso   1.00
H117   H     0.30780   0.56020   0.54720   0.01267  Uiso   1.00
H118   H     0.26890   0.51940   0.48410   0.01267  Uiso   1.00
H119   H     0.16250   0.25860   0.66130   0.01267  Uiso   1.00
H120   H     0.10160   0.31660   0.67000   0.01267  Uiso   1.00
H121   H     0.16130   0.31860   0.56770   0.01267  Uiso   1.00
H122   H     0.37360   0.52620   0.78860   0.01267  Uiso   1.00
H123   H     0.26130   0.49710   0.81160   0.01267  Uiso   1.00
H124   H     0.28940   0.41360   0.84000   0.01267  Uiso   1.00
H125   H     0.93730   0.05660   0.19030   0.01267  Uiso   1.00
H126   H     0.03180   0.13560   0.18360   0.01267  Uiso   1.00
H127   H     0.11490   0.19660   0.99970   0.01267  Uiso   1.00
H128   H     0.93140   0.78340   0.13020   0.01267  Uiso   1.00
H129   H     0.03190   0.77950   0.07420   0.01267  Uiso   1.00
H130   H     0.13000   0.92810   0.06790   0.01267  Uiso   1.00
H131   H     0.04500   0.84740   0.17980   0.01267  Uiso   1.00
H132   H     0.04480   0.01830   0.29170   0.01267  Uiso   1.00
H133   H     0.94260   0.93770   0.30950   0.01267  Uiso   1.00
H134   H     0.03860   0.92270   0.28190   0.01267  Uiso   1.00
H135   H     0.19420   0.13200   0.03640   0.01267  Uiso   1.00
H136   H     0.19280   0.11930   0.13610   0.01267  Uiso   1.00
H137   H     0.19720   0.04040   0.09880   0.01267  Uiso   1.00
H138   H     0.96410   0.23660   0.11010   0.01267  Uiso   1.00
H139   H     0.08400   0.30720   0.04900   0.01267  Uiso   1.00
H140   H     0.02400   0.29230   0.99270   0.01267  Uiso   1.00
H141   H     0.34310   0.35220   0.55030   0.01267  Uiso   1.00
H142   H     0.43800   0.42880   0.68340   0.01267  Uiso   1.00
H143   H     0.94470   0.91050   0.17700   0.01267  Uiso   1.00
H144   H     0.91260   0.08870   0.06570   0.01267  Uiso   1.00
W1     W     0.39543   0.14543   0.75000   0.01267  Uiso   1.00
W2     W     0.60457   0.85457   0.25000   0.01267  Uiso   1.00
C1     C     0.40720   0.08130   0.87710   0.01267  Uiso   1.00
C2     C     0.46810   0.09580   0.64990   0.01267  Uiso   1.00
C3     C     0.30010   0.98540   0.82310   0.01267  Uiso   1.00
C4     C     0.55930   0.21940   0.69810   0.01267  Uiso   1.00
C5     C     0.49310   0.14460   0.09730   0.01267  Uiso   1.00
C6     C     0.40790   0.04600   0.19150   0.01267  Uiso   1.00
C7     C     0.32700   0.96690   0.18790   0.01267  Uiso   1.00
C8     C     0.70000   0.16850   0.86590   0.01267  Uiso   1.00
C9     C     0.63840   0.20710   0.92450   0.01267  Uiso   1.00
C10    C     0.44410   0.19370   0.05040   0.01267  Uiso   1.00
C11    C     0.55580   0.21120   0.12680   0.01267  Uiso   1.00
C12    C     0.22820   0.89380   0.29180   0.01267  Uiso   1.00
C13    C     0.31430   0.78530   0.66060   0.01267  Uiso   1.00
C14    C     0.25190   0.83660   0.65130   0.01267  Uiso   1.00
C15    C     0.28150   0.91040   0.54730   0.01267  Uiso   1.00
C16    C     0.59520   0.91460   0.58080   0.01267  Uiso   1.00
C17    C     0.49620   0.82780   0.61580   0.01267  Uiso   1.00
C18    C     0.25790   0.71240   0.77110   0.01267  Uiso   1.00
C19    C     0.31270   0.72720   0.60270   0.01267  Uiso   1.00
C20    C     0.18970   0.92280   0.55010   0.01267  Uiso   1.00
C21    C     0.45840   0.28430   0.62290   0.01267  Uiso   1.00
C22    C     0.24570   0.11800   0.85010   0.01267  Uiso   1.00
C23    C     0.30850   0.12320   0.67690   0.01267  Uiso   1.00
C24    C     0.41750   0.25740   0.80190   0.01267  Uiso   1.00
C25    C     0.74190   0.59040   0.40270   0.01267  Uiso   1.00
C26    C     0.73750   0.59940   0.30850   0.01267  Uiso   1.00
C27    C     0.65480   0.51490   0.31210   0.01267  Uiso   1.00
C28    C     0.53440   0.56590   0.63410   0.01267  Uiso   1.00
C29    C     0.63160   0.56290   0.57550   0.01267  Uiso   1.00
C30    C     0.74410   0.49450   0.44960   0.01267  Uiso   1.00
C31    C     0.83800   0.68260   0.37320   0.01267  Uiso   1.00
C32    C     0.68560   0.52000   0.20820   0.01267  Uiso   1.00
C33    C     0.94590   0.97490   0.83940   0.01267  Uiso   1.00
C34    C     0.98790   0.90320   0.84870   0.01267  Uiso   1.00
C35    C     0.95770   0.82880   0.95270   0.01267  Uiso   1.00
C36    C     0.99540   0.17600   0.91920   0.01267  Uiso   1.00
C37    C     0.94360   0.11200   0.88420   0.01267  Uiso   1.00
C38    C     0.98350   0.02900   0.72890   0.01267  Uiso   1.00
C39    C     0.82990   0.91540   0.89730   0.01267  Uiso   1.00
C40    C     0.97290   0.73980   0.94990   0.01267  Uiso   1.00
C41    C     0.59280   0.91870   0.12290   0.01267  Uiso   1.00
C42    C     0.53190   0.90420   0.35010   0.01267  Uiso   1.00
C43    C     0.69990   0.01460   0.17690   0.01267  Uiso   1.00
C44    C     0.44070   0.78060   0.30190   0.01267  Uiso   1.00
C45    C     0.50690   0.85540   0.90270   0.01267  Uiso   1.00
C46    C     0.59210   0.95400   0.80850   0.01267  Uiso   1.00
C47    C     0.67300   0.03310   0.81210   0.01267  Uiso   1.00
C48    C     0.30000   0.83150   0.13410   0.01267  Uiso   1.00
C49    C     0.36160   0.79290   0.07550   0.01267  Uiso   1.00
C50    C     0.55590   0.80630   0.94960   0.01267  Uiso   1.00
C51    C     0.44420   0.78880   0.87320   0.01267  Uiso   1.00
C52    C     0.77180   0.10620   0.70820   0.01267  Uiso   1.00
C53    C     0.68570   0.21470   0.33940   0.01267  Uiso   1.00
C54    C     0.74810   0.16340   0.34870   0.01267  Uiso   1.00
C55    C     0.71850   0.08960   0.45270   0.01267  Uiso   1.00
C56    C     0.40480   0.08540   0.41920   0.01267  Uiso   1.00
C57    C     0.50380   0.17220   0.38420   0.01267  Uiso   1.00
C58    C     0.74210   0.28760   0.22890   0.01267  Uiso   1.00
C59    C     0.68730   0.27280   0.39730   0.01267  Uiso   1.00
C60    C     0.81030   0.07720   0.44990   0.01267  Uiso   1.00
C61    C     0.54160   0.71570   0.37710   0.01267  Uiso   1.00
C62    C     0.75430   0.88200   0.14990   0.01267  Uiso   1.00
C63    C     0.69150   0.87680   0.32310   0.01267  Uiso   1.00
C64    C     0.58250   0.74260   0.19810   0.01267  Uiso   1.00
C65    C     0.25810   0.40960   0.59730   0.01267  Uiso   1.00
C66    C     0.26250   0.40060   0.69150   0.01267  Uiso   1.00
C67    C     0.34520   0.48510   0.68790   0.01267  Uiso   1.00
C68    C     0.46560   0.43410   0.36590   0.01267  Uiso   1.00
C69    C     0.36840   0.43710   0.42450   0.01267  Uiso   1.00
C70    C     0.25590   0.50550   0.55040   0.01267  Uiso   1.00
C71    C     0.16200   0.31740   0.62680   0.01267  Uiso   1.00
C72    C     0.31440   0.48000   0.79180   0.01267  Uiso   1.00
C73    C     0.05410   0.02510   0.16060   0.01267  Uiso   1.00
C74    C     0.01210   0.09680   0.15130   0.01267  Uiso   1.00
C75    C     0.04230   0.17120   0.04730   0.01267  Uiso   1.00
C76    C     0.00460   0.82400   0.08080   0.01267  Uiso   1.00
C77    C     0.05640   0.88800   0.11580   0.01267  Uiso   1.00
C78    C     0.01650   0.97100   0.27110   0.01267  Uiso   1.00
C79    C     0.17010   0.08460   0.10270   0.01267  Uiso   1.00
C80    C     0.02710   0.26020   0.05010   0.01267  Uiso   1.00
N1     N     0.41730   0.04850   0.94200   0.01267  Uiso   1.00
N2     N     0.49690   0.06430   0.59800   0.01267  Uiso   1.00
N3     N     0.25090   0.90000   0.86530   0.01267  Uiso   1.00
N4     N     0.64410   0.25830   0.67220   0.01267  Uiso   1.00
N5     N     0.55970   0.12020   0.02430   0.01267  Uiso   1.00
N6     N     0.36880   0.90860   0.14320   0.01267  Uiso   1.00
N7     N     0.42090   0.86290   0.62580   0.01267  Uiso   1.00
N8     N     0.36650   0.00210   0.51800   0.01267  Uiso   1.00
N9     N     0.49050   0.35930   0.55800   0.01267  Uiso   1.00
N10    N     0.16230   0.09490   0.90200   0.01267  Uiso   1.00
N11    N     0.26530   0.11620   0.63470   0.01267  Uiso   1.00
N12    N     0.43050   0.31630   0.82780   0.01267  Uiso   1.00
N13    N     0.64450   0.58400   0.47570   0.01267  Uiso   1.00
N14    N     0.55180   0.51200   0.35680   0.01267  Uiso   1.00
N15    N     0.98870   0.04670   0.87420   0.01267  Uiso   1.00
N16    N     0.02010   0.88450   0.98200   0.01267  Uiso   1.00
N17    N     0.58270   0.95150   0.05800   0.01267  Uiso   1.00
N18    N     0.50310   0.93570   0.40200   0.01267  Uiso   1.00
N19    N     0.74910   0.10000   0.13470   0.01267  Uiso   1.00
N20    N     0.35590   0.74170   0.32780   0.01267  Uiso   1.00
N21    N     0.44030   0.87980   0.97570   0.01267  Uiso   1.00
N22    N     0.63120   0.09140   0.85680   0.01267  Uiso   1.00
N23    N     0.57910   0.13710   0.37420   0.01267  Uiso   1.00
N24    N     0.63350   0.99790   0.48200   0.01267  Uiso   1.00
N25    N     0.50950   0.64070   0.44200   0.01267  Uiso   1.00
N26    N     0.83770   0.90510   0.09800   0.01267  Uiso   1.00
N27    N     0.73470   0.88380   0.36530   0.01267  Uiso   1.00
N28    N     0.56950   0.68370   0.17220   0.01267  Uiso   1.00
N29    N     0.35550   0.41600   0.52430   0.01267  Uiso   1.00
N30    N     0.44820   0.48800   0.64320   0.01267  Uiso   1.00
N31    N     0.01130   0.95330   0.12580   0.01267  Uiso   1.00
N32    N     0.97990   0.11550   0.01800   0.01267  Uiso   1.00
