data_image0
_cell_length_a       9.605
_cell_length_b       21.278
_cell_length_c       16.747
_cell_angle_alpha    90
_cell_angle_beta     91.464
_cell_angle_gamma    90

_symmetry_space_group_name_H-M    "P 1"
_symmetry_int_tables_number       1

loop_
  _symmetry_equiv_pos_as_xyz
  'x, y, z'

loop_
  _atom_site_label
  _atom_site_occupancy
  _atom_site_fract_x
  _atom_site_fract_y
  _atom_site_fract_z
  _atom_site_thermal_displace_type
  _atom_site_B_iso_or_equiv
  _atom_site_type_symbol
  U1       1.0000 0.78101  0.24148  0.96260  Biso   1.000  U
  U2       1.0000 0.70895  0.24190  0.51626  Biso   1.000  U
  U3       1.0000 0.24392  0.13977  0.74296  Biso   1.000  U
  P1       1.0000 0.53180  0.34370  0.05641  Biso   1.000  P
  P2       1.0000 0.95750  0.34748  0.42830  Biso   1.000  P
  P3       1.0000 0.50000  0.14147  0.57761  Biso   1.000  P
  P4       1.0000 0.98970  0.13760  0.90717  Biso   1.000  P
  O1       1.0000 0.64760  0.32420  0.00270  Biso   1.000  O
  O2       1.0000 0.41930  0.29270  0.06370  Biso   1.000  O
  O3       1.0000 0.58800  0.36050  0.13920  Biso   1.000  O
  O4       1.0000 0.84130  0.32640  0.48130  Biso   1.000  O
  O5       1.0000 0.06670  0.29600  0.41700  Biso   1.000  O
  O6       1.0000 0.89980  0.36760  0.34720  Biso   1.000  O
  O7       1.0000 0.65650  0.14730  0.58850  Biso   1.000  O
  O8       1.0000 0.45950  0.19530  0.51990  Biso   1.000  O
  O9       1.0000 0.42590  0.14680  0.65620  Biso   1.000  O
  O10      1.0000 0.03130  0.19640  0.95520  Biso   1.000  O
  O11      1.0000 0.83410  0.14540  0.89220  Biso   1.000  O
  O12      1.0000 0.06770  0.13080  0.83040  Biso   1.000  O
  C1       1.0000 0.44690  0.41300  0.01730  Biso   1.000  C
  H1       1.0000 0.40560  0.40300  0.96540  Biso   1.000  H
  H2       1.0000 0.37160  0.42400  0.05230  Biso   1.000  H
  C2       1.0000 0.54040  0.47060  0.00830  Biso   1.000  C
  H3       1.0000 0.59600  0.47610  0.05700  Biso   1.000  H
  H4       1.0000 0.60360  0.46330  0.96500  Biso   1.000  H
  C3       1.0000 0.04440  0.41380  0.47220  Biso   1.000  C
  H5       1.0000 0.08850  0.40040  0.52210  Biso   1.000  H
  H6       1.0000 0.11800  0.42650  0.43700  Biso   1.000  H
  C4       1.0000 0.95600  0.47150  0.48930  Biso   1.000  C
  H7       1.0000 0.89810  0.48110  0.44260  Biso   1.000  H
  H8       1.0000 0.89500  0.46220  0.53300  Biso   1.000  H
  C5       1.0000 0.02840  0.06950  0.96510  Biso   1.000  C
  C6       1.0000 0.98500  0.01060  0.93220  Biso   1.000  C
  C7       1.0000 0.45560  0.06790  0.53310  Biso   1.000  C
  C8       1.0000 0.50700  0.01190  0.57580  Biso   1.000  C
  C9       1.0000 0.52800  0.05570  0.46260  Biso   1.000  C
  C10      1.0000 0.96600  0.05600  0.03390  Biso   1.000  C
  U4       1.0000 0.71899  0.74148  0.53740  Biso   1.000  U
  U5       1.0000 0.79105  0.74190  0.98374  Biso   1.000  U
  U6       1.0000 0.25608  0.63977  0.75704  Biso   1.000  U
  P5       1.0000 0.96820  0.84370  0.44359  Biso   1.000  P
  P6       1.0000 0.54250  0.84748  0.07170  Biso   1.000  P
  P7       1.0000 0.00000  0.64147  0.92239  Biso   1.000  P
  P8       1.0000 0.51030  0.63760  0.59283  Biso   1.000  P
  O13      1.0000 0.85240  0.82420  0.49730  Biso   1.000  O
  O14      1.0000 0.08070  0.79270  0.43630  Biso   1.000  O
  O15      1.0000 0.91200  0.86050  0.36080  Biso   1.000  O
  O16      1.0000 0.65870  0.82640  0.01870  Biso   1.000  O
  O17      1.0000 0.43330  0.79600  0.08300  Biso   1.000  O
  O18      1.0000 0.60020  0.86760  0.15280  Biso   1.000  O
  O19      1.0000 0.84350  0.64730  0.91150  Biso   1.000  O
  O20      1.0000 0.04050  0.69530  0.98010  Biso   1.000  O
  O21      1.0000 0.07410  0.64680  0.84380  Biso   1.000  O
  O22      1.0000 0.46870  0.69640  0.54480  Biso   1.000  O
  O23      1.0000 0.66590  0.64540  0.60780  Biso   1.000  O
  O24      1.0000 0.43230  0.63080  0.66960  Biso   1.000  O
  C11      1.0000 0.05310  0.91300  0.48270  Biso   1.000  C
  H9       1.0000 0.09440  0.90300  0.53460  Biso   1.000  H
  H10      1.0000 0.12840  0.92400  0.44770  Biso   1.000  H
  C12      1.0000 0.95960  0.97060  0.49170  Biso   1.000  C
  H11      1.0000 0.90400  0.97610  0.44300  Biso   1.000  H
  H12      1.0000 0.89640  0.96330  0.53500  Biso   1.000  H
  C13      1.0000 0.45560  0.91380  0.02780  Biso   1.000  C
  H13      1.0000 0.41150  0.90040  0.97790  Biso   1.000  H
  H14      1.0000 0.38200  0.92650  0.06300  Biso   1.000  H
  C14      1.0000 0.54400  0.97150  0.01070  Biso   1.000  C
  H15      1.0000 0.60190  0.98110  0.05740  Biso   1.000  H
  H16      1.0000 0.60500  0.96220  0.96700  Biso   1.000  H
  C15      1.0000 0.47160  0.56950  0.53490  Biso   1.000  C
  C16      1.0000 0.51500  0.51060  0.56780  Biso   1.000  C
  C17      1.0000 0.04440  0.56790  0.96690  Biso   1.000  C
  C18      1.0000 0.99300  0.51190  0.92420  Biso   1.000  C
  C19      1.0000 0.97200  0.55570  0.03740  Biso   1.000  C
  C20      1.0000 0.53400  0.55600  0.46610  Biso   1.000  C
  U7       1.0000 0.21899  0.75852  0.03740  Biso   1.000  U
  U8       1.0000 0.29105  0.75810  0.48374  Biso   1.000  U
  U9       1.0000 0.75608  0.86023  0.25704  Biso   1.000  U
  P9       1.0000 0.46820  0.65630  0.94359  Biso   1.000  P
  P10      1.0000 0.04250  0.65252  0.57170  Biso   1.000  P
  P11      1.0000 0.50000  0.85853  0.42239  Biso   1.000  P
  P12      1.0000 0.01030  0.86240  0.09283  Biso   1.000  P
  O25      1.0000 0.35240  0.67580  0.99730  Biso   1.000  O
  O26      1.0000 0.58070  0.70730  0.93630  Biso   1.000  O
  O27      1.0000 0.41200  0.63950  0.86080  Biso   1.000  O
  O28      1.0000 0.15870  0.67360  0.51870  Biso   1.000  O
  O29      1.0000 0.93330  0.70400  0.58300  Biso   1.000  O
  O30      1.0000 0.10020  0.63240  0.65280  Biso   1.000  O
  O31      1.0000 0.34350  0.85270  0.41150  Biso   1.000  O
  O32      1.0000 0.54050  0.80470  0.48010  Biso   1.000  O
  O33      1.0000 0.57410  0.85320  0.34380  Biso   1.000  O
  O34      1.0000 0.96870  0.80360  0.04480  Biso   1.000  O
  O35      1.0000 0.16590  0.85460  0.10780  Biso   1.000  O
  O36      1.0000 0.93230  0.86920  0.16960  Biso   1.000  O
  C21      1.0000 0.55310  0.58700  0.98270  Biso   1.000  C
  H17      1.0000 0.59440  0.59700  0.03460  Biso   1.000  H
  H18      1.0000 0.62840  0.57600  0.94770  Biso   1.000  H
  C22      1.0000 0.45960  0.52940  0.99170  Biso   1.000  C
  H19      1.0000 0.40400  0.52390  0.94300  Biso   1.000  H
  H20      1.0000 0.39640  0.53670  0.03500  Biso   1.000  H
  C23      1.0000 0.95560  0.58620  0.52780  Biso   1.000  C
  H21      1.0000 0.91150  0.59960  0.47790  Biso   1.000  H
  H22      1.0000 0.88200  0.57350  0.56300  Biso   1.000  H
  C24      1.0000 0.04400  0.52850  0.51070  Biso   1.000  C
  H23      1.0000 0.10190  0.51890  0.55740  Biso   1.000  H
  H24      1.0000 0.10500  0.53780  0.46700  Biso   1.000  H
  C25      1.0000 0.97160  0.93050  0.03490  Biso   1.000  C
  C26      1.0000 0.01500  0.98940  0.06780  Biso   1.000  C
  C27      1.0000 0.54440  0.93210  0.46690  Biso   1.000  C
  C28      1.0000 0.49300  0.98810  0.42420  Biso   1.000  C
  C29      1.0000 0.47200  0.94430  0.53740  Biso   1.000  C
  C30      1.0000 0.03400  0.94400  0.96610  Biso   1.000  C
  U10      1.0000 0.28101  0.25852  0.46260  Biso   1.000  U
  U11      1.0000 0.20895  0.25810  0.01626  Biso   1.000  U
  U12      1.0000 0.74392  0.36023  0.24296  Biso   1.000  U
  P13      1.0000 0.03180  0.15630  0.55641  Biso   1.000  P
  P14      1.0000 0.45750  0.15252  0.92830  Biso   1.000  P
  P15      1.0000 0.00000  0.35853  0.07761  Biso   1.000  P
  P16      1.0000 0.48970  0.36240  0.40717  Biso   1.000  P
  O37      1.0000 0.14760  0.17580  0.50270  Biso   1.000  O
  O38      1.0000 0.91930  0.20730  0.56370  Biso   1.000  O
  O39      1.0000 0.08800  0.13950  0.63920  Biso   1.000  O
  O40      1.0000 0.34130  0.17360  0.98130  Biso   1.000  O
  O41      1.0000 0.56670  0.20400  0.91700  Biso   1.000  O
  O42      1.0000 0.39980  0.13240  0.84720  Biso   1.000  O
  O43      1.0000 0.15650  0.35270  0.08850  Biso   1.000  O
  O44      1.0000 0.95950  0.30470  0.01990  Biso   1.000  O
  O45      1.0000 0.92590  0.35320  0.15620  Biso   1.000  O
  O46      1.0000 0.53130  0.30360  0.45520  Biso   1.000  O
  O47      1.0000 0.33410  0.35460  0.39220  Biso   1.000  O
  O48      1.0000 0.56770  0.36920  0.33040  Biso   1.000  O
  C31      1.0000 0.94690  0.08700  0.51730  Biso   1.000  C
  H25      1.0000 0.90560  0.09700  0.46540  Biso   1.000  H
  H26      1.0000 0.87160  0.07600  0.55230  Biso   1.000  H
  C32      1.0000 0.04040  0.02940  0.50830  Biso   1.000  C
  H27      1.0000 0.09600  0.02390  0.55700  Biso   1.000  H
  H28      1.0000 0.10360  0.03670  0.46500  Biso   1.000  H
  C33      1.0000 0.54440  0.08620  0.97220  Biso   1.000  C
  H29      1.0000 0.58850  0.09960  0.02210  Biso   1.000  H
  H30      1.0000 0.61800  0.07350  0.93700  Biso   1.000  H
  C34      1.0000 0.45600  0.02850  0.98930  Biso   1.000  C
  H31      1.0000 0.39810  0.01890  0.94260  Biso   1.000  H
  H32      1.0000 0.39500  0.03780  0.03300  Biso   1.000  H
  C35      1.0000 0.52840  0.43050  0.46510  Biso   1.000  C
  C36      1.0000 0.48500  0.48940  0.43220  Biso   1.000  C
  C37      1.0000 0.95560  0.43210  0.03310  Biso   1.000  C
  C38      1.0000 0.00700  0.48810  0.07580  Biso   1.000  C
  C39      1.0000 0.02800  0.44430  0.96260  Biso   1.000  C
  C40      1.0000 0.46600  0.44400  0.53390  Biso   1.000  C
