data_MIKJAR_clean
_audit_creation_date              2014-07-02
_audit_creation_method            'Materials Studio'
_symmetry_space_group_name_H-M    'P1'
_symmetry_Int_Tables_number       1
_symmetry_cell_setting            triclinic
loop_
_symmetry_equiv_pos_as_xyz
  x,y,z
_cell_length_a                    13.4664
_cell_length_b                    14.4449
_cell_length_c                    14.4449
_cell_angle_alpha                 69.1974
_cell_angle_beta                  71.8954
_cell_angle_gamma                 108.1050
loop_
_atom_site_label
_atom_site_type_symbol
_atom_site_fract_x
_atom_site_fract_y
_atom_site_fract_z
_atom_site_U_iso_or_equiv
_atom_site_adp_type
_atom_site_occupancy
Ga1    Ga    0.14640   0.17390   0.37320   0.01267  Uiso   1.00
Ga2    Ga    0.19250   0.86420   0.54320   0.01267  Uiso   1.00
Ga3    Ga    0.51960   0.37320   0.45290   0.01267  Uiso   1.00
Ga4    Ga    0.73570   0.54320   0.59260   0.01267  Uiso   1.00
Ga5    Ga    0.97250   0.45290   0.17390   0.01267  Uiso   1.00
Ga6    Ga    0.32830   0.59260   0.86420   0.01267  Uiso   1.00
Ga7    Ga    0.85360   0.82610   0.62680   0.01267  Uiso   1.00
Ga8    Ga    0.80750   0.13580   0.45680   0.01267  Uiso   1.00
Ga9    Ga    0.48040   0.62680   0.54710   0.01267  Uiso   1.00
Ga10   Ga    0.26430   0.45680   0.40740   0.01267  Uiso   1.00
Ga11   Ga    0.02750   0.54710   0.82610   0.01267  Uiso   1.00
Ga12   Ga    0.67170   0.40740   0.13580   0.01267  Uiso   1.00
P1     P     0.06390   0.94660   0.39910   0.01267  Uiso   1.00
P2     P     0.06160   0.35230   0.33350   0.01267  Uiso   1.00
P3     P     0.46300   0.39910   0.65430   0.01267  Uiso   1.00
P4     P     0.39510   0.33350   0.31420   0.01267  Uiso   1.00
P5     P     0.11730   0.65430   0.94660   0.01267  Uiso   1.00
P6     P     0.70930   0.31420   0.35230   0.01267  Uiso   1.00
P7     P     0.93610   0.05340   0.60090   0.01267  Uiso   1.00
P8     P     0.93840   0.64770   0.66650   0.01267  Uiso   1.00
P9     P     0.53700   0.60090   0.34570   0.01267  Uiso   1.00
P10    P     0.60490   0.66650   0.68580   0.01267  Uiso   1.00
P11    P     0.88270   0.34570   0.05340   0.01267  Uiso   1.00
P12    P     0.29070   0.68580   0.64770   0.01267  Uiso   1.00
H1     H     0.32510   0.84740   0.39110   0.01267  Uiso   1.00
H2     H     0.25570   0.88740   0.34980   0.01267  Uiso   1.00
H3     H     0.30790   0.08230   0.45860   0.01267  Uiso   1.00
H4     H     0.11190   0.81720   0.75000   0.01267  Uiso   1.00
H5     H     0.04960   0.86940   0.70140   0.01267  Uiso   1.00
H6     H     0.46330   0.01600   0.26720   0.01267  Uiso   1.00
H7     H     0.36970   0.06750   0.29140   0.01267  Uiso   1.00
H8     H     0.37950   0.09350   0.57540   0.01267  Uiso   1.00
H9     H     0.35360   0.96870   0.62550   0.01267  Uiso   1.00
H10    H     0.49840   0.11350   0.36830   0.01267  Uiso   1.00
H11    H     0.45710   0.97740   0.45000   0.01267  Uiso   1.00
H12    H     0.19570   0.97090   0.74200   0.01267  Uiso   1.00
H13    H     0.17000   0.03530   0.64170   0.01267  Uiso   1.00
H14    H     0.71620   0.39110   0.76150   0.01267  Uiso   1.00
H15    H     0.60550   0.34980   0.76280   0.01267  Uiso   1.00
H16    H     0.76650   0.45860   0.45910   0.01267  Uiso   1.00
H17    H     0.86190   0.75000   0.43280   0.01267  Uiso   1.00
H18    H     0.75100   0.70140   0.42920   0.01267  Uiso   1.00
H19    H     0.73050   0.26720   0.71680   0.01267  Uiso   1.00
H20    H     0.66110   0.29140   0.64110   0.01267  Uiso   1.00
H21    H     0.95490   0.57540   0.33110   0.01267  Uiso   1.00
H22    H     0.97910   0.62550   0.40580   0.01267  Uiso   1.00
H23    H     0.86670   0.36830   0.51820   0.01267  Uiso   1.00
H24    H     0.90710   0.45000   0.57260   0.01267  Uiso   1.00
H25    H     0.93770   0.74200   0.28710   0.01267  Uiso   1.00
H26    H     0.81170   0.64170   0.32300   0.01267  Uiso   1.00
H27    H     0.47770   0.76150   0.84740   0.01267  Uiso   1.00
H28    H     0.36830   0.76280   0.88740   0.01267  Uiso   1.00
H29    H     0.22560   0.45910   0.08230   0.01267  Uiso   1.00
H30    H     0.29470   0.43280   0.81720   0.01267  Uiso   1.00
H31    H     0.18020   0.42920   0.86940   0.01267  Uiso   1.00
H32    H     0.44730   0.71680   0.01600   0.01267  Uiso   1.00
H33    H     0.30220   0.64110   0.06750   0.01267  Uiso   1.00
H34    H     0.28600   0.33110   0.09350   0.01267  Uiso   1.00
H35    H     0.38490   0.40580   0.96870   0.01267  Uiso   1.00
H36    H     0.38490   0.51820   0.11350   0.01267  Uiso   1.00
H37    H     0.47970   0.57260   0.97740   0.01267  Uiso   1.00
H38    H     0.22480   0.28710   0.97090   0.01267  Uiso   1.00
H39    H     0.13470   0.32300   0.03530   0.01267  Uiso   1.00
H40    H     0.67490   0.15260   0.60890   0.01267  Uiso   1.00
H41    H     0.74430   0.11260   0.65020   0.01267  Uiso   1.00
H42    H     0.69210   0.91770   0.54140   0.01267  Uiso   1.00
H43    H     0.88810   0.18280   0.25000   0.01267  Uiso   1.00
H44    H     0.95040   0.13060   0.29860   0.01267  Uiso   1.00
H45    H     0.53670   0.98400   0.73280   0.01267  Uiso   1.00
H46    H     0.63030   0.93250   0.70860   0.01267  Uiso   1.00
H47    H     0.62050   0.90650   0.42460   0.01267  Uiso   1.00
H48    H     0.64640   0.03130   0.37450   0.01267  Uiso   1.00
H49    H     0.50160   0.88650   0.63170   0.01267  Uiso   1.00
H50    H     0.54290   0.02260   0.55000   0.01267  Uiso   1.00
H51    H     0.80430   0.02910   0.25800   0.01267  Uiso   1.00
H52    H     0.83000   0.96470   0.35830   0.01267  Uiso   1.00
H53    H     0.28380   0.60890   0.23850   0.01267  Uiso   1.00
H54    H     0.39450   0.65020   0.23720   0.01267  Uiso   1.00
H55    H     0.23350   0.54140   0.54090   0.01267  Uiso   1.00
H56    H     0.13810   0.25000   0.56720   0.01267  Uiso   1.00
H57    H     0.24900   0.29860   0.57080   0.01267  Uiso   1.00
H58    H     0.26950   0.73280   0.28320   0.01267  Uiso   1.00
H59    H     0.33890   0.70860   0.35890   0.01267  Uiso   1.00
H60    H     0.04510   0.42460   0.66890   0.01267  Uiso   1.00
H61    H     0.02090   0.37450   0.59420   0.01267  Uiso   1.00
H62    H     0.13330   0.63170   0.48180   0.01267  Uiso   1.00
H63    H     0.09290   0.55000   0.42740   0.01267  Uiso   1.00
H64    H     0.06230   0.25800   0.71290   0.01267  Uiso   1.00
H65    H     0.18830   0.35830   0.67700   0.01267  Uiso   1.00
H66    H     0.52230   0.23850   0.15260   0.01267  Uiso   1.00
H67    H     0.63170   0.23720   0.11260   0.01267  Uiso   1.00
H68    H     0.77440   0.54090   0.91770   0.01267  Uiso   1.00
H69    H     0.70530   0.56720   0.18280   0.01267  Uiso   1.00
H70    H     0.81980   0.57080   0.13060   0.01267  Uiso   1.00
H71    H     0.55270   0.28320   0.98400   0.01267  Uiso   1.00
H72    H     0.69780   0.35890   0.93250   0.01267  Uiso   1.00
H73    H     0.71400   0.66890   0.90650   0.01267  Uiso   1.00
H74    H     0.61510   0.59420   0.03130   0.01267  Uiso   1.00
H75    H     0.61510   0.48180   0.88650   0.01267  Uiso   1.00
H76    H     0.52030   0.42740   0.02260   0.01267  Uiso   1.00
H77    H     0.77520   0.71290   0.02910   0.01267  Uiso   1.00
H78    H     0.86530   0.67700   0.96470   0.01267  Uiso   1.00
C1     C     0.39850   0.01010   0.32340   0.01267  Uiso   1.00
C2     C     0.43250   0.03950   0.40320   0.01267  Uiso   1.00
C3     C     0.32510   0.01990   0.59300   0.01267  Uiso   1.00
C4     C     0.19960   0.98040   0.67350   0.01267  Uiso   1.00
C5     C     0.72190   0.32340   0.66650   0.01267  Uiso   1.00
C6     C     0.83570   0.40320   0.55730   0.01267  Uiso   1.00
C7     C     0.91810   0.59300   0.38710   0.01267  Uiso   1.00
C8     C     0.87310   0.67350   0.34610   0.01267  Uiso   1.00
C9     C     0.38840   0.66650   0.01010   0.01267  Uiso   1.00
C10    C     0.39300   0.55730   0.03950   0.01267  Uiso   1.00
C11    C     0.30520   0.38710   0.01990   0.01267  Uiso   1.00
C12    C     0.21920   0.34610   0.98040   0.01267  Uiso   1.00
C13    C     0.60150   0.98990   0.67660   0.01267  Uiso   1.00
C14    C     0.56750   0.96050   0.59680   0.01267  Uiso   1.00
C15    C     0.67490   0.98010   0.40700   0.01267  Uiso   1.00
C16    C     0.80040   0.01960   0.32650   0.01267  Uiso   1.00
C17    C     0.27810   0.67660   0.33350   0.01267  Uiso   1.00
C18    C     0.16430   0.59680   0.44270   0.01267  Uiso   1.00
C19    C     0.08190   0.40700   0.61290   0.01267  Uiso   1.00
C20    C     0.12690   0.32650   0.65390   0.01267  Uiso   1.00
C21    C     0.61160   0.33350   0.98990   0.01267  Uiso   1.00
C22    C     0.60700   0.44270   0.96050   0.01267  Uiso   1.00
C23    C     0.69480   0.61290   0.98010   0.01267  Uiso   1.00
C24    C     0.78080   0.65390   0.01960   0.01267  Uiso   1.00
N1     N     0.29970   0.89370   0.38700   0.01267  Uiso   1.00
N2     N     0.32510   0.01910   0.49200   0.01267  Uiso   1.00
N3     N     0.12180   0.87270   0.68700   0.01267  Uiso   1.00
N4     N     0.68670   0.38700   0.71930   0.01267  Uiso   1.00
N5     N     0.81710   0.49200   0.48890   0.01267  Uiso   1.00
N6     N     0.80880   0.68700   0.44030   0.01267  Uiso   1.00
N7     N     0.40600   0.71930   0.89370   0.01267  Uiso   1.00
N8     N     0.30600   0.48890   0.01910   0.01267  Uiso   1.00
N9     N     0.24910   0.44030   0.87270   0.01267  Uiso   1.00
N10    N     0.70030   0.10630   0.61300   0.01267  Uiso   1.00
N11    N     0.67490   0.98090   0.50800   0.01267  Uiso   1.00
N12    N     0.87820   0.12730   0.31300   0.01267  Uiso   1.00
N13    N     0.31330   0.61300   0.28070   0.01267  Uiso   1.00
N14    N     0.18290   0.50800   0.51110   0.01267  Uiso   1.00
N15    N     0.19120   0.31300   0.55970   0.01267  Uiso   1.00
N16    N     0.59400   0.28070   0.10630   0.01267  Uiso   1.00
N17    N     0.69400   0.51110   0.98090   0.01267  Uiso   1.00
N18    N     0.75090   0.55970   0.12730   0.01267  Uiso   1.00
O1     O     0.11950   0.94660   0.47680   0.01267  Uiso   1.00
O2     O     0.09060   0.07120   0.33200   0.01267  Uiso   1.00
O3     O     0.92610   0.87360   0.47610   0.01267  Uiso   1.00
O4     O     0.10670   0.90550   0.32200   0.01267  Uiso   1.00
O5     O     0.11810   0.28550   0.29490   0.01267  Uiso   1.00
O6     O     0.08150   0.44810   0.22440   0.01267  Uiso   1.00
O7     O     0.11820   0.40150   0.39140   0.01267  Uiso   1.00
O8     O     0.92840   0.27850   0.41030   0.01267  Uiso   1.00
O9     O     0.59630   0.47680   0.57660   0.01267  Uiso   1.00
O10    O     0.42260   0.33200   0.59680   0.01267  Uiso   1.00
O11    O     0.40220   0.47610   0.65030   0.01267  Uiso   1.00
O12    O     0.42870   0.32200   0.77250   0.01267  Uiso   1.00
O13    O     0.41300   0.29490   0.41960   0.01267  Uiso   1.00
O14    O     0.30590   0.22440   0.32750   0.01267  Uiso   1.00
O15    O     0.50960   0.39140   0.20710   0.01267  Uiso   1.00
O16    O     0.33870   0.41030   0.31120   0.01267  Uiso   1.00
O17    O     0.17290   0.57660   0.94660   0.01267  Uiso   1.00
O18    O     0.01940   0.59680   0.07120   0.01267  Uiso   1.00
O19    O     0.05250   0.65030   0.87360   0.01267  Uiso   1.00
O20    O     0.20120   0.77250   0.90550   0.01267  Uiso   1.00
O21    O     0.83260   0.41960   0.28550   0.01267  Uiso   1.00
O22    O     0.63340   0.32750   0.44810   0.01267  Uiso   1.00
O23    O     0.71670   0.20710   0.40150   0.01267  Uiso   1.00
O24    O     0.64990   0.31120   0.27850   0.01267  Uiso   1.00
O25    O     0.88050   0.05340   0.52320   0.01267  Uiso   1.00
O26    O     0.90940   0.92880   0.66800   0.01267  Uiso   1.00
O27    O     0.07390   0.12640   0.52390   0.01267  Uiso   1.00
O28    O     0.89330   0.09450   0.67800   0.01267  Uiso   1.00
O29    O     0.88190   0.71450   0.70510   0.01267  Uiso   1.00
O30    O     0.91850   0.55190   0.77560   0.01267  Uiso   1.00
O31    O     0.88180   0.59850   0.60860   0.01267  Uiso   1.00
O32    O     0.07160   0.72150   0.58970   0.01267  Uiso   1.00
O33    O     0.40370   0.52320   0.42340   0.01267  Uiso   1.00
O34    O     0.57740   0.66800   0.40320   0.01267  Uiso   1.00
O35    O     0.59780   0.52390   0.34970   0.01267  Uiso   1.00
O36    O     0.57130   0.67800   0.22750   0.01267  Uiso   1.00
O37    O     0.58700   0.70510   0.58040   0.01267  Uiso   1.00
O38    O     0.69410   0.77560   0.67250   0.01267  Uiso   1.00
O39    O     0.49040   0.60860   0.79290   0.01267  Uiso   1.00
O40    O     0.66130   0.58970   0.68880   0.01267  Uiso   1.00
O41    O     0.82710   0.42340   0.05340   0.01267  Uiso   1.00
O42    O     0.98060   0.40320   0.92880   0.01267  Uiso   1.00
O43    O     0.94750   0.34970   0.12640   0.01267  Uiso   1.00
O44    O     0.79880   0.22750   0.09450   0.01267  Uiso   1.00
O45    O     0.16740   0.58040   0.71450   0.01267  Uiso   1.00
O46    O     0.36660   0.67250   0.55190   0.01267  Uiso   1.00
O47    O     0.28330   0.79290   0.59850   0.01267  Uiso   1.00
O48    O     0.35010   0.68880   0.72150   0.01267  Uiso   1.00
