data_image0
_cell_length_a       9.5387
_cell_length_b       10.425
_cell_length_c       11.59
_cell_angle_alpha    75.02
_cell_angle_beta     84.8
_cell_angle_gamma    80.99

_symmetry_space_group_name_H-M    "P 1"
_symmetry_int_tables_number       1

loop_
  _symmetry_equiv_pos_as_xyz
  'x, y, z'

loop_
  _atom_site_label
  _atom_site_occupancy
  _atom_site_fract_x
  _atom_site_fract_y
  _atom_site_fract_z
  _atom_site_thermal_displace_type
  _atom_site_B_iso_or_equiv
  _atom_site_type_symbol
  Ca1      1.0000 0.45791  0.41304  0.36061  Biso   1.000  Ca
  O1       1.0000 0.29200  0.60300  0.07500  Biso   1.000  O
  O2       1.0000 0.24230  0.48420  0.26000  Biso   1.000  O
  O3       1.0000 0.96100  0.51960  0.21455  Biso   1.000  O
  O4       1.0000 0.71650  0.43870  0.34042  Biso   1.000  O
  O5       1.0000 0.59950  0.50570  0.17438  Biso   1.000  O
  O6       1.0000 0.47300  0.77880  0.48232  Biso   1.000  O
  O7       1.0000 0.44100  0.62490  0.39060  Biso   1.000  O
  O8       1.0000 0.44540  0.97230  0.29813  Biso   1.000  O
  O9       1.0000 0.47120  0.21360  0.29618  Biso   1.000  O
  O10      1.0000 0.43840  0.28970  0.09922  Biso   1.000  O
  C1       1.0000 0.20850  0.55410  0.15940  Biso   1.000  C
  C2       1.0000 0.05570  0.58390  0.13280  Biso   1.000  C
  C3       1.0000 0.98840  0.66000  0.03540  Biso   1.000  C
  H1       1.0000 0.02930  0.71400  0.96810  Biso   1.000  H
  C4       1.0000 0.84390  0.64160  0.05590  Biso   1.000  C
  H2       1.0000 0.77100  0.68120  0.00460  Biso   1.000  H
  C5       1.0000 0.83190  0.55570  0.16380  Biso   1.000  C
  C6       1.0000 0.70940  0.49530  0.23140  Biso   1.000  C
  C7       1.0000 0.44760  0.74250  0.39170  Biso   1.000  C
  C8       1.0000 0.42390  0.85080  0.28230  Biso   1.000  C
  C9       1.0000 0.38540  0.86690  0.17030  Biso   1.000  C
  H3       1.0000 0.36440  0.80040  0.13700  Biso   1.000  H
  C10      1.0000 0.38280  0.00520  0.11250  Biso   1.000  C
  H4       1.0000 0.35930  0.04630  0.03410  Biso   1.000  H
  C11      1.0000 0.42080  0.06560  0.19240  Biso   1.000  C
  C12      1.0000 0.44540  0.20140  0.19480  Biso   1.000  C
  Ca2      1.0000 0.54209  0.58696  0.63939  Biso   1.000  Ca
  O11      1.0000 0.70800  0.39700  0.92500  Biso   1.000  O
  O12      1.0000 0.75770  0.51580  0.74000  Biso   1.000  O
  O13      1.0000 0.03900  0.48040  0.78545  Biso   1.000  O
  O14      1.0000 0.28350  0.56130  0.65958  Biso   1.000  O
  O15      1.0000 0.40050  0.49430  0.82562  Biso   1.000  O
  O16      1.0000 0.52700  0.22120  0.51768  Biso   1.000  O
  O17      1.0000 0.55900  0.37510  0.60940  Biso   1.000  O
  O18      1.0000 0.55460  0.02770  0.70187  Biso   1.000  O
  O19      1.0000 0.52880  0.78640  0.70382  Biso   1.000  O
  O20      1.0000 0.56160  0.71030  0.90078  Biso   1.000  O
  C13      1.0000 0.79150  0.44590  0.84060  Biso   1.000  C
  C14      1.0000 0.94430  0.41610  0.86720  Biso   1.000  C
  C15      1.0000 0.01160  0.34000  0.96460  Biso   1.000  C
  H5       1.0000 0.97070  0.28600  0.03190  Biso   1.000  H
  C16      1.0000 0.15610  0.35840  0.94410  Biso   1.000  C
  H6       1.0000 0.22900  0.31880  0.99540  Biso   1.000  H
  C17      1.0000 0.16810  0.44430  0.83620  Biso   1.000  C
  C18      1.0000 0.29060  0.50470  0.76860  Biso   1.000  C
  C19      1.0000 0.55240  0.25750  0.60830  Biso   1.000  C
  C20      1.0000 0.57610  0.14920  0.71770  Biso   1.000  C
  C21      1.0000 0.61460  0.13310  0.82970  Biso   1.000  C
  H7       1.0000 0.63560  0.19960  0.86300  Biso   1.000  H
  C22      1.0000 0.61720  0.99480  0.88750  Biso   1.000  C
  H8       1.0000 0.64070  0.95370  0.96590  Biso   1.000  H
  C23      1.0000 0.57920  0.93440  0.80760  Biso   1.000  C
  C24      1.0000 0.55460  0.79860  0.80520  Biso   1.000  C
  Ca3      1.0000 0.50000  0.00000  0.50000  Biso   1.000  Ca
  Ca4      1.0000 0.50000  0.50000  0.00000  Biso   1.000  Ca
