data_MINCUJ_clean
_audit_creation_date              2015-10-16
_audit_creation_method            'Materials Studio'
_symmetry_space_group_name_H-M    'P1'
_symmetry_Int_Tables_number       1
_symmetry_cell_setting            triclinic
loop_
_symmetry_equiv_pos_as_xyz
  x,y,z
_cell_length_a                    15.1466
_cell_length_b                    15.1466
_cell_length_c                    25.6891
_cell_angle_alpha                 84.5093
_cell_angle_beta                  77.3949
_cell_angle_gamma                 117.8780
loop_
_atom_site_label
_atom_site_type_symbol
_atom_site_fract_x
_atom_site_fract_y
_atom_site_fract_z
_atom_site_U_iso_or_equiv
_atom_site_adp_type
_atom_site_occupancy
Tb1    Tb    0.34883   0.91570   0.44903   0.01267  Uiso   1.00
Tb2    Tb    0.13527   0.20214   0.94903   0.01267  Uiso   1.00
Tb3    Tb    0.86473   0.79786   0.05097   0.01267  Uiso   1.00
Tb4    Tb    0.65117   0.08430   0.55097   0.01267  Uiso   1.00
H1     H     0.87070   0.91670   0.47880   0.01267  Uiso   1.00
H2     H     0.47830   0.76140   0.69130   0.01267  Uiso   1.00
H3     H     0.91960   0.13580   0.72800   0.01267  Uiso   1.00
H4     H     0.52170   0.23860   0.30870   0.01267  Uiso   1.00
H5     H     0.90150   0.12680   0.65370   0.01267  Uiso   1.00
H6     H     0.95270   0.16960   0.80870   0.01267  Uiso   1.00
H7     H     0.75230   0.93150   0.13820   0.01267  Uiso   1.00
H8     H     0.08040   0.86420   0.27200   0.01267  Uiso   1.00
H9     H     0.09850   0.87320   0.34630   0.01267  Uiso   1.00
H10    H     0.24920   0.07000   0.53820   0.01267  Uiso   1.00
H11    H     0.21900   0.15810   0.75850   0.01267  Uiso   1.00
H12    H     0.01020   0.91620   0.49800   0.01267  Uiso   1.00
H13    H     0.75080   0.93000   0.46180   0.01267  Uiso   1.00
H14    H     0.56970   0.89050   0.36180   0.01267  Uiso   1.00
H15    H     0.41660   0.97750   0.74150   0.01267  Uiso   1.00
H16    H     0.12930   0.08330   0.52120   0.01267  Uiso   1.00
H17    H     0.33200   0.01670   0.79450   0.01267  Uiso   1.00
H18    H     0.78100   0.84190   0.24150   0.01267  Uiso   1.00
H19    H     0.89550   0.34950   0.02120   0.01267  Uiso   1.00
H20    H     0.08580   0.49180   0.99800   0.01267  Uiso   1.00
H21    H     0.63620   0.35240   0.22800   0.01267  Uiso   1.00
H22    H     0.68880   0.87350   0.29450   0.01267  Uiso   1.00
H23    H     0.58340   0.02250   0.25850   0.01267  Uiso   1.00
H24    H     0.43030   0.10950   0.63820   0.01267  Uiso   1.00
H25    H     0.89180   0.21260   0.03820   0.01267  Uiso   1.00
H26    H     0.66800   0.98330   0.20550   0.01267  Uiso   1.00
H27    H     0.31120   0.12650   0.70550   0.01267  Uiso   1.00
H28    H     0.71950   0.44480   0.15370   0.01267  Uiso   1.00
H29    H     0.28050   0.55520   0.84630   0.01267  Uiso   1.00
H30    H     0.98980   0.08380   0.50200   0.01267  Uiso   1.00
H31    H     0.91420   0.50820   0.00200   0.01267  Uiso   1.00
H32    H     0.10820   0.78740   0.96180   0.01267  Uiso   1.00
H33    H     0.10450   0.65050   0.97880   0.01267  Uiso   1.00
H34    H     0.24770   0.06850   0.86180   0.01267  Uiso   1.00
H35    H     0.04730   0.83040   0.19130   0.01267  Uiso   1.00
H36    H     0.36380   0.64760   0.77200   0.01267  Uiso   1.00
C1     C     0.94830   0.86870   0.30840   0.01267  Uiso   1.00
C2     C     0.01820   0.85840   0.26620   0.01267  Uiso   1.00
C3     C     0.89750   0.89800   0.40090   0.01267  Uiso   1.00
C4     C     0.74620   0.32960   0.13940   0.01267  Uiso   1.00
C5     C     0.96900   0.88560   0.36060   0.01267  Uiso   1.00
C6     C     0.26180   0.08320   0.57200   0.01267  Uiso   1.00
C7     C     0.84480   0.16620   0.07200   0.01267  Uiso   1.00
C8     C     0.71150   0.02980   0.17110   0.01267  Uiso   1.00
C9     C     0.99990   0.09100   0.53690   0.01267  Uiso   1.00
C10    C     0.10590   0.95810   0.95800   0.01267  Uiso   1.00
C11    C     0.05170   0.13130   0.69160   0.01267  Uiso   1.00
C12    C     0.15730   0.15290   0.75240   0.01267  Uiso   1.00
C13    C     0.21240   0.80270   0.88890   0.01267  Uiso   1.00
C14    C     0.00000   0.15970   0.78230   0.01267  Uiso   1.00
C15    C     0.52570   0.95490   0.65440   0.01267  Uiso   1.00
C16    C     0.05250   0.88420   0.37290   0.01267  Uiso   1.00
C17    C     0.16500   0.90100   0.43300   0.01267  Uiso   1.00
C18    C     0.79890   0.29840   0.09910   0.01267  Uiso   1.00
C19    C     0.16830   0.92990   0.91660   0.01267  Uiso   1.00
C20    C     0.86040   0.86520   0.29720   0.01267  Uiso   1.00
C21    C     0.20110   0.70160   0.90090   0.01267  Uiso   1.00
C22    C     0.62460   0.28440   0.23380   0.01267  Uiso   1.00
C23    C     0.00010   0.90900   0.46310   0.01267  Uiso   1.00
C24    C     0.83170   0.07010   0.08340   0.01267  Uiso   1.00
C25    C     0.91810   0.90890   0.45120   0.01267  Uiso   1.00
C26    C     0.41610   0.06390   0.54200   0.01267  Uiso   1.00
C27    C     0.89410   0.04190   0.04200   0.01267  Uiso   1.00
C28    C     0.75710   0.42540   0.12710   0.01267  Uiso   1.00
C29    C     0.87210   0.46320   0.03690   0.01267  Uiso   1.00
C30    C     0.67710   0.25670   0.19160   0.01267  Uiso   1.00
C31    C     0.24290   0.57460   0.87290   0.01267  Uiso   1.00
C32    C     0.47430   0.04510   0.34560   0.01267  Uiso   1.00
C33    C     0.40530   0.90970   0.74760   0.01267  Uiso   1.00
C34    C     0.03100   0.11440   0.63940   0.01267  Uiso   1.00
C35    C     0.27830   0.87200   0.83870   0.01267  Uiso   1.00
C36    C     0.63120   0.89530   0.36810   0.01267  Uiso   1.00
C37    C     0.70090   0.88260   0.32890   0.01267  Uiso   1.00
C38    C     0.91070   0.83620   0.20610   0.01267  Uiso   1.00
C39    C     0.83500   0.09900   0.56700   0.01267  Uiso   1.00
C40    C     0.18030   0.50690   0.92160   0.01267  Uiso   1.00
C41    C     0.89070   0.81990   0.15440   0.01267  Uiso   1.00
C42    C     0.19160   0.10130   0.61110   0.01267  Uiso   1.00
C43    C     0.21070   0.11700   0.66130   0.01267  Uiso   1.00
C44    C     0.44200   0.78230   0.71770   0.01267  Uiso   1.00
C45    C     0.12790   0.53680   0.96310   0.01267  Uiso   1.00
C46    C     0.92850   0.10190   0.57840   0.01267  Uiso   1.00
C47    C     0.45770   0.88320   0.70610   0.01267  Uiso   1.00
C48    C     0.10930   0.18010   0.84560   0.01267  Uiso   1.00
C49    C     0.76340   0.99930   0.13190   0.01267  Uiso   1.00
C50    C     0.73820   0.91680   0.42800   0.01267  Uiso   1.00
C51    C     0.07150   0.89810   0.42160   0.01267  Uiso   1.00
C52    C     0.00000   0.84030   0.21770   0.01267  Uiso   1.00
C53    C     0.16600   0.40200   0.93300   0.01267  Uiso   1.00
C54    C     0.55800   0.21770   0.28230   0.01267  Uiso   1.00
C55    C     0.10250   0.10200   0.59910   0.01267  Uiso   1.00
C56    C     0.13960   0.13480   0.70280   0.01267  Uiso   1.00
C57    C     0.08190   0.09110   0.54880   0.01267  Uiso   1.00
C58    C     0.08930   0.16380   0.79390   0.01267  Uiso   1.00
C59    C     0.36880   0.10470   0.63190   0.01267  Uiso   1.00
C60    C     0.15520   0.83380   0.92800   0.01267  Uiso   1.00
C61    C     0.25380   0.67040   0.86060   0.01267  Uiso   1.00
C62    C     0.28850   0.97020   0.82890   0.01267  Uiso   1.00
C63    C     0.81970   0.49310   0.07840   0.01267  Uiso   1.00
C64    C     0.58390   0.93610   0.45800   0.01267  Uiso   1.00
C65    C     0.66240   0.15760   0.20280   0.01267  Uiso   1.00
C66    C     0.59470   0.09030   0.25240   0.01267  Uiso   1.00
C67    C     0.34650   0.08490   0.58340   0.01267  Uiso   1.00
C68    C     0.83400   0.59800   0.06700   0.01267  Uiso   1.00
C69    C     0.13990   0.63070   0.95120   0.01267  Uiso   1.00
C70    C     0.37540   0.71560   0.76620   0.01267  Uiso   1.00
C71    C     0.32290   0.74330   0.80840   0.01267  Uiso   1.00
C72    C     0.94750   0.11580   0.62710   0.01267  Uiso   1.00
C73    C     0.33760   0.84240   0.79720   0.01267  Uiso   1.00
C74    C     0.23660   0.00070   0.86810   0.01267  Uiso   1.00
C75    C     0.65350   0.91510   0.41660   0.01267  Uiso   1.00
C76    C     0.84270   0.84710   0.24760   0.01267  Uiso   1.00
C77    C     0.86010   0.36930   0.04880   0.01267  Uiso   1.00
C78    C     0.29910   0.11740   0.67110   0.01267  Uiso   1.00
C79    C     0.72170   0.12800   0.16130   0.01267  Uiso   1.00
C80    C     0.78760   0.19730   0.11110   0.01267  Uiso   1.00
C81    C     0.80840   0.89870   0.38890   0.01267  Uiso   1.00
C82    C     0.54230   0.11680   0.29390   0.01267  Uiso   1.00
C83    C     0.78930   0.88300   0.33870   0.01267  Uiso   1.00
C84    C     0.98180   0.14160   0.73380   0.01267  Uiso   1.00
O1     O     0.96220   0.10970   0.00170   0.01267  Uiso   1.00
O2     O     0.55450   0.04920   0.64730   0.01267  Uiso   1.00
O3     O     0.78430   0.62410   0.10220   0.01267  Uiso   1.00
O4     O     0.96460   0.82660   0.11400   0.01267  Uiso   1.00
O5     O     0.03780   0.89030   0.99830   0.01267  Uiso   1.00
O6     O     0.88970   0.65930   0.02340   0.01267  Uiso   1.00
O7     O     0.61140   0.96390   0.49830   0.01267  Uiso   1.00
O8     O     0.55940   0.92140   0.61400   0.01267  Uiso   1.00
O9     O     0.21570   0.37590   0.89780   0.01267  Uiso   1.00
O10    O     0.38860   0.03610   0.50170   0.01267  Uiso   1.00
O11    O     0.22630   0.88650   0.39780   0.01267  Uiso   1.00
O12    O     0.44550   0.95080   0.35270   0.01267  Uiso   1.00
O13    O     0.80350   0.79820   0.14730   0.01267  Uiso   1.00
O14    O     0.86868   0.94860   0.04712   0.01267  Uiso   1.00
O15    O     0.18270   0.91310   0.47660   0.01267  Uiso   1.00
O16    O     0.11030   0.34070   0.97660   0.01267  Uiso   1.00
O17    O     0.81730   0.08690   0.52340   0.01267  Uiso   1.00
O18    O     0.13132   0.05140   0.95288   0.01267  Uiso   1.00
O19    O     0.03540   0.17340   0.88600   0.01267  Uiso   1.00
O20    O     0.77370   0.11350   0.60220   0.01267  Uiso   1.00
O21    O     0.44060   0.07860   0.38600   0.01267  Uiso   1.00
O22    O     0.49572   0.91580   0.45288   0.01267  Uiso   1.00
O23    O     0.50428   0.08420   0.54712   0.01267  Uiso   1.00
O24    O     0.19650   0.20180   0.85270   0.01267  Uiso   1.00
