data_image0
_cell_length_a       17.34
_cell_length_b       12.178
_cell_length_c       6.822
_cell_angle_alpha    90
_cell_angle_beta     90
_cell_angle_gamma    90

_symmetry_space_group_name_H-M    "P 1"
_symmetry_int_tables_number       1

loop_
  _symmetry_equiv_pos_as_xyz
  'x, y, z'

loop_
  _atom_site_label
  _atom_site_occupancy
  _atom_site_fract_x
  _atom_site_fract_y
  _atom_site_fract_z
  _atom_site_thermal_displace_type
  _atom_site_B_iso_or_equiv
  _atom_site_type_symbol
  O1       1.0000 0.08900  0.08900  0.91300  Biso   1.000  O
  O2       1.0000 0.42700  0.38800  0.91000  Biso   1.000  O
  C1       1.0000 0.22900  0.19800  0.92200  Biso   1.000  C
  C2       1.0000 0.29500  0.26400  0.92000  Biso   1.000  C
  O3       1.0000 0.41100  0.58900  0.08700  Biso   1.000  O
  O4       1.0000 0.07300  0.88800  0.09000  Biso   1.000  O
  C3       1.0000 0.27100  0.69800  0.07800  Biso   1.000  C
  C4       1.0000 0.20500  0.76400  0.08000  Biso   1.000  C
  O5       1.0000 0.91100  0.91100  0.41300  Biso   1.000  O
  O6       1.0000 0.57300  0.61200  0.41000  Biso   1.000  O
  C5       1.0000 0.77100  0.80200  0.42200  Biso   1.000  C
  C6       1.0000 0.70500  0.73600  0.42000  Biso   1.000  C
  O7       1.0000 0.58900  0.41100  0.58700  Biso   1.000  O
  O8       1.0000 0.92700  0.11200  0.59000  Biso   1.000  O
  C7       1.0000 0.72900  0.30200  0.57800  Biso   1.000  C
  C8       1.0000 0.79500  0.23600  0.58000  Biso   1.000  C
  O9       1.0000 0.91100  0.91100  0.08700  Biso   1.000  O
  O10      1.0000 0.57300  0.61200  0.09000  Biso   1.000  O
  C9       1.0000 0.77100  0.80200  0.07800  Biso   1.000  C
  C10      1.0000 0.70500  0.73600  0.08000  Biso   1.000  C
  O11      1.0000 0.58900  0.41100  0.91300  Biso   1.000  O
  O12      1.0000 0.92700  0.11200  0.91000  Biso   1.000  O
  C11      1.0000 0.72900  0.30200  0.92200  Biso   1.000  C
  C12      1.0000 0.79500  0.23600  0.92000  Biso   1.000  C
  O13      1.0000 0.08900  0.08900  0.58700  Biso   1.000  O
  O14      1.0000 0.42700  0.38800  0.59000  Biso   1.000  O
  C13      1.0000 0.22900  0.19800  0.57800  Biso   1.000  C
  C14      1.0000 0.29500  0.26400  0.58000  Biso   1.000  C
  O15      1.0000 0.41100  0.58900  0.41300  Biso   1.000  O
  O16      1.0000 0.07300  0.88800  0.41000  Biso   1.000  O
  C15      1.0000 0.27100  0.69800  0.42200  Biso   1.000  C
  C16      1.0000 0.20500  0.76400  0.42000  Biso   1.000  C
  Cr1      1.0000 0.00000  0.00000  0.00000  Biso   1.000  Cr
  Cr2      1.0000 0.50000  0.50000  0.00000  Biso   1.000  Cr
  Cr3      1.0000 0.00000  0.00000  0.50000  Biso   1.000  Cr
  Cr4      1.0000 0.50000  0.50000  0.50000  Biso   1.000  Cr
  O17      1.0000 0.00200  0.92200  0.75000  Biso   1.000  O
  C17      1.0000 0.39200  0.35700  0.75000  Biso   1.000  C
  C18      1.0000 0.12300  0.11700  0.75000  Biso   1.000  C
  C19      1.0000 0.32900  0.28700  0.75000  Biso   1.000  C
  C20      1.0000 0.19100  0.18000  0.75000  Biso   1.000  C
  O18      1.0000 0.49800  0.42200  0.25000  Biso   1.000  O
  C21      1.0000 0.10800  0.85700  0.25000  Biso   1.000  C
  C22      1.0000 0.37700  0.61700  0.25000  Biso   1.000  C
  C23      1.0000 0.17100  0.78700  0.25000  Biso   1.000  C
  C24      1.0000 0.30900  0.68000  0.25000  Biso   1.000  C
  O19      1.0000 0.99800  0.07800  0.25000  Biso   1.000  O
  C25      1.0000 0.60800  0.64300  0.25000  Biso   1.000  C
  C26      1.0000 0.87700  0.88300  0.25000  Biso   1.000  C
  C27      1.0000 0.67100  0.71300  0.25000  Biso   1.000  C
  C28      1.0000 0.80900  0.82000  0.25000  Biso   1.000  C
  O20      1.0000 0.50200  0.57800  0.75000  Biso   1.000  O
  C29      1.0000 0.89200  0.14300  0.75000  Biso   1.000  C
  C30      1.0000 0.62300  0.38300  0.75000  Biso   1.000  C
  C31      1.0000 0.82900  0.21300  0.75000  Biso   1.000  C
  C32      1.0000 0.69100  0.32000  0.75000  Biso   1.000  C
