data_MINVUA01_SL
_audit_creation_date              2015-05-20
_audit_creation_method            'Materials Studio'
_symmetry_space_group_name_H-M    'P1'
_symmetry_Int_Tables_number       1
_symmetry_cell_setting            triclinic
loop_
_symmetry_equiv_pos_as_xyz
  x,y,z
_cell_length_a                    6.8120
_cell_length_b                    16.7331
_cell_length_c                    13.0380
_cell_angle_alpha                 90.0000
_cell_angle_beta                  90.0000
_cell_angle_gamma                 90.0000
loop_
_atom_site_label
_atom_site_type_symbol
_atom_site_fract_x
_atom_site_fract_y
_atom_site_fract_z
_atom_site_U_iso_or_equiv
_atom_site_adp_type
_atom_site_occupancy
C1     C     0.80400   0.96000   0.51800   0.01267  Uiso   1.00
O2     O     0.84400   0.83400   0.65700   0.01267  Uiso   1.00
H3     H     0.66038   0.92524   0.52287   0.01267  Uiso   1.00
C4     C     0.30400   0.46000   0.01800   0.01267  Uiso   1.00
O5     O     0.34400   0.33400   0.15700   0.01267  Uiso   1.00
H6     H     0.16038   0.42524   0.02287   0.01267  Uiso   1.00
C7     C     0.19600   0.54000   0.51800   0.01267  Uiso   1.00
O8     O     0.15600   0.66600   0.65700   0.01267  Uiso   1.00
H9     H     0.33962   0.57476   0.52287   0.01267  Uiso   1.00
C10    C     0.69600   0.04000   0.01800   0.01267  Uiso   1.00
O11    O     0.65600   0.16600   0.15700   0.01267  Uiso   1.00
H12    H     0.83962   0.07476   0.02287   0.01267  Uiso   1.00
C13    C     0.19600   0.46000   0.48200   0.01267  Uiso   1.00
O14    O     0.15600   0.33400   0.34300   0.01267  Uiso   1.00
H15    H     0.33962   0.42524   0.47713   0.01267  Uiso   1.00
C16    C     0.69600   0.96000   0.98200   0.01267  Uiso   1.00
O17    O     0.65600   0.83400   0.84300   0.01267  Uiso   1.00
H18    H     0.83962   0.92524   0.97713   0.01267  Uiso   1.00
C19    C     0.80400   0.04000   0.48200   0.01267  Uiso   1.00
O20    O     0.84400   0.16600   0.34300   0.01267  Uiso   1.00
H21    H     0.66038   0.07476   0.47713   0.01267  Uiso   1.00
C22    C     0.30400   0.54000   0.98200   0.01267  Uiso   1.00
O23    O     0.34400   0.66600   0.84300   0.01267  Uiso   1.00
H24    H     0.16038   0.57476   0.97713   0.01267  Uiso   1.00
C25    C     0.19600   0.04000   0.48200   0.01267  Uiso   1.00
O26    O     0.15600   0.16600   0.34300   0.01267  Uiso   1.00
H27    H     0.33962   0.07476   0.47713   0.01267  Uiso   1.00
C28    C     0.69600   0.54000   0.98200   0.01267  Uiso   1.00
O29    O     0.65600   0.66600   0.84300   0.01267  Uiso   1.00
H30    H     0.83962   0.57476   0.97713   0.01267  Uiso   1.00
C31    C     0.80400   0.46000   0.48200   0.01267  Uiso   1.00
O32    O     0.84400   0.33400   0.34300   0.01267  Uiso   1.00
H33    H     0.66038   0.42524   0.47713   0.01267  Uiso   1.00
C34    C     0.30400   0.96000   0.98200   0.01267  Uiso   1.00
O35    O     0.34400   0.83400   0.84300   0.01267  Uiso   1.00
H36    H     0.16038   0.92524   0.97713   0.01267  Uiso   1.00
C37    C     0.80400   0.54000   0.51800   0.01267  Uiso   1.00
O38    O     0.84400   0.66600   0.65700   0.01267  Uiso   1.00
H39    H     0.66038   0.57476   0.52287   0.01267  Uiso   1.00
C40    C     0.30400   0.04000   0.01800   0.01267  Uiso   1.00
O41    O     0.34400   0.16600   0.15700   0.01267  Uiso   1.00
H42    H     0.16038   0.07476   0.02287   0.01267  Uiso   1.00
C43    C     0.19600   0.96000   0.51800   0.01267  Uiso   1.00
O44    O     0.15600   0.83400   0.65700   0.01267  Uiso   1.00
H45    H     0.33962   0.92524   0.52287   0.01267  Uiso   1.00
C46    C     0.69600   0.46000   0.01800   0.01267  Uiso   1.00
O47    O     0.65600   0.33400   0.15700   0.01267  Uiso   1.00
H48    H     0.83962   0.42524   0.02287   0.01267  Uiso   1.00
H49    H     0.50000   0.25000   0.39070   0.01267  Uiso   1.00
O50    O     0.50000   0.25000   0.31400   0.01267  Uiso   1.00
H51    H    -0.00000   0.75000   0.89070   0.01267  Uiso   1.00
O52    O    -0.00000   0.75000   0.81400   0.01267  Uiso   1.00
H53    H     0.50000   0.75000   0.60930   0.01267  Uiso   1.00
O54    O     0.50000   0.75000   0.68600   0.01267  Uiso   1.00
H55    H    -0.00000   0.25000   0.10930   0.01267  Uiso   1.00
O56    O    -0.00000   0.25000   0.18600   0.01267  Uiso   1.00
Cr57   Cr    0.25000   0.75000   0.75000   0.01267  Uiso   1.00
Cr58   Cr    0.75000   0.75000   0.75000   0.01267  Uiso   1.00
Cr59   Cr    0.75000   0.25000   0.25000   0.01267  Uiso   1.00
Cr60   Cr    0.25000   0.25000   0.25000   0.01267  Uiso   1.00
C61    C    -0.00000   0.94600   0.53900   0.01267  Uiso   1.00
C62    C    -0.00000   0.87500   0.61200   0.01267  Uiso   1.00
C63    C     0.50000   0.44600   0.03900   0.01267  Uiso   1.00
C64    C     0.50000   0.37500   0.11200   0.01267  Uiso   1.00
C65    C     0.00000   0.55400   0.53900   0.01267  Uiso   1.00
C66    C     0.00000   0.62500   0.61200   0.01267  Uiso   1.00
C67    C     0.50000   0.05400   0.03900   0.01267  Uiso   1.00
C68    C     0.50000   0.12500   0.11200   0.01267  Uiso   1.00
C69    C     0.00000   0.44600   0.46100   0.01267  Uiso   1.00
C70    C     0.00000   0.37500   0.38800   0.01267  Uiso   1.00
C71    C     0.50000   0.94600   0.96100   0.01267  Uiso   1.00
C72    C     0.50000   0.87500   0.88800   0.01267  Uiso   1.00
C73    C    -0.00000   0.05400   0.46100   0.01267  Uiso   1.00
C74    C    -0.00000   0.12500   0.38800   0.01267  Uiso   1.00
C75    C     0.50000   0.55400   0.96100   0.01267  Uiso   1.00
C76    C     0.50000   0.62500   0.88800   0.01267  Uiso   1.00
