data_image0
_cell_length_a       10.2496
_cell_length_b       13.4583
_cell_length_c       16.2422
_cell_angle_alpha    90
_cell_angle_beta     95.72
_cell_angle_gamma    90

_symmetry_space_group_name_H-M    "P 1"
_symmetry_int_tables_number       1

loop_
  _symmetry_equiv_pos_as_xyz
  'x, y, z'

loop_
  _atom_site_label
  _atom_site_occupancy
  _atom_site_fract_x
  _atom_site_fract_y
  _atom_site_fract_z
  _atom_site_thermal_displace_type
  _atom_site_B_iso_or_equiv
  _atom_site_type_symbol
  Zn1      1.0000 0.12411  0.53153  0.45508  Biso   1.000  Zn
  Zn2      1.0000 0.97833  0.70608  0.56400  Biso   1.000  Zn
  Br1      1.0000 0.97081  0.85521  0.49194  Biso   1.000  Br
  C1       1.0000 0.38127  0.68391  0.64135  Biso   1.000  C
  C2       1.0000 0.38463  0.75343  0.70511  Biso   1.000  C
  H1       1.0000 0.30650  0.77820  0.72140  Biso   1.000  H
  C3       1.0000 0.50282  0.78611  0.74461  Biso   1.000  C
  C4       1.0000 0.61985  0.74911  0.71999  Biso   1.000  C
  H2       1.0000 0.69960  0.77120  0.74590  Biso   1.000  H
  C5       1.0000 0.61738  0.67906  0.65662  Biso   1.000  C
  C6       1.0000 0.49846  0.64622  0.61837  Biso   1.000  C
  H3       1.0000 0.49700  0.59850  0.57690  Biso   1.000  H
  C7       1.0000 0.25295  0.65277  0.59696  Biso   1.000  C
  C8       1.0000 0.50141  0.85991  0.81453  Biso   1.000  C
  C9       1.0000 0.74264  0.63949  0.62785  Biso   1.000  C
  O1       1.0000 0.25785  0.59663  0.53491  Biso   1.000  O
  O2       1.0000 0.15135  0.68432  0.62476  Biso   1.000  O
  O3       1.0000 0.39304  0.88872  0.83277  Biso   1.000  O
  O4       1.0000 0.61188  0.88770  0.85001  Biso   1.000  O
  O5       1.0000 0.84322  0.69311  0.64190  Biso   1.000  O
  O6       1.0000 0.73561  0.55792  0.59133  Biso   1.000  O
  O7       1.0000 0.95046  0.59003  0.49313  Biso   1.000  O
  Zn3      1.0000 0.37589  0.03153  0.04492  Biso   1.000  Zn
  Zn4      1.0000 0.52167  0.20608  0.93600  Biso   1.000  Zn
  Br2      1.0000 0.52919  0.35521  0.00806  Biso   1.000  Br
  C10      1.0000 0.11873  0.18391  0.85865  Biso   1.000  C
  C11      1.0000 0.11537  0.25343  0.79489  Biso   1.000  C
  H4       1.0000 0.19350  0.27820  0.77860  Biso   1.000  H
  C12      1.0000 0.99718  0.28611  0.75539  Biso   1.000  C
  C13      1.0000 0.88015  0.24911  0.78001  Biso   1.000  C
  H5       1.0000 0.80040  0.27120  0.75410  Biso   1.000  H
  C14      1.0000 0.88262  0.17906  0.84338  Biso   1.000  C
  C15      1.0000 0.00154  0.14622  0.88163  Biso   1.000  C
  H6       1.0000 0.00300  0.09850  0.92310  Biso   1.000  H
  C16      1.0000 0.24705  0.15277  0.90304  Biso   1.000  C
  C17      1.0000 0.99859  0.35991  0.68547  Biso   1.000  C
  C18      1.0000 0.75736  0.13949  0.87215  Biso   1.000  C
  O8       1.0000 0.24215  0.09663  0.96509  Biso   1.000  O
  O9       1.0000 0.34865  0.18432  0.87524  Biso   1.000  O
  O10      1.0000 0.10696  0.38872  0.66723  Biso   1.000  O
  O11      1.0000 0.88812  0.38770  0.64999  Biso   1.000  O
  O12      1.0000 0.65678  0.19311  0.85810  Biso   1.000  O
  O13      1.0000 0.76439  0.05792  0.90867  Biso   1.000  O
  O14      1.0000 0.54954  0.09003  0.00687  Biso   1.000  O
  Zn5      1.0000 0.87589  0.46847  0.54492  Biso   1.000  Zn
  Zn6      1.0000 0.02167  0.29392  0.43600  Biso   1.000  Zn
  Br3      1.0000 0.02919  0.14479  0.50806  Biso   1.000  Br
  C19      1.0000 0.61873  0.31609  0.35865  Biso   1.000  C
  C20      1.0000 0.61537  0.24657  0.29489  Biso   1.000  C
  H7       1.0000 0.69350  0.22180  0.27860  Biso   1.000  H
  C21      1.0000 0.49718  0.21389  0.25539  Biso   1.000  C
  C22      1.0000 0.38015  0.25089  0.28001  Biso   1.000  C
  H8       1.0000 0.30040  0.22880  0.25410  Biso   1.000  H
  C23      1.0000 0.38262  0.32094  0.34338  Biso   1.000  C
  C24      1.0000 0.50154  0.35378  0.38163  Biso   1.000  C
  H9       1.0000 0.50300  0.40150  0.42310  Biso   1.000  H
  C25      1.0000 0.74705  0.34723  0.40304  Biso   1.000  C
  C26      1.0000 0.49859  0.14009  0.18547  Biso   1.000  C
  C27      1.0000 0.25736  0.36051  0.37215  Biso   1.000  C
  O15      1.0000 0.74215  0.40337  0.46509  Biso   1.000  O
  O16      1.0000 0.84865  0.31568  0.37524  Biso   1.000  O
  O17      1.0000 0.60696  0.11128  0.16723  Biso   1.000  O
  O18      1.0000 0.38812  0.11230  0.14999  Biso   1.000  O
  O19      1.0000 0.15678  0.30689  0.35810  Biso   1.000  O
  O20      1.0000 0.26439  0.44208  0.40867  Biso   1.000  O
  O21      1.0000 0.04954  0.40997  0.50687  Biso   1.000  O
  Zn7      1.0000 0.62411  0.96847  0.95508  Biso   1.000  Zn
  Zn8      1.0000 0.47833  0.79392  0.06400  Biso   1.000  Zn
  Br4      1.0000 0.47081  0.64479  0.99194  Biso   1.000  Br
  C28      1.0000 0.88127  0.81609  0.14135  Biso   1.000  C
  C29      1.0000 0.88463  0.74657  0.20511  Biso   1.000  C
  H10      1.0000 0.80650  0.72180  0.22140  Biso   1.000  H
  C30      1.0000 0.00282  0.71389  0.24461  Biso   1.000  C
  C31      1.0000 0.11985  0.75089  0.21999  Biso   1.000  C
  H11      1.0000 0.19960  0.72880  0.24590  Biso   1.000  H
  C32      1.0000 0.11738  0.82094  0.15662  Biso   1.000  C
  C33      1.0000 0.99846  0.85378  0.11837  Biso   1.000  C
  H12      1.0000 0.99700  0.90150  0.07690  Biso   1.000  H
  C34      1.0000 0.75295  0.84723  0.09696  Biso   1.000  C
  C35      1.0000 0.00141  0.64009  0.31453  Biso   1.000  C
  C36      1.0000 0.24264  0.86051  0.12785  Biso   1.000  C
  O22      1.0000 0.75785  0.90337  0.03491  Biso   1.000  O
  O23      1.0000 0.65135  0.81568  0.12476  Biso   1.000  O
  O24      1.0000 0.89304  0.61128  0.33277  Biso   1.000  O
  O25      1.0000 0.11188  0.61230  0.35001  Biso   1.000  O
  O26      1.0000 0.34322  0.80689  0.14190  Biso   1.000  O
  O27      1.0000 0.23561  0.94208  0.09133  Biso   1.000  O
  O28      1.0000 0.45046  0.90997  0.99313  Biso   1.000  O
