data_image0
_cell_length_a       16.254
_cell_length_b       13.508
_cell_length_c       7.683
_cell_angle_alpha    90
_cell_angle_beta     90.91
_cell_angle_gamma    90

_symmetry_space_group_name_H-M    "P 1"
_symmetry_int_tables_number       1

loop_
  _symmetry_equiv_pos_as_xyz
  'x, y, z'

loop_
  _atom_site_label
  _atom_site_occupancy
  _atom_site_fract_x
  _atom_site_fract_y
  _atom_site_fract_z
  _atom_site_thermal_displace_type
  _atom_site_B_iso_or_equiv
  _atom_site_type_symbol
  O1       1.0000 0.44050  0.26630  0.44180  Biso   1.000  O
  O2       1.0000 0.62140  0.19310  0.37890  Biso   1.000  O
  O3       1.0000 0.60210  0.20730  0.66130  Biso   1.000  O
  O4       1.0000 0.93000  0.10180  0.62510  Biso   1.000  O
  O5       1.0000 0.86530  0.96030  0.65660  Biso   1.000  O
  C1       1.0000 0.64210  0.18270  0.53600  Biso   1.000  C
  C2       1.0000 0.72080  0.13490  0.56630  Biso   1.000  C
  C3       1.0000 0.78680  0.09840  0.59600  Biso   1.000  C
  C4       1.0000 0.86640  0.04890  0.62910  Biso   1.000  C
  O6       1.0000 0.94050  0.76630  0.44180  Biso   1.000  O
  O7       1.0000 0.12140  0.69310  0.37890  Biso   1.000  O
  O8       1.0000 0.10210  0.70730  0.66130  Biso   1.000  O
  O9       1.0000 0.43000  0.60180  0.62510  Biso   1.000  O
  O10      1.0000 0.36530  0.46030  0.65660  Biso   1.000  O
  C5       1.0000 0.14210  0.68270  0.53600  Biso   1.000  C
  C6       1.0000 0.22080  0.63490  0.56630  Biso   1.000  C
  C7       1.0000 0.28680  0.59840  0.59600  Biso   1.000  C
  C8       1.0000 0.36640  0.54890  0.62910  Biso   1.000  C
  O11      1.0000 0.55950  0.26630  0.05820  Biso   1.000  O
  O12      1.0000 0.37860  0.19310  0.12110  Biso   1.000  O
  O13      1.0000 0.39790  0.20730  0.83870  Biso   1.000  O
  O14      1.0000 0.07000  0.10180  0.87490  Biso   1.000  O
  O15      1.0000 0.13470  0.96030  0.84340  Biso   1.000  O
  C9       1.0000 0.35790  0.18270  0.96400  Biso   1.000  C
  C10      1.0000 0.27920  0.13490  0.93370  Biso   1.000  C
  C11      1.0000 0.21320  0.09840  0.90400  Biso   1.000  C
  C12      1.0000 0.13360  0.04890  0.87090  Biso   1.000  C
  O16      1.0000 0.05950  0.76630  0.05820  Biso   1.000  O
  O17      1.0000 0.87860  0.69310  0.12110  Biso   1.000  O
  O18      1.0000 0.89790  0.70730  0.83870  Biso   1.000  O
  O19      1.0000 0.57000  0.60180  0.87490  Biso   1.000  O
  O20      1.0000 0.63470  0.46030  0.84340  Biso   1.000  O
  C13      1.0000 0.85790  0.68270  0.96400  Biso   1.000  C
  C14      1.0000 0.77920  0.63490  0.93370  Biso   1.000  C
  C15      1.0000 0.71320  0.59840  0.90400  Biso   1.000  C
  C16      1.0000 0.63360  0.54890  0.87090  Biso   1.000  C
  O21      1.0000 0.55950  0.73370  0.55820  Biso   1.000  O
  O22      1.0000 0.37860  0.80690  0.62110  Biso   1.000  O
  O23      1.0000 0.39790  0.79270  0.33870  Biso   1.000  O
  O24      1.0000 0.07000  0.89820  0.37490  Biso   1.000  O
  O25      1.0000 0.13470  0.03970  0.34340  Biso   1.000  O
  C17      1.0000 0.35790  0.81730  0.46400  Biso   1.000  C
  C18      1.0000 0.27920  0.86510  0.43370  Biso   1.000  C
  C19      1.0000 0.21320  0.90160  0.40400  Biso   1.000  C
  C20      1.0000 0.13360  0.95110  0.37090  Biso   1.000  C
  O26      1.0000 0.05950  0.23370  0.55820  Biso   1.000  O
  O27      1.0000 0.87860  0.30690  0.62110  Biso   1.000  O
  O28      1.0000 0.89790  0.29270  0.33870  Biso   1.000  O
  O29      1.0000 0.57000  0.39820  0.37490  Biso   1.000  O
  O30      1.0000 0.63470  0.53970  0.34340  Biso   1.000  O
  C21      1.0000 0.85790  0.31730  0.46400  Biso   1.000  C
  C22      1.0000 0.77920  0.36510  0.43370  Biso   1.000  C
  C23      1.0000 0.71320  0.40160  0.40400  Biso   1.000  C
  C24      1.0000 0.63360  0.45110  0.37090  Biso   1.000  C
  O31      1.0000 0.44050  0.73370  0.94180  Biso   1.000  O
  O32      1.0000 0.62140  0.80690  0.87890  Biso   1.000  O
  O33      1.0000 0.60210  0.79270  0.16130  Biso   1.000  O
  O34      1.0000 0.93000  0.89820  0.12510  Biso   1.000  O
  O35      1.0000 0.86530  0.03970  0.15660  Biso   1.000  O
  C25      1.0000 0.64210  0.81730  0.03600  Biso   1.000  C
  C26      1.0000 0.72080  0.86510  0.06630  Biso   1.000  C
  C27      1.0000 0.78680  0.90160  0.09600  Biso   1.000  C
  C28      1.0000 0.86640  0.95110  0.12910  Biso   1.000  C
  O36      1.0000 0.94050  0.23370  0.94180  Biso   1.000  O
  O37      1.0000 0.12140  0.30690  0.87890  Biso   1.000  O
  O38      1.0000 0.10210  0.29270  0.16130  Biso   1.000  O
  O39      1.0000 0.43000  0.39820  0.12510  Biso   1.000  O
  O40      1.0000 0.36530  0.53970  0.15660  Biso   1.000  O
  C29      1.0000 0.14210  0.31730  0.03600  Biso   1.000  C
  C30      1.0000 0.22080  0.36510  0.06630  Biso   1.000  C
  C31      1.0000 0.28680  0.40160  0.09600  Biso   1.000  C
  C32      1.0000 0.36640  0.45110  0.12910  Biso   1.000  C
  U1       1.0000 0.50000  0.26553  0.25000  Biso   1.000  U
  U2       1.0000 0.00000  0.76553  0.25000  Biso   1.000  U
  U3       1.0000 0.50000  0.73447  0.75000  Biso   1.000  U
  U4       1.0000 0.00000  0.23447  0.75000  Biso   1.000  U
  K1       1.0000 0.50000  0.36037  0.75000  Biso   1.000  K
  K2       1.0000 0.00000  0.86037  0.75000  Biso   1.000  K
  K3       1.0000 0.50000  0.63963  0.25000  Biso   1.000  K
  K4       1.0000 0.00000  0.13963  0.25000  Biso   1.000  K
