data_image0
_cell_length_a       9.3425
_cell_length_b       9.3425
_cell_length_c       6.994
_cell_angle_alpha    90
_cell_angle_beta     90
_cell_angle_gamma    120

_symmetry_space_group_name_H-M    "P 1"
_symmetry_int_tables_number       1

loop_
  _symmetry_equiv_pos_as_xyz
  'x, y, z'

loop_
  _atom_site_label
  _atom_site_occupancy
  _atom_site_fract_x
  _atom_site_fract_y
  _atom_site_fract_z
  _atom_site_thermal_displace_type
  _atom_site_B_iso_or_equiv
  _atom_site_type_symbol
  Al1      1.0000 0.16218  0.52118  0.05622  Biso   1.000  Al
  O1       1.0000 0.30140  0.73033  0.96030  Biso   1.000  O
  H1       1.0000 0.35770  0.82060  0.05120  Biso   1.000  H
  O2       1.0000 0.27840  0.42700  0.95950  Biso   1.000  O
  O3       1.0000 0.53314  0.56580  0.16960  Biso   1.000  O
  Al2      1.0000 0.47882  0.64100  0.38955  Biso   1.000  Al
  O4       1.0000 0.26967  0.57107  0.29363  Biso   1.000  O
  H2       1.0000 0.17940  0.53710  0.38453  Biso   1.000  H
  O5       1.0000 0.57300  0.85140  0.29283  Biso   1.000  O
  O6       1.0000 0.43420  0.96734  0.50293  Biso   1.000  O
  Al3      1.0000 0.35900  0.83782  0.72289  Biso   1.000  Al
  O7       1.0000 0.42893  0.69860  0.62697  Biso   1.000  O
  H3       1.0000 0.46290  0.64230  0.71787  Biso   1.000  H
  O8       1.0000 0.14860  0.72160  0.62617  Biso   1.000  O
  O9       1.0000 0.03266  0.46686  0.83627  Biso   1.000  O
  Al4      1.0000 0.52118  0.16218  0.94378  Biso   1.000  Al
  O10      1.0000 0.73033  0.30140  0.03970  Biso   1.000  O
  H4       1.0000 0.82060  0.35770  0.94880  Biso   1.000  H
  O11      1.0000 0.42700  0.27840  0.04050  Biso   1.000  O
  O12      1.0000 0.56580  0.53314  0.83040  Biso   1.000  O
  Al5      1.0000 0.64100  0.47882  0.61045  Biso   1.000  Al
  O13      1.0000 0.57107  0.26967  0.70637  Biso   1.000  O
  H5       1.0000 0.53710  0.17940  0.61547  Biso   1.000  H
  O14      1.0000 0.85140  0.57300  0.70717  Biso   1.000  O
  O15      1.0000 0.96734  0.43420  0.49707  Biso   1.000  O
  Al6      1.0000 0.83782  0.35900  0.27711  Biso   1.000  Al
  O16      1.0000 0.69860  0.42893  0.37303  Biso   1.000  O
  H6       1.0000 0.64230  0.46290  0.28213  Biso   1.000  H
  O17      1.0000 0.72160  0.14860  0.37383  Biso   1.000  O
  O18      1.0000 0.46686  0.03266  0.16373  Biso   1.000  O
  P1       1.0000 0.44940  0.44940  0.00000  Biso   1.000  P
  P2       1.0000 0.55060  0.00000  0.33333  Biso   1.000  P
  P3       1.0000 0.00000  0.55060  0.66667  Biso   1.000  P
  F1       1.0000 0.00000  0.31790  0.16667  Biso   1.000  F
  F2       1.0000 0.00000  0.56830  0.16667  Biso   1.000  F
  F3       1.0000 0.68210  0.68210  0.50000  Biso   1.000  F
  F4       1.0000 0.43170  0.43170  0.50000  Biso   1.000  F
  F5       1.0000 0.31790  0.00000  0.83333  Biso   1.000  F
  F6       1.0000 0.56830  0.00000  0.83333  Biso   1.000  F
