data_image0
_cell_length_a       9.362
_cell_length_b       9.362
_cell_length_c       7.004
_cell_angle_alpha    90
_cell_angle_beta     90
_cell_angle_gamma    120

_symmetry_space_group_name_H-M    "P 1"
_symmetry_int_tables_number       1

loop_
  _symmetry_equiv_pos_as_xyz
  'x, y, z'

loop_
  _atom_site_label
  _atom_site_occupancy
  _atom_site_fract_x
  _atom_site_fract_y
  _atom_site_fract_z
  _atom_site_thermal_displace_type
  _atom_site_B_iso_or_equiv
  _atom_site_type_symbol
  Al1      1.0000 0.16200  0.52099  0.05633  Biso   1.000  Al
  O1       1.0000 0.30150  0.73000  0.96020  Biso   1.000  O
  H1       1.0000 0.34570  0.81220  0.06210  Biso   1.000  H
  O2       1.0000 0.27850  0.42720  0.95920  Biso   1.000  O
  O3       1.0000 0.53280  0.56530  0.16940  Biso   1.000  O
  Al2      1.0000 0.47901  0.64101  0.38966  Biso   1.000  Al
  O4       1.0000 0.27000  0.57150  0.29353  Biso   1.000  O
  H2       1.0000 0.18780  0.53350  0.39543  Biso   1.000  H
  O5       1.0000 0.57280  0.85130  0.29253  Biso   1.000  O
  O6       1.0000 0.43470  0.96750  0.50273  Biso   1.000  O
  Al3      1.0000 0.35899  0.83800  0.72300  Biso   1.000  Al
  O7       1.0000 0.42850  0.69850  0.62687  Biso   1.000  O
  H3       1.0000 0.46650  0.65430  0.72877  Biso   1.000  H
  O8       1.0000 0.14870  0.72150  0.62587  Biso   1.000  O
  O9       1.0000 0.03250  0.46720  0.83607  Biso   1.000  O
  Al4      1.0000 0.52099  0.16200  0.94367  Biso   1.000  Al
  O10      1.0000 0.73000  0.30150  0.03980  Biso   1.000  O
  H4       1.0000 0.81220  0.34570  0.93790  Biso   1.000  H
  O11      1.0000 0.42720  0.27850  0.04080  Biso   1.000  O
  O12      1.0000 0.56530  0.53280  0.83060  Biso   1.000  O
  Al5      1.0000 0.64101  0.47901  0.61034  Biso   1.000  Al
  O13      1.0000 0.57150  0.27000  0.70647  Biso   1.000  O
  H5       1.0000 0.53350  0.18780  0.60457  Biso   1.000  H
  O14      1.0000 0.85130  0.57280  0.70747  Biso   1.000  O
  O15      1.0000 0.96750  0.43470  0.49727  Biso   1.000  O
  Al6      1.0000 0.83800  0.35899  0.27700  Biso   1.000  Al
  O16      1.0000 0.69850  0.42850  0.37313  Biso   1.000  O
  H6       1.0000 0.65430  0.46650  0.27123  Biso   1.000  H
  O17      1.0000 0.72150  0.14870  0.37413  Biso   1.000  O
  O18      1.0000 0.46720  0.03250  0.16393  Biso   1.000  O
  P1       1.0000 0.44934  0.44934  0.00000  Biso   1.000  P
  P2       1.0000 0.55066  0.00000  0.33333  Biso   1.000  P
  P3       1.0000 0.00000  0.55066  0.66667  Biso   1.000  P
  F1       1.0000 0.00000  0.31780  0.16667  Biso   1.000  F
  F2       1.0000 0.00000  0.56860  0.16667  Biso   1.000  F
  F3       1.0000 0.68220  0.68220  0.50000  Biso   1.000  F
  F4       1.0000 0.43140  0.43140  0.50000  Biso   1.000  F
  F5       1.0000 0.31780  0.00000  0.83333  Biso   1.000  F
  F6       1.0000 0.56860  0.00000  0.83333  Biso   1.000  F
