data_image0
_cell_length_a       9.3411
_cell_length_b       9.3411
_cell_length_c       6.9932
_cell_angle_alpha    90
_cell_angle_beta     90
_cell_angle_gamma    120

_symmetry_space_group_name_H-M    "P 1"
_symmetry_int_tables_number       1

loop_
  _symmetry_equiv_pos_as_xyz
  'x, y, z'

loop_
  _atom_site_label
  _atom_site_occupancy
  _atom_site_fract_x
  _atom_site_fract_y
  _atom_site_fract_z
  _atom_site_thermal_displace_type
  _atom_site_B_iso_or_equiv
  _atom_site_type_symbol
  Al1      1.0000 0.64075  0.16199  0.22307  Biso   1.000  Al
  O1       1.0000 0.57110  0.30140  0.12710  Biso   1.000  O
  H1       1.0000 0.55350  0.36790  0.19820  Biso   1.000  H
  O2       1.0000 0.85150  0.27850  0.12600  Biso   1.000  O
  O3       1.0000 0.03290  0.56560  0.99700  Biso   1.000  O
  Al2      1.0000 0.83801  0.47876  0.55640  Biso   1.000  Al
  O4       1.0000 0.69860  0.26970  0.46043  Biso   1.000  O
  H2       1.0000 0.63210  0.18560  0.53153  Biso   1.000  H
  O5       1.0000 0.72150  0.57300  0.45933  Biso   1.000  O
  O6       1.0000 0.43440  0.46730  0.33033  Biso   1.000  O
  Al3      1.0000 0.52124  0.35925  0.88974  Biso   1.000  Al
  O7       1.0000 0.73030  0.42890  0.79377  Biso   1.000  O
  H3       1.0000 0.81440  0.44650  0.86487  Biso   1.000  H
  O8       1.0000 0.42700  0.14850  0.79267  Biso   1.000  O
  O9       1.0000 0.53270  0.96710  0.66367  Biso   1.000  O
  Al4      1.0000 0.16199  0.64075  0.77693  Biso   1.000  Al
  O10      1.0000 0.30140  0.57110  0.87290  Biso   1.000  O
  H4       1.0000 0.36790  0.55350  0.80180  Biso   1.000  H
  O11      1.0000 0.27850  0.85150  0.87400  Biso   1.000  O
  O12      1.0000 0.56560  0.03290  0.00300  Biso   1.000  O
  Al5      1.0000 0.47876  0.83801  0.44360  Biso   1.000  Al
  O13      1.0000 0.26970  0.69860  0.53957  Biso   1.000  O
  H5       1.0000 0.18560  0.63210  0.46847  Biso   1.000  H
  O14      1.0000 0.57300  0.72150  0.54067  Biso   1.000  O
  O15      1.0000 0.46730  0.43440  0.66967  Biso   1.000  O
  Al6      1.0000 0.35925  0.52124  0.11026  Biso   1.000  Al
  O16      1.0000 0.42890  0.73030  0.20623  Biso   1.000  O
  H6       1.0000 0.44650  0.81440  0.13513  Biso   1.000  H
  O17      1.0000 0.14850  0.42700  0.20733  Biso   1.000  O
  O18      1.0000 0.96710  0.53270  0.33633  Biso   1.000  O
  P1       1.0000 0.00000  0.44936  0.16667  Biso   1.000  P
  P2       1.0000 0.55064  0.55064  0.50000  Biso   1.000  P
  P3       1.0000 0.44936  0.00000  0.83333  Biso   1.000  P
  F1       1.0000 0.68220  0.00000  0.33333  Biso   1.000  F
  F2       1.0000 0.43170  0.00000  0.33333  Biso   1.000  F
  F3       1.0000 0.00000  0.68220  0.66667  Biso   1.000  F
  F4       1.0000 0.00000  0.43170  0.66667  Biso   1.000  F
  F5       1.0000 0.31780  0.31780  0.00000  Biso   1.000  F
  F6       1.0000 0.56830  0.56830  0.00000  Biso   1.000  F
