data_image0
_cell_length_a       9.3421
_cell_length_b       9.3421
_cell_length_c       6.996
_cell_angle_alpha    90
_cell_angle_beta     90
_cell_angle_gamma    120

_symmetry_space_group_name_H-M    "P 1"
_symmetry_int_tables_number       1

loop_
  _symmetry_equiv_pos_as_xyz
  'x, y, z'

loop_
  _atom_site_label
  _atom_site_occupancy
  _atom_site_fract_x
  _atom_site_fract_y
  _atom_site_fract_z
  _atom_site_thermal_displace_type
  _atom_site_B_iso_or_equiv
  _atom_site_type_symbol
  O1       1.0000 0.57340  0.72160  0.04090  Biso   1.000  O
  O2       1.0000 0.43450  0.46750  0.83020  Biso   1.000  O
  Al1      1.0000 0.47892  0.83800  0.94364  Biso   1.000  Al
  O3       1.0000 0.27010  0.69860  0.04040  Biso   1.000  O
  H1       1.0000 0.20400  0.65200  0.96800  Biso   1.000  H
  O4       1.0000 0.27840  0.85180  0.37423  Biso   1.000  O
  O5       1.0000 0.53250  0.96700  0.16353  Biso   1.000  O
  Al2      1.0000 0.16200  0.64092  0.27697  Biso   1.000  Al
  O6       1.0000 0.30140  0.57150  0.37373  Biso   1.000  O
  H2       1.0000 0.34800  0.55200  0.30133  Biso   1.000  H
  O7       1.0000 0.14820  0.42660  0.70757  Biso   1.000  O
  O8       1.0000 0.03300  0.56550  0.49687  Biso   1.000  O
  Al3      1.0000 0.35908  0.52108  0.61031  Biso   1.000  Al
  O9       1.0000 0.42850  0.72990  0.70707  Biso   1.000  O
  H3       1.0000 0.44800  0.79600  0.63467  Biso   1.000  H
  O10      1.0000 0.72160  0.57340  0.95910  Biso   1.000  O
  O11      1.0000 0.46750  0.43450  0.16980  Biso   1.000  O
  Al4      1.0000 0.83800  0.47892  0.05636  Biso   1.000  Al
  O12      1.0000 0.69860  0.27010  0.95960  Biso   1.000  O
  H4       1.0000 0.65200  0.20400  0.03200  Biso   1.000  H
  O13      1.0000 0.85180  0.27840  0.62577  Biso   1.000  O
  O14      1.0000 0.96700  0.53250  0.83647  Biso   1.000  O
  Al5      1.0000 0.64092  0.16200  0.72303  Biso   1.000  Al
  O15      1.0000 0.57150  0.30140  0.62627  Biso   1.000  O
  H5       1.0000 0.55200  0.34800  0.69867  Biso   1.000  H
  O16      1.0000 0.42660  0.14820  0.29243  Biso   1.000  O
  O17      1.0000 0.56550  0.03300  0.50313  Biso   1.000  O
  Al6      1.0000 0.52108  0.35908  0.38969  Biso   1.000  Al
  O18      1.0000 0.72990  0.42850  0.29293  Biso   1.000  O
  H6       1.0000 0.79600  0.44800  0.36533  Biso   1.000  H
  P1       1.0000 0.55059  0.55059  0.00000  Biso   1.000  P
  P2       1.0000 0.44941  0.00000  0.33333  Biso   1.000  P
  P3       1.0000 0.00000  0.44941  0.66667  Biso   1.000  P
  F1       1.0000 0.68180  0.00000  0.83333  Biso   1.000  F
  F2       1.0000 0.43170  0.00000  0.83333  Biso   1.000  F
  F3       1.0000 0.00000  0.68180  0.16667  Biso   1.000  F
  F4       1.0000 0.00000  0.43170  0.16667  Biso   1.000  F
  F5       1.0000 0.31820  0.31820  0.50000  Biso   1.000  F
  F6       1.0000 0.56830  0.56830  0.50000  Biso   1.000  F
