data_image0
_cell_length_a       9.3429
_cell_length_b       9.3429
_cell_length_c       6.9927
_cell_angle_alpha    90
_cell_angle_beta     90
_cell_angle_gamma    120

_symmetry_space_group_name_H-M    "P 1"
_symmetry_int_tables_number       1

loop_
  _symmetry_equiv_pos_as_xyz
  'x, y, z'

loop_
  _atom_site_label
  _atom_site_occupancy
  _atom_site_fract_x
  _atom_site_fract_y
  _atom_site_fract_z
  _atom_site_thermal_displace_type
  _atom_site_B_iso_or_equiv
  _atom_site_type_symbol
  Al1      1.0000 0.47892  0.64105  0.88953  Biso   1.000  Al
  O1       1.0000 0.42870  0.69850  0.12630  Biso   1.000  O
  H1       1.0000 0.45060  0.64600  0.22950  Biso   1.000  H
  O2       1.0000 0.57290  0.85150  0.79250  Biso   1.000  O
  O3       1.0000 0.43420  0.96710  0.00280  Biso   1.000  O
  Al2      1.0000 0.35895  0.83787  0.22286  Biso   1.000  Al
  O4       1.0000 0.30150  0.73020  0.45963  Biso   1.000  O
  H2       1.0000 0.35400  0.80460  0.56283  Biso   1.000  H
  O5       1.0000 0.14850  0.72140  0.12583  Biso   1.000  O
  O6       1.0000 0.03290  0.46710  0.33613  Biso   1.000  O
  Al3      1.0000 0.16213  0.52108  0.55620  Biso   1.000  Al
  O7       1.0000 0.26980  0.57130  0.79297  Biso   1.000  O
  H3       1.0000 0.19540  0.54940  0.89617  Biso   1.000  H
  O8       1.0000 0.27860  0.42710  0.45917  Biso   1.000  O
  O9       1.0000 0.53290  0.56580  0.66947  Biso   1.000  O
  Al4      1.0000 0.64105  0.47892  0.11047  Biso   1.000  Al
  O10      1.0000 0.69850  0.42870  0.87370  Biso   1.000  O
  H4       1.0000 0.64600  0.45060  0.77050  Biso   1.000  H
  O11      1.0000 0.85150  0.57290  0.20750  Biso   1.000  O
  O12      1.0000 0.96710  0.43420  0.99720  Biso   1.000  O
  Al5      1.0000 0.83787  0.35895  0.77714  Biso   1.000  Al
  O13      1.0000 0.73020  0.30150  0.54037  Biso   1.000  O
  H5       1.0000 0.80460  0.35400  0.43717  Biso   1.000  H
  O14      1.0000 0.72140  0.14850  0.87417  Biso   1.000  O
  O15      1.0000 0.46710  0.03290  0.66387  Biso   1.000  O
  Al6      1.0000 0.52108  0.16213  0.44380  Biso   1.000  Al
  O16      1.0000 0.57130  0.26980  0.20703  Biso   1.000  O
  H6       1.0000 0.54940  0.19540  0.10383  Biso   1.000  H
  O17      1.0000 0.42710  0.27860  0.54083  Biso   1.000  O
  O18      1.0000 0.56580  0.53290  0.33053  Biso   1.000  O
  P1       1.0000 0.55067  0.00000  0.83333  Biso   1.000  P
  P2       1.0000 0.00000  0.55067  0.16667  Biso   1.000  P
  P3       1.0000 0.44933  0.44933  0.50000  Biso   1.000  P
  F1       1.0000 0.68220  0.68220  0.00000  Biso   1.000  F
  F2       1.0000 0.43180  0.43180  0.00000  Biso   1.000  F
  F3       1.0000 0.31780  0.00000  0.33333  Biso   1.000  F
  F4       1.0000 0.56820  0.00000  0.33333  Biso   1.000  F
  F5       1.0000 0.00000  0.31780  0.66667  Biso   1.000  F
  F6       1.0000 0.00000  0.56820  0.66667  Biso   1.000  F
