data_image0
_cell_length_a       10.0355
_cell_length_b       12.819
_cell_length_c       15.4797
_cell_angle_alpha    90
_cell_angle_beta     102.486
_cell_angle_gamma    90

_symmetry_space_group_name_H-M    "P 1"
_symmetry_int_tables_number       1

loop_
  _symmetry_equiv_pos_as_xyz
  'x, y, z'

loop_
  _atom_site_label
  _atom_site_occupancy
  _atom_site_fract_x
  _atom_site_fract_y
  _atom_site_fract_z
  _atom_site_thermal_displace_type
  _atom_site_B_iso_or_equiv
  _atom_site_type_symbol
  Cd1      1.0000 0.17871  0.96605  0.09169  Biso   1.000  Cd
  O1       1.0000 0.37865  0.91392  0.04833  Biso   1.000  O
  O2       1.0000 0.34864  0.84479  0.17227  Biso   1.000  O
  O3       1.0000 0.68834  0.59953  0.33390  Biso   1.000  O
  O4       1.0000 0.87489  0.56568  0.29086  Biso   1.000  O
  O5       1.0000 0.02586  0.84566  0.10373  Biso   1.000  O
  O6       1.0000 0.87987  0.96875  0.04562  Biso   1.000  O
  C1       1.0000 0.42126  0.86164  0.11735  Biso   1.000  C
  C2       1.0000 0.56325  0.81975  0.13488  Biso   1.000  C
  C3       1.0000 0.66295  0.86377  0.09504  Biso   1.000  C
  H1       1.0000 0.63970  0.91740  0.05410  Biso   1.000  H
  C4       1.0000 0.79671  0.82729  0.11684  Biso   1.000  C
  C5       1.0000 0.82932  0.74369  0.17529  Biso   1.000  C
  H2       1.0000 0.91760  0.71710  0.18750  Biso   1.000  H
  C6       1.0000 0.73233  0.69990  0.21532  Biso   1.000  C
  C7       1.0000 0.59954  0.73883  0.19510  Biso   1.000  C
  H3       1.0000 0.53410  0.71020  0.22240  Biso   1.000  H
  C8       1.0000 0.76801  0.61584  0.28373  Biso   1.000  C
  C9       1.0000 0.90688  0.88357  0.08424  Biso   1.000  C
  Cd2      1.0000 0.82129  0.46605  0.40832  Biso   1.000  Cd
  O7       1.0000 0.62135  0.41392  0.45167  Biso   1.000  O
  O8       1.0000 0.65136  0.34479  0.32773  Biso   1.000  O
  O9       1.0000 0.31166  0.09953  0.16610  Biso   1.000  O
  O10      1.0000 0.12511  0.06568  0.20914  Biso   1.000  O
  O11      1.0000 0.97414  0.34566  0.39627  Biso   1.000  O
  O12      1.0000 0.12013  0.46875  0.45438  Biso   1.000  O
  C10      1.0000 0.57874  0.36164  0.38265  Biso   1.000  C
  C11      1.0000 0.43675  0.31975  0.36512  Biso   1.000  C
  C12      1.0000 0.33705  0.36377  0.40496  Biso   1.000  C
  H4       1.0000 0.36030  0.41740  0.44590  Biso   1.000  H
  C13      1.0000 0.20329  0.32729  0.38316  Biso   1.000  C
  C14      1.0000 0.17068  0.24369  0.32471  Biso   1.000  C
  H5       1.0000 0.08240  0.21710  0.31250  Biso   1.000  H
  C15      1.0000 0.26767  0.19990  0.28468  Biso   1.000  C
  C16      1.0000 0.40046  0.23883  0.30490  Biso   1.000  C
  H6       1.0000 0.46590  0.21020  0.27760  Biso   1.000  H
  C17      1.0000 0.23199  0.11584  0.21627  Biso   1.000  C
  C18      1.0000 0.09312  0.38357  0.41576  Biso   1.000  C
  Cd3      1.0000 0.82129  0.03395  0.90832  Biso   1.000  Cd
  O13      1.0000 0.62135  0.08608  0.95167  Biso   1.000  O
  O14      1.0000 0.65136  0.15521  0.82773  Biso   1.000  O
  O15      1.0000 0.31166  0.40047  0.66610  Biso   1.000  O
  O16      1.0000 0.12511  0.43432  0.70914  Biso   1.000  O
  O17      1.0000 0.97414  0.15434  0.89627  Biso   1.000  O
  O18      1.0000 0.12013  0.03125  0.95438  Biso   1.000  O
  C19      1.0000 0.57874  0.13836  0.88265  Biso   1.000  C
  C20      1.0000 0.43675  0.18025  0.86512  Biso   1.000  C
  C21      1.0000 0.33705  0.13623  0.90496  Biso   1.000  C
  H7       1.0000 0.36030  0.08260  0.94590  Biso   1.000  H
  C22      1.0000 0.20329  0.17271  0.88316  Biso   1.000  C
  C23      1.0000 0.17068  0.25631  0.82471  Biso   1.000  C
  H8       1.0000 0.08240  0.28290  0.81250  Biso   1.000  H
  C24      1.0000 0.26767  0.30010  0.78468  Biso   1.000  C
  C25      1.0000 0.40046  0.26117  0.80490  Biso   1.000  C
  H9       1.0000 0.46590  0.28980  0.77760  Biso   1.000  H
  C26      1.0000 0.23199  0.38416  0.71627  Biso   1.000  C
  C27      1.0000 0.09312  0.11643  0.91576  Biso   1.000  C
  Cd4      1.0000 0.17871  0.53395  0.59169  Biso   1.000  Cd
  O19      1.0000 0.37865  0.58608  0.54833  Biso   1.000  O
  O20      1.0000 0.34864  0.65521  0.67227  Biso   1.000  O
  O21      1.0000 0.68834  0.90047  0.83390  Biso   1.000  O
  O22      1.0000 0.87489  0.93432  0.79086  Biso   1.000  O
  O23      1.0000 0.02586  0.65434  0.60373  Biso   1.000  O
  O24      1.0000 0.87987  0.53125  0.54562  Biso   1.000  O
  C28      1.0000 0.42126  0.63836  0.61735  Biso   1.000  C
  C29      1.0000 0.56325  0.68025  0.63488  Biso   1.000  C
  C30      1.0000 0.66295  0.63623  0.59504  Biso   1.000  C
  H10      1.0000 0.63970  0.58260  0.55410  Biso   1.000  H
  C31      1.0000 0.79671  0.67271  0.61684  Biso   1.000  C
  C32      1.0000 0.82932  0.75631  0.67529  Biso   1.000  C
  H11      1.0000 0.91760  0.78290  0.68750  Biso   1.000  H
  C33      1.0000 0.73233  0.80010  0.71532  Biso   1.000  C
  C34      1.0000 0.59954  0.76117  0.69510  Biso   1.000  C
  H12      1.0000 0.53410  0.78980  0.72240  Biso   1.000  H
  C35      1.0000 0.76801  0.88416  0.78373  Biso   1.000  C
  C36      1.0000 0.90688  0.61643  0.58424  Biso   1.000  C
