data_image0
_cell_length_a       16.0984
_cell_length_b       14.607
_cell_length_c       16.1257
_cell_angle_alpha    90
_cell_angle_beta     101.479
_cell_angle_gamma    90

_symmetry_space_group_name_H-M    "P 1"
_symmetry_int_tables_number       1

loop_
  _symmetry_equiv_pos_as_xyz
  'x, y, z'

loop_
  _atom_site_label
  _atom_site_occupancy
  _atom_site_fract_x
  _atom_site_fract_y
  _atom_site_fract_z
  _atom_site_thermal_displace_type
  _atom_site_B_iso_or_equiv
  _atom_site_type_symbol
  Cd1      1.0000 0.45772  0.93180  0.39140  Biso   1.000  Cd
  Cd2      1.0000 0.04233  0.06734  0.10863  Biso   1.000  Cd
  O1       1.0000 0.14716  0.03540  0.23729  Biso   1.000  O
  O2       1.0000 0.05373  0.14490  0.23592  Biso   1.000  O
  O3       1.0000 0.40412  0.03400  0.47292  Biso   1.000  O
  O4       1.0000 0.40564  0.12585  0.58346  Biso   1.000  O
  O5       1.0000 0.16730  0.32690  0.59854  Biso   1.000  O
  O6       1.0000 0.05363  0.32740  0.49656  Biso   1.000  O
  O7       1.0000 0.44370  0.82770  0.50047  Biso   1.000  O
  O8       1.0000 0.33030  0.82740  0.40050  Biso   1.000  O
  O9       1.0000 0.44480  0.64930  0.76290  Biso   1.000  O
  O10      1.0000 0.35290  0.54050  0.76468  Biso   1.000  O
  O11      1.0000 0.09440  0.62350  0.41557  Biso   1.000  O
  O12      1.0000 0.09422  0.53720  0.52400  Biso   1.000  O
  C1       1.0000 0.11770  0.10330  0.27090  Biso   1.000  C
  C2       1.0000 0.16650  0.13360  0.36010  Biso   1.000  C
  C3       1.0000 0.12890  0.20040  0.40090  Biso   1.000  C
  H1       1.0000 0.07680  0.22490  0.37510  Biso   1.000  H
  C4       1.0000 0.16790  0.23040  0.47850  Biso   1.000  C
  C5       1.0000 0.24600  0.19390  0.51520  Biso   1.000  C
  H2       1.0000 0.27380  0.21500  0.56780  Biso   1.000  H
  C6       1.0000 0.28360  0.12590  0.47440  Biso   1.000  C
  C7       1.0000 0.24390  0.09810  0.39570  Biso   1.000  C
  H3       1.0000 0.26950  0.05520  0.36630  Biso   1.000  H
  C8       1.0000 0.12910  0.29890  0.53140  Biso   1.000  C
  C9       1.0000 0.36980  0.09210  0.51270  Biso   1.000  C
  C10      1.0000 0.37170  0.79840  0.47210  Biso   1.000  C
  C11      1.0000 0.32940  0.73070  0.51480  Biso   1.000  C
  C12      1.0000 0.37180  0.69940  0.60190  Biso   1.000  C
  H4       1.0000 0.42300  0.72590  0.62770  Biso   1.000  H
  C13      1.0000 0.33880  0.63640  0.64180  Biso   1.000  C
  C14      1.0000 0.25970  0.59760  0.60640  Biso   1.000  C
  H5       1.0000 0.23620  0.55250  0.63540  Biso   1.000  H
  C15      1.0000 0.21410  0.62950  0.52220  Biso   1.000  C
  C16      1.0000 0.25370  0.69150  0.48440  Biso   1.000  C
  H6       1.0000 0.22620  0.71010  0.43080  Biso   1.000  H
  C17      1.0000 0.38060  0.60370  0.73110  Biso   1.000  C
  C18      1.0000 0.12840  0.59180  0.48670  Biso   1.000  C
  Cd3      1.0000 0.54228  0.43180  0.10860  Biso   1.000  Cd
  Cd4      1.0000 0.95767  0.56734  0.39137  Biso   1.000  Cd
  O13      1.0000 0.85284  0.53540  0.26271  Biso   1.000  O
  O14      1.0000 0.94627  0.64490  0.26408  Biso   1.000  O
  O15      1.0000 0.59588  0.53400  0.02708  Biso   1.000  O
  O16      1.0000 0.59436  0.62585  0.91654  Biso   1.000  O
  O17      1.0000 0.83270  0.82690  0.90146  Biso   1.000  O
  O18      1.0000 0.94637  0.82740  0.00344  Biso   1.000  O
  O19      1.0000 0.55630  0.32770  0.99953  Biso   1.000  O
  O20      1.0000 0.66970  0.32740  0.09950  Biso   1.000  O
  O21      1.0000 0.55520  0.14930  0.73710  Biso   1.000  O
  O22      1.0000 0.64710  0.04050  0.73532  Biso   1.000  O
  O23      1.0000 0.90560  0.12350  0.08443  Biso   1.000  O
  O24      1.0000 0.90578  0.03720  0.97600  Biso   1.000  O
  C19      1.0000 0.88230  0.60330  0.22910  Biso   1.000  C
  C20      1.0000 0.83350  0.63360  0.13990  Biso   1.000  C
  C21      1.0000 0.87110  0.70040  0.09910  Biso   1.000  C
  H7       1.0000 0.92320  0.72490  0.12490  Biso   1.000  H
  C22      1.0000 0.83210  0.73040  0.02150  Biso   1.000  C
  C23      1.0000 0.75400  0.69390  0.98480  Biso   1.000  C
  H8       1.0000 0.72620  0.71500  0.93220  Biso   1.000  H
  C24      1.0000 0.71640  0.62590  0.02560  Biso   1.000  C
  C25      1.0000 0.75610  0.59810  0.10430  Biso   1.000  C
  H9       1.0000 0.73050  0.55520  0.13370  Biso   1.000  H
  C26      1.0000 0.87090  0.79890  0.96860  Biso   1.000  C
  C27      1.0000 0.63020  0.59210  0.98730  Biso   1.000  C
  C28      1.0000 0.62830  0.29840  0.02790  Biso   1.000  C
  C29      1.0000 0.67060  0.23070  0.98520  Biso   1.000  C
  C30      1.0000 0.62820  0.19940  0.89810  Biso   1.000  C
  H10      1.0000 0.57700  0.22590  0.87230  Biso   1.000  H
  C31      1.0000 0.66120  0.13640  0.85820  Biso   1.000  C
  C32      1.0000 0.74030  0.09760  0.89360  Biso   1.000  C
  H11      1.0000 0.76380  0.05250  0.86460  Biso   1.000  H
  C33      1.0000 0.78590  0.12950  0.97780  Biso   1.000  C
  C34      1.0000 0.74630  0.19150  0.01560  Biso   1.000  C
  H12      1.0000 0.77380  0.21010  0.06920  Biso   1.000  H
  C35      1.0000 0.61940  0.10370  0.76890  Biso   1.000  C
  C36      1.0000 0.87160  0.09180  0.01330  Biso   1.000  C
  Cd5      1.0000 0.54228  0.06820  0.60860  Biso   1.000  Cd
  Cd6      1.0000 0.95767  0.93266  0.89137  Biso   1.000  Cd
  O25      1.0000 0.85284  0.96460  0.76271  Biso   1.000  O
  O26      1.0000 0.94627  0.85510  0.76408  Biso   1.000  O
  O27      1.0000 0.59588  0.96600  0.52708  Biso   1.000  O
  O28      1.0000 0.59436  0.87415  0.41654  Biso   1.000  O
  O29      1.0000 0.83270  0.67310  0.40146  Biso   1.000  O
  O30      1.0000 0.94637  0.67260  0.50344  Biso   1.000  O
  O31      1.0000 0.55630  0.17230  0.49953  Biso   1.000  O
  O32      1.0000 0.66970  0.17260  0.59950  Biso   1.000  O
  O33      1.0000 0.55520  0.35070  0.23710  Biso   1.000  O
  O34      1.0000 0.64710  0.45950  0.23532  Biso   1.000  O
  O35      1.0000 0.90560  0.37650  0.58443  Biso   1.000  O
  O36      1.0000 0.90578  0.46280  0.47600  Biso   1.000  O
  C37      1.0000 0.88230  0.89670  0.72910  Biso   1.000  C
  C38      1.0000 0.83350  0.86640  0.63990  Biso   1.000  C
  C39      1.0000 0.87110  0.79960  0.59910  Biso   1.000  C
  H13      1.0000 0.92320  0.77510  0.62490  Biso   1.000  H
  C40      1.0000 0.83210  0.76960  0.52150  Biso   1.000  C
  C41      1.0000 0.75400  0.80610  0.48480  Biso   1.000  C
  H14      1.0000 0.72620  0.78500  0.43220  Biso   1.000  H
  C42      1.0000 0.71640  0.87410  0.52560  Biso   1.000  C
  C43      1.0000 0.75610  0.90190  0.60430  Biso   1.000  C
  H15      1.0000 0.73050  0.94480  0.63370  Biso   1.000  H
  C44      1.0000 0.87090  0.70110  0.46860  Biso   1.000  C
  C45      1.0000 0.63020  0.90790  0.48730  Biso   1.000  C
  C46      1.0000 0.62830  0.20160  0.52790  Biso   1.000  C
  C47      1.0000 0.67060  0.26930  0.48520  Biso   1.000  C
  C48      1.0000 0.62820  0.30060  0.39810  Biso   1.000  C
  H16      1.0000 0.57700  0.27410  0.37230  Biso   1.000  H
  C49      1.0000 0.66120  0.36360  0.35820  Biso   1.000  C
  C50      1.0000 0.74030  0.40240  0.39360  Biso   1.000  C
  H17      1.0000 0.76380  0.44750  0.36460  Biso   1.000  H
  C51      1.0000 0.78590  0.37050  0.47780  Biso   1.000  C
  C52      1.0000 0.74630  0.30850  0.51560  Biso   1.000  C
  H18      1.0000 0.77380  0.28990  0.56920  Biso   1.000  H
  C53      1.0000 0.61940  0.39630  0.26890  Biso   1.000  C
  C54      1.0000 0.87160  0.40820  0.51330  Biso   1.000  C
  Cd7      1.0000 0.45772  0.56820  0.89140  Biso   1.000  Cd
  Cd8      1.0000 0.04233  0.43266  0.60863  Biso   1.000  Cd
  O37      1.0000 0.14716  0.46460  0.73729  Biso   1.000  O
  O38      1.0000 0.05373  0.35510  0.73592  Biso   1.000  O
  O39      1.0000 0.40412  0.46600  0.97292  Biso   1.000  O
  O40      1.0000 0.40564  0.37415  0.08346  Biso   1.000  O
  O41      1.0000 0.16730  0.17310  0.09854  Biso   1.000  O
  O42      1.0000 0.05363  0.17260  0.99656  Biso   1.000  O
  O43      1.0000 0.44370  0.67230  0.00047  Biso   1.000  O
  O44      1.0000 0.33030  0.67260  0.90050  Biso   1.000  O
  O45      1.0000 0.44480  0.85070  0.26290  Biso   1.000  O
  O46      1.0000 0.35290  0.95950  0.26468  Biso   1.000  O
  O47      1.0000 0.09440  0.87650  0.91557  Biso   1.000  O
  O48      1.0000 0.09422  0.96280  0.02400  Biso   1.000  O
  C55      1.0000 0.11770  0.39670  0.77090  Biso   1.000  C
  C56      1.0000 0.16650  0.36640  0.86010  Biso   1.000  C
  C57      1.0000 0.12890  0.29960  0.90090  Biso   1.000  C
  H19      1.0000 0.07680  0.27510  0.87510  Biso   1.000  H
  C58      1.0000 0.16790  0.26960  0.97850  Biso   1.000  C
  C59      1.0000 0.24600  0.30610  0.01520  Biso   1.000  C
  H20      1.0000 0.27380  0.28500  0.06780  Biso   1.000  H
  C60      1.0000 0.28360  0.37410  0.97440  Biso   1.000  C
  C61      1.0000 0.24390  0.40190  0.89570  Biso   1.000  C
  H21      1.0000 0.26950  0.44480  0.86630  Biso   1.000  H
  C62      1.0000 0.12910  0.20110  0.03140  Biso   1.000  C
  C63      1.0000 0.36980  0.40790  0.01270  Biso   1.000  C
  C64      1.0000 0.37170  0.70160  0.97210  Biso   1.000  C
  C65      1.0000 0.32940  0.76930  0.01480  Biso   1.000  C
  C66      1.0000 0.37180  0.80060  0.10190  Biso   1.000  C
  H22      1.0000 0.42300  0.77410  0.12770  Biso   1.000  H
  C67      1.0000 0.33880  0.86360  0.14180  Biso   1.000  C
  C68      1.0000 0.25970  0.90240  0.10640  Biso   1.000  C
  H23      1.0000 0.23620  0.94750  0.13540  Biso   1.000  H
  C69      1.0000 0.21410  0.87050  0.02220  Biso   1.000  C
  C70      1.0000 0.25370  0.80850  0.98440  Biso   1.000  C
  H24      1.0000 0.22620  0.78990  0.93080  Biso   1.000  H
  C71      1.0000 0.38060  0.89630  0.23110  Biso   1.000  C
  C72      1.0000 0.12840  0.90820  0.98670  Biso   1.000  C
