data_MITTAL_charged
_audit_creation_date              2014-07-02
_audit_creation_method            'Materials Studio'
_symmetry_space_group_name_H-M    'P1'
_symmetry_Int_Tables_number       1
_symmetry_cell_setting            triclinic
loop_
_symmetry_equiv_pos_as_xyz
  x,y,z
_cell_length_a                    10.2235
_cell_length_b                    12.9894
_cell_length_c                    30.4870
_cell_angle_alpha                 90.0000
_cell_angle_beta                  91.9930
_cell_angle_gamma                 90.0000
loop_
_atom_site_label
_atom_site_type_symbol
_atom_site_fract_x
_atom_site_fract_y
_atom_site_fract_z
_atom_site_U_iso_or_equiv
_atom_site_adp_type
_atom_site_occupancy
Cd1    Cd    0.22919   0.61950   0.81561   0.01267  Uiso   1.00
Cd2    Cd    0.45517   0.47676   0.87020   0.01267  Uiso   1.00
Cd3    Cd    0.77081   0.11950   0.68439   0.01267  Uiso   1.00
Cd4    Cd    0.54483   0.97676   0.62980   0.01267  Uiso   1.00
Cd5    Cd    0.77081   0.38050   0.18439   0.01267  Uiso   1.00
Cd6    Cd    0.54483   0.52324   0.12980   0.01267  Uiso   1.00
Cd7    Cd    0.22919   0.88050   0.31561   0.01267  Uiso   1.00
Cd8    Cd    0.45517   0.02324   0.37020   0.01267  Uiso   1.00
H1     H     0.16920   0.79580   0.93890   0.01267  Uiso   1.00
H2     H     0.28220   0.76270   0.06480   0.01267  Uiso   1.00
H3     H     0.36100   0.54130   0.97770   0.01267  Uiso   1.00
H4     H     0.07880   0.32150   0.75980   0.01267  Uiso   1.00
H5     H     0.22800   0.11150   0.67880   0.01267  Uiso   1.00
H6     H     0.47010   0.28580   0.75520   0.01267  Uiso   1.00
H7     H     0.83080   0.29580   0.56110   0.01267  Uiso   1.00
H8     H     0.71780   0.26270   0.43520   0.01267  Uiso   1.00
H9     H     0.63900   0.04130   0.52230   0.01267  Uiso   1.00
H10    H     0.92120   0.82150   0.74020   0.01267  Uiso   1.00
H11    H     0.77200   0.61150   0.82120   0.01267  Uiso   1.00
H12    H     0.52990   0.78580   0.74480   0.01267  Uiso   1.00
H13    H     0.83080   0.20420   0.06110   0.01267  Uiso   1.00
H14    H     0.71780   0.23730   0.93520   0.01267  Uiso   1.00
H15    H     0.63900   0.45870   0.02230   0.01267  Uiso   1.00
H16    H     0.92120   0.67850   0.24020   0.01267  Uiso   1.00
H17    H     0.77200   0.88850   0.32120   0.01267  Uiso   1.00
H18    H     0.52990   0.71420   0.24480   0.01267  Uiso   1.00
H19    H     0.16920   0.70420   0.43890   0.01267  Uiso   1.00
H20    H     0.28220   0.73730   0.56480   0.01267  Uiso   1.00
H21    H     0.36100   0.95870   0.47770   0.01267  Uiso   1.00
H22    H     0.07880   0.17850   0.25980   0.01267  Uiso   1.00
H23    H     0.22800   0.38850   0.17880   0.01267  Uiso   1.00
H24    H     0.47010   0.21420   0.25520   0.01267  Uiso   1.00
C1     C     0.27240   0.62380   0.90483   0.01267  Uiso   1.00
C2     C     0.27110   0.66430   0.95162   0.01267  Uiso   1.00
C3     C     0.21050   0.75760   0.96113   0.01267  Uiso   1.00
C4     C     0.21260   0.79240   0.00363   0.01267  Uiso   1.00
C5     C     0.27700   0.73690   0.03636   0.01267  Uiso   1.00
C6     C     0.33440   0.64230   0.02702   0.01267  Uiso   1.00
C7     C     0.32730   0.60580   0.98417   0.01267  Uiso   1.00
C8     C     0.14300   0.88940   0.01634   0.01267  Uiso   1.00
C9     C     0.40090   0.57720   0.06184   0.01267  Uiso   1.00
C10    C     0.29790   0.40240   0.79508   0.01267  Uiso   1.00
C11    C     0.27900   0.31660   0.76135   0.01267  Uiso   1.00
C12    C     0.15080   0.28860   0.74836   0.01267  Uiso   1.00
C13    C     0.13480   0.20820   0.71711   0.01267  Uiso   1.00
C14    C     0.24040   0.16320   0.69968   0.01267  Uiso   1.00
C15    C     0.36950   0.19310   0.71253   0.01267  Uiso   1.00
C16    C     0.38640   0.26840   0.74486   0.01267  Uiso   1.00
C17    C     0.99910   0.17140   0.70327   0.01267  Uiso   1.00
C18    C     0.48360   0.14450   0.69087   0.01267  Uiso   1.00
C19    C     0.72760   0.12380   0.59517   0.01267  Uiso   1.00
C20    C     0.72890   0.16430   0.54838   0.01267  Uiso   1.00
C21    C     0.78950   0.25760   0.53887   0.01267  Uiso   1.00
C22    C     0.78740   0.29240   0.49637   0.01267  Uiso   1.00
C23    C     0.72300   0.23690   0.46364   0.01267  Uiso   1.00
C24    C     0.66560   0.14230   0.47298   0.01267  Uiso   1.00
C25    C     0.67270   0.10580   0.51583   0.01267  Uiso   1.00
C26    C     0.85700   0.38940   0.48366   0.01267  Uiso   1.00
C27    C     0.59910   0.07720   0.43816   0.01267  Uiso   1.00
C28    C     0.70210   0.90240   0.70492   0.01267  Uiso   1.00
C29    C     0.72100   0.81660   0.73865   0.01267  Uiso   1.00
C30    C     0.84920   0.78860   0.75164   0.01267  Uiso   1.00
C31    C     0.86520   0.70820   0.78289   0.01267  Uiso   1.00
C32    C     0.75960   0.66320   0.80032   0.01267  Uiso   1.00
C33    C     0.63050   0.69310   0.78747   0.01267  Uiso   1.00
C34    C     0.61360   0.76840   0.75514   0.01267  Uiso   1.00
C35    C     0.00090   0.67140   0.79673   0.01267  Uiso   1.00
C36    C     0.51640   0.64450   0.80913   0.01267  Uiso   1.00
C37    C     0.72760   0.37620   0.09517   0.01267  Uiso   1.00
C38    C     0.72890   0.33570   0.04838   0.01267  Uiso   1.00
C39    C     0.78950   0.24240   0.03887   0.01267  Uiso   1.00
C40    C     0.78740   0.20760   0.99637   0.01267  Uiso   1.00
C41    C     0.72300   0.26310   0.96364   0.01267  Uiso   1.00
C42    C     0.66560   0.35770   0.97298   0.01267  Uiso   1.00
C43    C     0.67270   0.39420   0.01583   0.01267  Uiso   1.00
C44    C     0.85700   0.11060   0.98366   0.01267  Uiso   1.00
C45    C     0.59910   0.42280   0.93816   0.01267  Uiso   1.00
C46    C     0.70210   0.59760   0.20492   0.01267  Uiso   1.00
C47    C     0.72100   0.68340   0.23865   0.01267  Uiso   1.00
C48    C     0.84920   0.71140   0.25164   0.01267  Uiso   1.00
C49    C     0.86520   0.79180   0.28289   0.01267  Uiso   1.00
C50    C     0.75960   0.83680   0.30032   0.01267  Uiso   1.00
C51    C     0.63050   0.80690   0.28747   0.01267  Uiso   1.00
C52    C     0.61360   0.73160   0.25514   0.01267  Uiso   1.00
C53    C     0.00090   0.82860   0.29673   0.01267  Uiso   1.00
C54    C     0.51640   0.85550   0.30913   0.01267  Uiso   1.00
C55    C     0.27240   0.87620   0.40483   0.01267  Uiso   1.00
C56    C     0.27110   0.83570   0.45162   0.01267  Uiso   1.00
C57    C     0.21050   0.74240   0.46113   0.01267  Uiso   1.00
C58    C     0.21260   0.70760   0.50363   0.01267  Uiso   1.00
C59    C     0.27700   0.76310   0.53636   0.01267  Uiso   1.00
C60    C     0.33440   0.85770   0.52702   0.01267  Uiso   1.00
C61    C     0.32730   0.89420   0.48417   0.01267  Uiso   1.00
C62    C     0.14300   0.61060   0.51634   0.01267  Uiso   1.00
C63    C     0.40090   0.92280   0.56184   0.01267  Uiso   1.00
C64    C     0.29790   0.09760   0.29508   0.01267  Uiso   1.00
C65    C     0.27900   0.18340   0.26135   0.01267  Uiso   1.00
C66    C     0.15080   0.21140   0.24836   0.01267  Uiso   1.00
C67    C     0.13480   0.29180   0.21711   0.01267  Uiso   1.00
C68    C     0.24040   0.33680   0.19968   0.01267  Uiso   1.00
C69    C     0.36950   0.30690   0.21253   0.01267  Uiso   1.00
C70    C     0.38640   0.23160   0.24486   0.01267  Uiso   1.00
C71    C     0.99910   0.32860   0.20327   0.01267  Uiso   1.00
C72    C     0.48360   0.35550   0.19087   0.01267  Uiso   1.00
O1     O     0.24530   0.68540   0.87534   0.01267  Uiso   1.00
O2     O     0.30290   0.53282   0.89939   0.01267  Uiso   1.00
O3     O     0.06800   0.92870   0.98608   0.01267  Uiso   1.00
O4     O     0.12280   0.89850   0.05810   0.01267  Uiso   1.00
O5     O     0.41110   0.48280   0.05653   0.01267  Uiso   1.00
O6     O     0.44550   0.62630   0.09530   0.01267  Uiso   1.00
O7     O     0.22090   0.47525   0.79327   0.01267  Uiso   1.00
O8     O     0.39590   0.39125   0.82098   0.01267  Uiso   1.00
O9     O     0.90150   0.20530   0.72118   0.01267  Uiso   1.00
O10    O     0.99160   0.10530   0.67311   0.01267  Uiso   1.00
O11    O     0.45590   0.08830   0.65849   0.01267  Uiso   1.00
O12    O     0.59670   0.16118   0.70731   0.01267  Uiso   1.00
O13    O     0.75470   0.18540   0.62466   0.01267  Uiso   1.00
O14    O     0.69710   0.03282   0.60061   0.01267  Uiso   1.00
O15    O     0.93200   0.42870   0.51392   0.01267  Uiso   1.00
O16    O     0.87720   0.39850   0.44190   0.01267  Uiso   1.00
O17    O     0.58890   0.98280   0.44347   0.01267  Uiso   1.00
O18    O     0.55450   0.12630   0.40470   0.01267  Uiso   1.00
O19    O     0.77910   0.97525   0.70673   0.01267  Uiso   1.00
O20    O     0.60410   0.89125   0.67902   0.01267  Uiso   1.00
O21    O     0.09850   0.70530   0.77882   0.01267  Uiso   1.00
O22    O     0.00840   0.60530   0.82689   0.01267  Uiso   1.00
O23    O     0.54410   0.58830   0.84151   0.01267  Uiso   1.00
O24    O     0.40330   0.66118   0.79269   0.01267  Uiso   1.00
O25    O     0.75470   0.31460   0.12466   0.01267  Uiso   1.00
O26    O     0.69710   0.46718   0.10061   0.01267  Uiso   1.00
O27    O     0.93200   0.07130   0.01392   0.01267  Uiso   1.00
O28    O     0.87720   0.10150   0.94190   0.01267  Uiso   1.00
O29    O     0.58890   0.51720   0.94347   0.01267  Uiso   1.00
O30    O     0.55450   0.37370   0.90470   0.01267  Uiso   1.00
O31    O     0.77910   0.52475   0.20673   0.01267  Uiso   1.00
O32    O     0.60410   0.60875   0.17902   0.01267  Uiso   1.00
O33    O     0.09850   0.79470   0.27882   0.01267  Uiso   1.00
O34    O     0.00840   0.89470   0.32689   0.01267  Uiso   1.00
O35    O     0.54410   0.91170   0.34151   0.01267  Uiso   1.00
O36    O     0.40330   0.83882   0.29269   0.01267  Uiso   1.00
O37    O     0.24530   0.81460   0.37534   0.01267  Uiso   1.00
O38    O     0.30290   0.96718   0.39939   0.01267  Uiso   1.00
O39    O     0.06800   0.57130   0.48608   0.01267  Uiso   1.00
O40    O     0.12280   0.60150   0.55810   0.01267  Uiso   1.00
O41    O     0.41110   0.01720   0.55653   0.01267  Uiso   1.00
O42    O     0.44550   0.87370   0.59530   0.01267  Uiso   1.00
O43    O     0.22090   0.02475   0.29327   0.01267  Uiso   1.00
O44    O     0.39590   0.10875   0.32098   0.01267  Uiso   1.00
O45    O     0.90150   0.29470   0.22118   0.01267  Uiso   1.00
O46    O     0.99160   0.39470   0.17311   0.01267  Uiso   1.00
O47    O     0.45590   0.41170   0.15849   0.01267  Uiso   1.00
O48    O     0.59670   0.33882   0.20731   0.01267  Uiso   1.00
H25    H     0.06360   0.05390   0.87950   0.01267  Uiso   1.00
H26    H     0.07700   0.94010   0.86430   0.01267  Uiso   1.00
H27    H     0.02700   0.00990   0.79230   0.01267  Uiso   1.00
H28    H     0.07320   0.11360   0.81420   0.01267  Uiso   1.00
H29    H     0.24450   0.02870   0.84040   0.01267  Uiso   1.00
H30    H     0.23830   0.06990   0.79370   0.01267  Uiso   1.00
H31    H     0.41200   0.99050   0.81690   0.01267  Uiso   1.00
H32    H     0.33600   0.88610   0.81170   0.01267  Uiso   1.00
H33    H     0.35450   0.95700   0.77070   0.01267  Uiso   1.00
H34    H     0.90870   0.04370   0.80350   0.01267  Uiso   1.00
H35    H     0.76670   0.01060   0.81410   0.01267  Uiso   1.00
H36    H     0.88650   0.18920   0.82210   0.01267  Uiso   1.00
H37    H     0.81180   0.16130   0.86310   0.01267  Uiso   1.00
H38    H     0.65770   0.24600   0.84660   0.01267  Uiso   1.00
H39    H     0.65770   0.21760   0.79690   0.01267  Uiso   1.00
H40    H     0.68950   0.38620   0.80210   0.01267  Uiso   1.00
H41    H     0.80400   0.37240   0.83710   0.01267  Uiso   1.00
H42    H     0.82310   0.33890   0.78840   0.01267  Uiso   1.00
H43    H     0.91650   0.85320   0.89520   0.01267  Uiso   1.00
H44    H     0.85180   0.84190   0.84850   0.01267  Uiso   1.00
H45    H     0.69590   0.92740   0.90690   0.01267  Uiso   1.00
H46    H     0.66300   0.84750   0.87030   0.01267  Uiso   1.00
H47    H     0.63010   0.81630   0.94570   0.01267  Uiso   1.00
H48    H     0.65230   0.73000   0.91190   0.01267  Uiso   1.00
H49    H     0.73260   0.67440   0.97290   0.01267  Uiso   1.00
H50    H     0.85590   0.70340   0.94640   0.01267  Uiso   1.00
H51    H     0.80830   0.77690   0.98340   0.01267  Uiso   1.00
C73    C     0.03320   0.00460   0.85750   0.01267  Uiso   1.00
C74    C     0.08070   0.03930   0.81600   0.01267  Uiso   1.00
C75    C     0.21720   0.00940   0.81070   0.01267  Uiso   1.00
C76    C     0.34070   0.95610   0.80170   0.01267  Uiso   1.00
C77    C     0.84340   0.04670   0.82580   0.01267  Uiso   1.00
C78    C     0.80660   0.15660   0.83130   0.01267  Uiso   1.00
C79    C     0.71330   0.23970   0.82160   0.01267  Uiso   1.00
C80    C     0.76170   0.34330   0.81140   0.01267  Uiso   1.00
C81    C     0.85010   0.88200   0.87530   0.01267  Uiso   1.00
C82    C     0.72340   0.86210   0.89480   0.01267  Uiso   1.00
C83    C     0.69660   0.78470   0.92820   0.01267  Uiso   1.00
C84    C     0.78100   0.73000   0.96050   0.01267  Uiso   1.00
N1     N     0.89440   0.98840   0.86410   0.01267  Uiso   1.00
H52    H     0.93640   0.55390   0.62050   0.01267  Uiso   1.00
H53    H     0.92300   0.44010   0.63570   0.01267  Uiso   1.00
H54    H     0.97300   0.50990   0.70770   0.01267  Uiso   1.00
H55    H     0.92680   0.61360   0.68580   0.01267  Uiso   1.00
H56    H     0.75550   0.52870   0.65960   0.01267  Uiso   1.00
H57    H     0.76170   0.56990   0.70630   0.01267  Uiso   1.00
H58    H     0.58800   0.49050   0.68310   0.01267  Uiso   1.00
H59    H     0.66400   0.38610   0.68830   0.01267  Uiso   1.00
H60    H     0.64550   0.45700   0.72930   0.01267  Uiso   1.00
H61    H     0.09130   0.54370   0.69650   0.01267  Uiso   1.00
H62    H     0.23330   0.51060   0.68590   0.01267  Uiso   1.00
H63    H     0.11350   0.68920   0.67790   0.01267  Uiso   1.00
H64    H     0.18820   0.66130   0.63690   0.01267  Uiso   1.00
H65    H     0.34230   0.74600   0.65340   0.01267  Uiso   1.00
H66    H     0.34230   0.71760   0.70310   0.01267  Uiso   1.00
H67    H     0.31050   0.88620   0.69790   0.01267  Uiso   1.00
H68    H     0.19600   0.87240   0.66290   0.01267  Uiso   1.00
H69    H     0.17690   0.83890   0.71160   0.01267  Uiso   1.00
H70    H     0.08350   0.35320   0.60480   0.01267  Uiso   1.00
H71    H     0.14820   0.34190   0.65150   0.01267  Uiso   1.00
H72    H     0.30410   0.42740   0.59310   0.01267  Uiso   1.00
H73    H     0.33700   0.34750   0.62970   0.01267  Uiso   1.00
H74    H     0.36990   0.31630   0.55430   0.01267  Uiso   1.00
H75    H     0.34770   0.23000   0.58810   0.01267  Uiso   1.00
H76    H     0.26740   0.17440   0.52710   0.01267  Uiso   1.00
H77    H     0.14410   0.20340   0.55360   0.01267  Uiso   1.00
H78    H     0.19170   0.27690   0.51660   0.01267  Uiso   1.00
C85    C     0.96680   0.50460   0.64250   0.01267  Uiso   1.00
C86    C     0.91930   0.53930   0.68400   0.01267  Uiso   1.00
C87    C     0.78280   0.50940   0.68930   0.01267  Uiso   1.00
C88    C     0.65930   0.45610   0.69830   0.01267  Uiso   1.00
C89    C     0.15660   0.54670   0.67420   0.01267  Uiso   1.00
C90    C     0.19340   0.65660   0.66870   0.01267  Uiso   1.00
C91    C     0.28670   0.73970   0.67840   0.01267  Uiso   1.00
C92    C     0.23830   0.84330   0.68860   0.01267  Uiso   1.00
C93    C     0.14990   0.38200   0.62470   0.01267  Uiso   1.00
C94    C     0.27660   0.36210   0.60520   0.01267  Uiso   1.00
C95    C     0.30340   0.28470   0.57180   0.01267  Uiso   1.00
C96    C     0.21900   0.23000   0.53950   0.01267  Uiso   1.00
N2     N     0.10560   0.48840   0.63590   0.01267  Uiso   1.00
H79    H     0.93640   0.94610   0.12050   0.01267  Uiso   1.00
H80    H     0.92300   0.05990   0.13570   0.01267  Uiso   1.00
H81    H     0.97300   0.99010   0.20770   0.01267  Uiso   1.00
H82    H     0.92680   0.88640   0.18580   0.01267  Uiso   1.00
H83    H     0.75550   0.97130   0.15960   0.01267  Uiso   1.00
H84    H     0.76170   0.93010   0.20630   0.01267  Uiso   1.00
H85    H     0.58800   0.00950   0.18310   0.01267  Uiso   1.00
H86    H     0.66400   0.11390   0.18830   0.01267  Uiso   1.00
H87    H     0.64550   0.04300   0.22930   0.01267  Uiso   1.00
H88    H     0.09130   0.95630   0.19650   0.01267  Uiso   1.00
H89    H     0.23330   0.98940   0.18590   0.01267  Uiso   1.00
H90    H     0.11350   0.81080   0.17790   0.01267  Uiso   1.00
H91    H     0.18820   0.83870   0.13690   0.01267  Uiso   1.00
H92    H     0.34230   0.75400   0.15340   0.01267  Uiso   1.00
H93    H     0.34230   0.78240   0.20310   0.01267  Uiso   1.00
H94    H     0.31050   0.61380   0.19790   0.01267  Uiso   1.00
H95    H     0.19600   0.62760   0.16290   0.01267  Uiso   1.00
H96    H     0.17690   0.66110   0.21160   0.01267  Uiso   1.00
H97    H     0.08350   0.14680   0.10480   0.01267  Uiso   1.00
H98    H     0.14820   0.15810   0.15150   0.01267  Uiso   1.00
H99    H     0.30410   0.07260   0.09310   0.01267  Uiso   1.00
H100   H     0.33700   0.15250   0.12970   0.01267  Uiso   1.00
H101   H     0.36990   0.18370   0.05430   0.01267  Uiso   1.00
H102   H     0.34770   0.27000   0.08810   0.01267  Uiso   1.00
H103   H     0.26740   0.32560   0.02710   0.01267  Uiso   1.00
H104   H     0.14410   0.29660   0.05360   0.01267  Uiso   1.00
H105   H     0.19170   0.22310   0.01660   0.01267  Uiso   1.00
C97    C     0.96680   0.99540   0.14250   0.01267  Uiso   1.00
C98    C     0.91930   0.96070   0.18400   0.01267  Uiso   1.00
C99    C     0.78280   0.99060   0.18930   0.01267  Uiso   1.00
C100   C     0.65930   0.04390   0.19830   0.01267  Uiso   1.00
C101   C     0.15660   0.95330   0.17420   0.01267  Uiso   1.00
C102   C     0.19340   0.84340   0.16870   0.01267  Uiso   1.00
C103   C     0.28670   0.76030   0.17840   0.01267  Uiso   1.00
C104   C     0.23830   0.65670   0.18860   0.01267  Uiso   1.00
C105   C     0.14990   0.11800   0.12470   0.01267  Uiso   1.00
C106   C     0.27660   0.13790   0.10520   0.01267  Uiso   1.00
C107   C     0.30340   0.21530   0.07180   0.01267  Uiso   1.00
C108   C     0.21900   0.27000   0.03950   0.01267  Uiso   1.00
N3     N     0.10560   0.01160   0.13590   0.01267  Uiso   1.00
H106   H     0.06360   0.44610   0.37950   0.01267  Uiso   1.00
H107   H     0.07700   0.55990   0.36430   0.01267  Uiso   1.00
H108   H     0.02700   0.49010   0.29230   0.01267  Uiso   1.00
H109   H     0.07320   0.38640   0.31420   0.01267  Uiso   1.00
H110   H     0.24450   0.47130   0.34040   0.01267  Uiso   1.00
H111   H     0.23830   0.43010   0.29370   0.01267  Uiso   1.00
H112   H     0.41200   0.50950   0.31690   0.01267  Uiso   1.00
H113   H     0.33600   0.61390   0.31170   0.01267  Uiso   1.00
H114   H     0.35450   0.54300   0.27070   0.01267  Uiso   1.00
H115   H     0.90870   0.45630   0.30350   0.01267  Uiso   1.00
H116   H     0.76670   0.48940   0.31410   0.01267  Uiso   1.00
H117   H     0.88650   0.31080   0.32210   0.01267  Uiso   1.00
H118   H     0.81180   0.33870   0.36310   0.01267  Uiso   1.00
H119   H     0.65770   0.25400   0.34660   0.01267  Uiso   1.00
H120   H     0.65770   0.28240   0.29690   0.01267  Uiso   1.00
H121   H     0.68950   0.11380   0.30210   0.01267  Uiso   1.00
H122   H     0.80400   0.12760   0.33710   0.01267  Uiso   1.00
H123   H     0.82310   0.16110   0.28840   0.01267  Uiso   1.00
H124   H     0.91650   0.64680   0.39520   0.01267  Uiso   1.00
H125   H     0.85180   0.65810   0.34850   0.01267  Uiso   1.00
H126   H     0.69590   0.57260   0.40690   0.01267  Uiso   1.00
H127   H     0.66300   0.65250   0.37030   0.01267  Uiso   1.00
H128   H     0.63010   0.68370   0.44570   0.01267  Uiso   1.00
H129   H     0.65230   0.77000   0.41190   0.01267  Uiso   1.00
H130   H     0.73260   0.82560   0.47290   0.01267  Uiso   1.00
H131   H     0.85590   0.79660   0.44640   0.01267  Uiso   1.00
H132   H     0.80830   0.72310   0.48340   0.01267  Uiso   1.00
C109   C     0.03320   0.49540   0.35750   0.01267  Uiso   1.00
C110   C     0.08070   0.46070   0.31600   0.01267  Uiso   1.00
C111   C     0.21720   0.49060   0.31070   0.01267  Uiso   1.00
C112   C     0.34070   0.54390   0.30170   0.01267  Uiso   1.00
C113   C     0.84340   0.45330   0.32580   0.01267  Uiso   1.00
C114   C     0.80660   0.34340   0.33130   0.01267  Uiso   1.00
C115   C     0.71330   0.26030   0.32160   0.01267  Uiso   1.00
C116   C     0.76170   0.15670   0.31140   0.01267  Uiso   1.00
C117   C     0.85010   0.61800   0.37530   0.01267  Uiso   1.00
C118   C     0.72340   0.63790   0.39480   0.01267  Uiso   1.00
C119   C     0.69660   0.71530   0.42820   0.01267  Uiso   1.00
C120   C     0.78100   0.77000   0.46050   0.01267  Uiso   1.00
N4     N     0.89440   0.51160   0.36410   0.01267  Uiso   1.00
