data_image0
_cell_length_a       18.9153
_cell_length_b       18.9153
_cell_length_c       18.9153
_cell_angle_alpha    90
_cell_angle_beta     90
_cell_angle_gamma    90

_symmetry_space_group_name_H-M    "P 1"
_symmetry_int_tables_number       1

loop_
  _symmetry_equiv_pos_as_xyz
  'x, y, z'

loop_
  _atom_site_label
  _atom_site_occupancy
  _atom_site_fract_x
  _atom_site_fract_y
  _atom_site_fract_z
  _atom_site_thermal_displace_type
  _atom_site_B_iso_or_equiv
  _atom_site_type_symbol
  N1       1.0000 0.41677  0.36733  0.92018  Biso   1.000  N
  N2       1.0000 0.40639  0.32334  0.86722  Biso   1.000  N
  N3       1.0000 0.58323  0.63267  0.92018  Biso   1.000  N
  N4       1.0000 0.59361  0.67666  0.86722  Biso   1.000  N
  N5       1.0000 0.58323  0.36733  0.07982  Biso   1.000  N
  N6       1.0000 0.59361  0.32334  0.13278  Biso   1.000  N
  N7       1.0000 0.41677  0.63267  0.07982  Biso   1.000  N
  N8       1.0000 0.40639  0.67666  0.13278  Biso   1.000  N
  N9       1.0000 0.92018  0.41677  0.36733  Biso   1.000  N
  N10      1.0000 0.86722  0.40639  0.32334  Biso   1.000  N
  N11      1.0000 0.92018  0.58323  0.63267  Biso   1.000  N
  N12      1.0000 0.86722  0.59361  0.67666  Biso   1.000  N
  N13      1.0000 0.07982  0.58323  0.36733  Biso   1.000  N
  N14      1.0000 0.13278  0.59361  0.32334  Biso   1.000  N
  N15      1.0000 0.07982  0.41677  0.63267  Biso   1.000  N
  N16      1.0000 0.13278  0.40639  0.67666  Biso   1.000  N
  N17      1.0000 0.36733  0.92018  0.41677  Biso   1.000  N
  N18      1.0000 0.32334  0.86722  0.40639  Biso   1.000  N
  N19      1.0000 0.63267  0.92018  0.58323  Biso   1.000  N
  N20      1.0000 0.67666  0.86722  0.59361  Biso   1.000  N
  N21      1.0000 0.36733  0.07982  0.58323  Biso   1.000  N
  N22      1.0000 0.32334  0.13278  0.59361  Biso   1.000  N
  N23      1.0000 0.63267  0.07982  0.41677  Biso   1.000  N
  N24      1.0000 0.67666  0.13278  0.40639  Biso   1.000  N
  N25      1.0000 0.36733  0.41677  0.07982  Biso   1.000  N
  N26      1.0000 0.32334  0.40639  0.13278  Biso   1.000  N
  N27      1.0000 0.63267  0.58323  0.07982  Biso   1.000  N
  N28      1.0000 0.67666  0.59361  0.13278  Biso   1.000  N
  N29      1.0000 0.36733  0.58323  0.92018  Biso   1.000  N
  N30      1.0000 0.32334  0.59361  0.86722  Biso   1.000  N
  N31      1.0000 0.63267  0.41677  0.92018  Biso   1.000  N
  N32      1.0000 0.67666  0.40639  0.86722  Biso   1.000  N
  N33      1.0000 0.41677  0.92018  0.63267  Biso   1.000  N
  N34      1.0000 0.40639  0.86722  0.67666  Biso   1.000  N
  N35      1.0000 0.58323  0.92018  0.36733  Biso   1.000  N
  N36      1.0000 0.59361  0.86722  0.32334  Biso   1.000  N
  N37      1.0000 0.58323  0.07982  0.63267  Biso   1.000  N
  N38      1.0000 0.59361  0.13278  0.67666  Biso   1.000  N
  N39      1.0000 0.41677  0.07982  0.36733  Biso   1.000  N
  N40      1.0000 0.40639  0.13278  0.32334  Biso   1.000  N
  N41      1.0000 0.92018  0.36733  0.58323  Biso   1.000  N
  N42      1.0000 0.86722  0.32334  0.59361  Biso   1.000  N
  N43      1.0000 0.92018  0.63267  0.41677  Biso   1.000  N
  N44      1.0000 0.86722  0.67666  0.40639  Biso   1.000  N
  N45      1.0000 0.07982  0.36733  0.41677  Biso   1.000  N
  N46      1.0000 0.13278  0.32334  0.40639  Biso   1.000  N
  N47      1.0000 0.07982  0.63267  0.58323  Biso   1.000  N
  N48      1.0000 0.13278  0.67666  0.59361  Biso   1.000  N
  N49      1.0000 0.58323  0.63267  0.07982  Biso   1.000  N
  N50      1.0000 0.59361  0.67666  0.13278  Biso   1.000  N
  N51      1.0000 0.41677  0.36733  0.07982  Biso   1.000  N
  N52      1.0000 0.40639  0.32334  0.13278  Biso   1.000  N
  N53      1.0000 0.41677  0.63267  0.92018  Biso   1.000  N
  N54      1.0000 0.40639  0.67666  0.86722  Biso   1.000  N
  N55      1.0000 0.58323  0.36733  0.92018  Biso   1.000  N
  N56      1.0000 0.59361  0.32334  0.86722  Biso   1.000  N
  N57      1.0000 0.07982  0.58323  0.63267  Biso   1.000  N
  N58      1.0000 0.13278  0.59361  0.67666  Biso   1.000  N
  N59      1.0000 0.07982  0.41677  0.36733  Biso   1.000  N
  N60      1.0000 0.13278  0.40639  0.32334  Biso   1.000  N
  N61      1.0000 0.92018  0.41677  0.63267  Biso   1.000  N
  N62      1.0000 0.86722  0.40639  0.67666  Biso   1.000  N
  N63      1.0000 0.92018  0.58323  0.36733  Biso   1.000  N
  N64      1.0000 0.86722  0.59361  0.32334  Biso   1.000  N
  N65      1.0000 0.63267  0.07982  0.58323  Biso   1.000  N
  N66      1.0000 0.67666  0.13278  0.59361  Biso   1.000  N
  N67      1.0000 0.36733  0.07982  0.41677  Biso   1.000  N
  N68      1.0000 0.32334  0.13278  0.40639  Biso   1.000  N
  N69      1.0000 0.63267  0.92018  0.41677  Biso   1.000  N
  N70      1.0000 0.67666  0.86722  0.40639  Biso   1.000  N
  N71      1.0000 0.36733  0.92018  0.58323  Biso   1.000  N
  N72      1.0000 0.32334  0.86722  0.59361  Biso   1.000  N
  N73      1.0000 0.63267  0.58323  0.92018  Biso   1.000  N
  N74      1.0000 0.67666  0.59361  0.86722  Biso   1.000  N
  N75      1.0000 0.36733  0.41677  0.92018  Biso   1.000  N
  N76      1.0000 0.32334  0.40639  0.86722  Biso   1.000  N
  N77      1.0000 0.63267  0.41677  0.07982  Biso   1.000  N
  N78      1.0000 0.67666  0.40639  0.13278  Biso   1.000  N
  N79      1.0000 0.36733  0.58323  0.07982  Biso   1.000  N
  N80      1.0000 0.32334  0.59361  0.13278  Biso   1.000  N
  N81      1.0000 0.58323  0.07982  0.36733  Biso   1.000  N
  N82      1.0000 0.59361  0.13278  0.32334  Biso   1.000  N
  N83      1.0000 0.41677  0.07982  0.63267  Biso   1.000  N
  N84      1.0000 0.40639  0.13278  0.67666  Biso   1.000  N
  N85      1.0000 0.41677  0.92018  0.36733  Biso   1.000  N
  N86      1.0000 0.40639  0.86722  0.32334  Biso   1.000  N
  N87      1.0000 0.58323  0.92018  0.63267  Biso   1.000  N
  N88      1.0000 0.59361  0.86722  0.67666  Biso   1.000  N
  N89      1.0000 0.07982  0.63267  0.41677  Biso   1.000  N
  N90      1.0000 0.13278  0.67666  0.40639  Biso   1.000  N
  N91      1.0000 0.07982  0.36733  0.58323  Biso   1.000  N
  N92      1.0000 0.13278  0.32334  0.59361  Biso   1.000  N
  N93      1.0000 0.92018  0.63267  0.58323  Biso   1.000  N
  N94      1.0000 0.86722  0.67666  0.59361  Biso   1.000  N
  N95      1.0000 0.92018  0.36733  0.41677  Biso   1.000  N
  N96      1.0000 0.86722  0.32334  0.40639  Biso   1.000  N
  Cl1      1.0000 0.50000  0.50000  0.00000  Biso   1.000  Cl
  Cl2      1.0000 0.00000  0.50000  0.50000  Biso   1.000  Cl
  Cl3      1.0000 0.50000  0.00000  0.50000  Biso   1.000  Cl
  Mn1      1.0000 0.50000  0.35958  0.00000  Biso   1.000  Mn
  Mn2      1.0000 0.50000  0.64042  0.00000  Biso   1.000  Mn
  Mn3      1.0000 0.00000  0.50000  0.35958  Biso   1.000  Mn
  Mn4      1.0000 0.00000  0.50000  0.64042  Biso   1.000  Mn
  Mn5      1.0000 0.35958  0.00000  0.50000  Biso   1.000  Mn
  Mn6      1.0000 0.64042  0.00000  0.50000  Biso   1.000  Mn
  Mn7      1.0000 0.35958  0.50000  0.00000  Biso   1.000  Mn
  Mn8      1.0000 0.64042  0.50000  0.00000  Biso   1.000  Mn
  Mn9      1.0000 0.50000  0.00000  0.64042  Biso   1.000  Mn
  Mn10     1.0000 0.50000  0.00000  0.35958  Biso   1.000  Mn
  Mn11     1.0000 0.00000  0.35958  0.50000  Biso   1.000  Mn
  Mn12     1.0000 0.00000  0.64042  0.50000  Biso   1.000  Mn
  C1       1.0000 0.34880  0.34880  0.83440  Biso   1.000  C
  C2       1.0000 0.31690  0.31690  0.77210  Biso   1.000  C
  C3       1.0000 0.65120  0.65120  0.83440  Biso   1.000  C
  C4       1.0000 0.68310  0.68310  0.77210  Biso   1.000  C
  C5       1.0000 0.65120  0.34880  0.16560  Biso   1.000  C
  C6       1.0000 0.68310  0.31690  0.22790  Biso   1.000  C
  C7       1.0000 0.34880  0.65120  0.16560  Biso   1.000  C
  C8       1.0000 0.31690  0.68310  0.22790  Biso   1.000  C
  C9       1.0000 0.83440  0.34880  0.34880  Biso   1.000  C
  C10      1.0000 0.77210  0.31690  0.31690  Biso   1.000  C
  C11      1.0000 0.83440  0.65120  0.65120  Biso   1.000  C
  C12      1.0000 0.77210  0.68310  0.68310  Biso   1.000  C
  C13      1.0000 0.16560  0.65120  0.34880  Biso   1.000  C
  C14      1.0000 0.22790  0.68310  0.31690  Biso   1.000  C
  C15      1.0000 0.16560  0.34880  0.65120  Biso   1.000  C
  C16      1.0000 0.22790  0.31690  0.68310  Biso   1.000  C
  C17      1.0000 0.34880  0.83440  0.34880  Biso   1.000  C
  C18      1.0000 0.31690  0.77210  0.31690  Biso   1.000  C
  C19      1.0000 0.65120  0.83440  0.65120  Biso   1.000  C
  C20      1.0000 0.68310  0.77210  0.68310  Biso   1.000  C
  C21      1.0000 0.34880  0.16560  0.65120  Biso   1.000  C
  C22      1.0000 0.31690  0.22790  0.68310  Biso   1.000  C
  C23      1.0000 0.65120  0.16560  0.34880  Biso   1.000  C
  C24      1.0000 0.68310  0.22790  0.31690  Biso   1.000  C
  C25      1.0000 0.34880  0.34880  0.16560  Biso   1.000  C
  C26      1.0000 0.31690  0.31690  0.22790  Biso   1.000  C
  C27      1.0000 0.65120  0.65120  0.16560  Biso   1.000  C
  C28      1.0000 0.68310  0.68310  0.22790  Biso   1.000  C
  C29      1.0000 0.34880  0.65120  0.83440  Biso   1.000  C
  C30      1.0000 0.31690  0.68310  0.77210  Biso   1.000  C
  C31      1.0000 0.65120  0.34880  0.83440  Biso   1.000  C
  C32      1.0000 0.68310  0.31690  0.77210  Biso   1.000  C
  C33      1.0000 0.34880  0.83440  0.65120  Biso   1.000  C
  C34      1.0000 0.31690  0.77210  0.68310  Biso   1.000  C
  C35      1.0000 0.65120  0.83440  0.34880  Biso   1.000  C
  C36      1.0000 0.68310  0.77210  0.31690  Biso   1.000  C
  C37      1.0000 0.65120  0.16560  0.65120  Biso   1.000  C
  C38      1.0000 0.68310  0.22790  0.68310  Biso   1.000  C
  C39      1.0000 0.34880  0.16560  0.34880  Biso   1.000  C
  C40      1.0000 0.31690  0.22790  0.31690  Biso   1.000  C
  C41      1.0000 0.83440  0.34880  0.65120  Biso   1.000  C
  C42      1.0000 0.77210  0.31690  0.68310  Biso   1.000  C
  C43      1.0000 0.83440  0.65120  0.34880  Biso   1.000  C
  C44      1.0000 0.77210  0.68310  0.31690  Biso   1.000  C
  C45      1.0000 0.16560  0.34880  0.34880  Biso   1.000  C
  C46      1.0000 0.22790  0.31690  0.31690  Biso   1.000  C
  C47      1.0000 0.16560  0.65120  0.65120  Biso   1.000  C
  C48      1.0000 0.22790  0.68310  0.68310  Biso   1.000  C
  C49      1.0000 0.34680  0.25760  0.74240  Biso   1.000  C
  H1       1.0000 0.38710  0.23770  0.76230  Biso   1.000  H
  C50      1.0000 0.65320  0.74240  0.74240  Biso   1.000  C
  H2       1.0000 0.61290  0.76230  0.76230  Biso   1.000  H
  C51      1.0000 0.65320  0.25760  0.25760  Biso   1.000  C
  H3       1.0000 0.61290  0.23770  0.23770  Biso   1.000  H
  C52      1.0000 0.34680  0.74240  0.25760  Biso   1.000  C
  H4       1.0000 0.38710  0.76230  0.23770  Biso   1.000  H
  C53      1.0000 0.74240  0.34680  0.25760  Biso   1.000  C
  H5       1.0000 0.76230  0.38710  0.23770  Biso   1.000  H
  C54      1.0000 0.74240  0.65320  0.74240  Biso   1.000  C
  H6       1.0000 0.76230  0.61290  0.76230  Biso   1.000  H
  C55      1.0000 0.25760  0.65320  0.25760  Biso   1.000  C
  H7       1.0000 0.23770  0.61290  0.23770  Biso   1.000  H
  C56      1.0000 0.25760  0.34680  0.74240  Biso   1.000  C
  H8       1.0000 0.23770  0.38710  0.76230  Biso   1.000  H
  C57      1.0000 0.25760  0.74240  0.34680  Biso   1.000  C
  H9       1.0000 0.23770  0.76230  0.38710  Biso   1.000  H
  C58      1.0000 0.74240  0.74240  0.65320  Biso   1.000  C
  H10      1.0000 0.76230  0.76230  0.61290  Biso   1.000  H
  C59      1.0000 0.25760  0.25760  0.65320  Biso   1.000  C
  H11      1.0000 0.23770  0.23770  0.61290  Biso   1.000  H
  C60      1.0000 0.74240  0.25760  0.34680  Biso   1.000  C
  H12      1.0000 0.76230  0.23770  0.38710  Biso   1.000  H
  C61      1.0000 0.25760  0.34680  0.25760  Biso   1.000  C
  H13      1.0000 0.23770  0.38710  0.23770  Biso   1.000  H
  C62      1.0000 0.74240  0.65320  0.25760  Biso   1.000  C
  H14      1.0000 0.76230  0.61290  0.23770  Biso   1.000  H
  C63      1.0000 0.25760  0.65320  0.74240  Biso   1.000  C
  H15      1.0000 0.23770  0.61290  0.76230  Biso   1.000  H
  C64      1.0000 0.74240  0.34680  0.74240  Biso   1.000  C
  H16      1.0000 0.76230  0.38710  0.76230  Biso   1.000  H
  C65      1.0000 0.34680  0.74240  0.74240  Biso   1.000  C
  H17      1.0000 0.38710  0.76230  0.76230  Biso   1.000  H
  C66      1.0000 0.65320  0.74240  0.25760  Biso   1.000  C
  H18      1.0000 0.61290  0.76230  0.23770  Biso   1.000  H
  C67      1.0000 0.65320  0.25760  0.74240  Biso   1.000  C
  H19      1.0000 0.61290  0.23770  0.76230  Biso   1.000  H
  C68      1.0000 0.34680  0.25760  0.25760  Biso   1.000  C
  H20      1.0000 0.38710  0.23770  0.23770  Biso   1.000  H
  C69      1.0000 0.74240  0.25760  0.65320  Biso   1.000  C
  H21      1.0000 0.76230  0.23770  0.61290  Biso   1.000  H
  C70      1.0000 0.74240  0.74240  0.34680  Biso   1.000  C
  H22      1.0000 0.76230  0.76230  0.38710  Biso   1.000  H
  C71      1.0000 0.25760  0.25760  0.34680  Biso   1.000  C
  H23      1.0000 0.23770  0.23770  0.38710  Biso   1.000  H
  C72      1.0000 0.25760  0.74240  0.65320  Biso   1.000  C
  H24      1.0000 0.23770  0.76230  0.61290  Biso   1.000  H
  Mn13     1.0000 0.50000  0.25840  0.85740  Biso   1.000  Mn
  Mn14     1.0000 0.50000  0.74160  0.85740  Biso   1.000  Mn
  Mn15     1.0000 0.50000  0.25840  0.14260  Biso   1.000  Mn
  Mn16     1.0000 0.50000  0.74160  0.14260  Biso   1.000  Mn
  Mn17     1.0000 0.85740  0.50000  0.25840  Biso   1.000  Mn
  Mn18     1.0000 0.85740  0.50000  0.74160  Biso   1.000  Mn
  Mn19     1.0000 0.14260  0.50000  0.25840  Biso   1.000  Mn
  Mn20     1.0000 0.14260  0.50000  0.74160  Biso   1.000  Mn
  Mn21     1.0000 0.25840  0.85740  0.50000  Biso   1.000  Mn
  Mn22     1.0000 0.74160  0.85740  0.50000  Biso   1.000  Mn
  Mn23     1.0000 0.25840  0.14260  0.50000  Biso   1.000  Mn
  Mn24     1.0000 0.74160  0.14260  0.50000  Biso   1.000  Mn
  Mn25     1.0000 0.25840  0.50000  0.14260  Biso   1.000  Mn
  Mn26     1.0000 0.74160  0.50000  0.14260  Biso   1.000  Mn
  Mn27     1.0000 0.25840  0.50000  0.85740  Biso   1.000  Mn
  Mn28     1.0000 0.74160  0.50000  0.85740  Biso   1.000  Mn
  Mn29     1.0000 0.50000  0.85740  0.74160  Biso   1.000  Mn
  Mn30     1.0000 0.50000  0.85740  0.25840  Biso   1.000  Mn
  Mn31     1.0000 0.50000  0.14260  0.74160  Biso   1.000  Mn
  Mn32     1.0000 0.50000  0.14260  0.25840  Biso   1.000  Mn
  Mn33     1.0000 0.85740  0.25840  0.50000  Biso   1.000  Mn
  Mn34     1.0000 0.85740  0.74160  0.50000  Biso   1.000  Mn
  Mn35     1.0000 0.14260  0.25840  0.50000  Biso   1.000  Mn
  Mn36     1.0000 0.14260  0.74160  0.50000  Biso   1.000  Mn
