data_image0
_cell_length_a       18.4852
_cell_length_b       18.4852
_cell_length_c       18.4852
_cell_angle_alpha    90
_cell_angle_beta     90
_cell_angle_gamma    90

_symmetry_space_group_name_H-M    "P 1"
_symmetry_int_tables_number       1

loop_
  _symmetry_equiv_pos_as_xyz
  'x, y, z'

loop_
  _atom_site_label
  _atom_site_occupancy
  _atom_site_fract_x
  _atom_site_fract_y
  _atom_site_fract_z
  _atom_site_thermal_displace_type
  _atom_site_B_iso_or_equiv
  _atom_site_type_symbol
  N1       1.0000 0.42030  0.36970  0.07500  Biso   1.000  N
  N2       1.0000 0.40950  0.32470  0.13040  Biso   1.000  N
  N3       1.0000 0.57970  0.63030  0.07500  Biso   1.000  N
  N4       1.0000 0.59050  0.67530  0.13040  Biso   1.000  N
  N5       1.0000 0.57970  0.36970  0.92500  Biso   1.000  N
  N6       1.0000 0.59050  0.32470  0.86960  Biso   1.000  N
  N7       1.0000 0.42030  0.63030  0.92500  Biso   1.000  N
  N8       1.0000 0.40950  0.67530  0.86960  Biso   1.000  N
  N9       1.0000 0.07500  0.42030  0.36970  Biso   1.000  N
  N10      1.0000 0.13040  0.40950  0.32470  Biso   1.000  N
  N11      1.0000 0.07500  0.57970  0.63030  Biso   1.000  N
  N12      1.0000 0.13040  0.59050  0.67530  Biso   1.000  N
  N13      1.0000 0.92500  0.57970  0.36970  Biso   1.000  N
  N14      1.0000 0.86960  0.59050  0.32470  Biso   1.000  N
  N15      1.0000 0.92500  0.42030  0.63030  Biso   1.000  N
  N16      1.0000 0.86960  0.40950  0.67530  Biso   1.000  N
  N17      1.0000 0.36970  0.07500  0.42030  Biso   1.000  N
  N18      1.0000 0.32470  0.13040  0.40950  Biso   1.000  N
  N19      1.0000 0.63030  0.07500  0.57970  Biso   1.000  N
  N20      1.0000 0.67530  0.13040  0.59050  Biso   1.000  N
  N21      1.0000 0.36970  0.92500  0.57970  Biso   1.000  N
  N22      1.0000 0.32470  0.86960  0.59050  Biso   1.000  N
  N23      1.0000 0.63030  0.92500  0.42030  Biso   1.000  N
  N24      1.0000 0.67530  0.86960  0.40950  Biso   1.000  N
  N25      1.0000 0.36970  0.42030  0.92500  Biso   1.000  N
  N26      1.0000 0.32470  0.40950  0.86960  Biso   1.000  N
  N27      1.0000 0.63030  0.57970  0.92500  Biso   1.000  N
  N28      1.0000 0.67530  0.59050  0.86960  Biso   1.000  N
  N29      1.0000 0.36970  0.57970  0.07500  Biso   1.000  N
  N30      1.0000 0.32470  0.59050  0.13040  Biso   1.000  N
  N31      1.0000 0.63030  0.42030  0.07500  Biso   1.000  N
  N32      1.0000 0.67530  0.40950  0.13040  Biso   1.000  N
  N33      1.0000 0.42030  0.07500  0.63030  Biso   1.000  N
  N34      1.0000 0.40950  0.13040  0.67530  Biso   1.000  N
  N35      1.0000 0.57970  0.07500  0.36970  Biso   1.000  N
  N36      1.0000 0.59050  0.13040  0.32470  Biso   1.000  N
  N37      1.0000 0.57970  0.92500  0.63030  Biso   1.000  N
  N38      1.0000 0.59050  0.86960  0.67530  Biso   1.000  N
  N39      1.0000 0.42030  0.92500  0.36970  Biso   1.000  N
  N40      1.0000 0.40950  0.86960  0.32470  Biso   1.000  N
  N41      1.0000 0.07500  0.36970  0.57970  Biso   1.000  N
  N42      1.0000 0.13040  0.32470  0.59050  Biso   1.000  N
  N43      1.0000 0.07500  0.63030  0.42030  Biso   1.000  N
  N44      1.0000 0.13040  0.67530  0.40950  Biso   1.000  N
  N45      1.0000 0.92500  0.36970  0.42030  Biso   1.000  N
  N46      1.0000 0.86960  0.32470  0.40950  Biso   1.000  N
  N47      1.0000 0.92500  0.63030  0.57970  Biso   1.000  N
  N48      1.0000 0.86960  0.67530  0.59050  Biso   1.000  N
  N49      1.0000 0.57970  0.63030  0.92500  Biso   1.000  N
  N50      1.0000 0.59050  0.67530  0.86960  Biso   1.000  N
  N51      1.0000 0.42030  0.36970  0.92500  Biso   1.000  N
  N52      1.0000 0.40950  0.32470  0.86960  Biso   1.000  N
  N53      1.0000 0.42030  0.63030  0.07500  Biso   1.000  N
  N54      1.0000 0.40950  0.67530  0.13040  Biso   1.000  N
  N55      1.0000 0.57970  0.36970  0.07500  Biso   1.000  N
  N56      1.0000 0.59050  0.32470  0.13040  Biso   1.000  N
  N57      1.0000 0.92500  0.57970  0.63030  Biso   1.000  N
  N58      1.0000 0.86960  0.59050  0.67530  Biso   1.000  N
  N59      1.0000 0.92500  0.42030  0.36970  Biso   1.000  N
  N60      1.0000 0.86960  0.40950  0.32470  Biso   1.000  N
  N61      1.0000 0.07500  0.42030  0.63030  Biso   1.000  N
  N62      1.0000 0.13040  0.40950  0.67530  Biso   1.000  N
  N63      1.0000 0.07500  0.57970  0.36970  Biso   1.000  N
  N64      1.0000 0.13040  0.59050  0.32470  Biso   1.000  N
  N65      1.0000 0.63030  0.92500  0.57970  Biso   1.000  N
  N66      1.0000 0.67530  0.86960  0.59050  Biso   1.000  N
  N67      1.0000 0.36970  0.92500  0.42030  Biso   1.000  N
  N68      1.0000 0.32470  0.86960  0.40950  Biso   1.000  N
  N69      1.0000 0.63030  0.07500  0.42030  Biso   1.000  N
  N70      1.0000 0.67530  0.13040  0.40950  Biso   1.000  N
  N71      1.0000 0.36970  0.07500  0.57970  Biso   1.000  N
  N72      1.0000 0.32470  0.13040  0.59050  Biso   1.000  N
  N73      1.0000 0.63030  0.57970  0.07500  Biso   1.000  N
  N74      1.0000 0.67530  0.59050  0.13040  Biso   1.000  N
  N75      1.0000 0.36970  0.42030  0.07500  Biso   1.000  N
  N76      1.0000 0.32470  0.40950  0.13040  Biso   1.000  N
  N77      1.0000 0.63030  0.42030  0.92500  Biso   1.000  N
  N78      1.0000 0.67530  0.40950  0.86960  Biso   1.000  N
  N79      1.0000 0.36970  0.57970  0.92500  Biso   1.000  N
  N80      1.0000 0.32470  0.59050  0.86960  Biso   1.000  N
  N81      1.0000 0.57970  0.92500  0.36970  Biso   1.000  N
  N82      1.0000 0.59050  0.86960  0.32470  Biso   1.000  N
  N83      1.0000 0.42030  0.92500  0.63030  Biso   1.000  N
  N84      1.0000 0.40950  0.86960  0.67530  Biso   1.000  N
  N85      1.0000 0.42030  0.07500  0.36970  Biso   1.000  N
  N86      1.0000 0.40950  0.13040  0.32470  Biso   1.000  N
  N87      1.0000 0.57970  0.07500  0.63030  Biso   1.000  N
  N88      1.0000 0.59050  0.13040  0.67530  Biso   1.000  N
  N89      1.0000 0.92500  0.63030  0.42030  Biso   1.000  N
  N90      1.0000 0.86960  0.67530  0.40950  Biso   1.000  N
  N91      1.0000 0.92500  0.36970  0.57970  Biso   1.000  N
  N92      1.0000 0.86960  0.32470  0.59050  Biso   1.000  N
  N93      1.0000 0.07500  0.63030  0.57970  Biso   1.000  N
  N94      1.0000 0.13040  0.67530  0.59050  Biso   1.000  N
  N95      1.0000 0.07500  0.36970  0.42030  Biso   1.000  N
  N96      1.0000 0.13040  0.32470  0.40950  Biso   1.000  N
  Cu1      1.0000 0.50000  0.36360  0.00000  Biso   1.000  Cu
  Mn1      1.0000 0.50000  0.34800  0.00000  Biso   1.000  Mn
  Cu2      1.0000 0.50000  0.63640  0.00000  Biso   1.000  Cu
  Mn2      1.0000 0.50000  0.65200  0.00000  Biso   1.000  Mn
  Cu3      1.0000 0.00000  0.50000  0.36360  Biso   1.000  Cu
  Mn3      1.0000 0.00000  0.50000  0.34800  Biso   1.000  Mn
  Cu4      1.0000 0.00000  0.50000  0.63640  Biso   1.000  Cu
  Mn4      1.0000 0.00000  0.50000  0.65200  Biso   1.000  Mn
  Cu5      1.0000 0.36360  0.00000  0.50000  Biso   1.000  Cu
  Mn5      1.0000 0.34800  0.00000  0.50000  Biso   1.000  Mn
  Cu6      1.0000 0.63640  0.00000  0.50000  Biso   1.000  Cu
  Mn6      1.0000 0.65200  0.00000  0.50000  Biso   1.000  Mn
  Cu7      1.0000 0.36360  0.50000  0.00000  Biso   1.000  Cu
  Mn7      1.0000 0.34800  0.50000  0.00000  Biso   1.000  Mn
  Cu8      1.0000 0.63640  0.50000  0.00000  Biso   1.000  Cu
  Mn8      1.0000 0.65200  0.50000  0.00000  Biso   1.000  Mn
  Cu9      1.0000 0.50000  0.00000  0.63640  Biso   1.000  Cu
  Mn9      1.0000 0.50000  0.00000  0.65200  Biso   1.000  Mn
  Cu10     1.0000 0.50000  0.00000  0.36360  Biso   1.000  Cu
  Mn10     1.0000 0.50000  0.00000  0.34800  Biso   1.000  Mn
  Cu11     1.0000 0.00000  0.36360  0.50000  Biso   1.000  Cu
  Mn11     1.0000 0.00000  0.34800  0.50000  Biso   1.000  Mn
  Cu12     1.0000 0.00000  0.63640  0.50000  Biso   1.000  Cu
  Mn12     1.0000 0.00000  0.65200  0.50000  Biso   1.000  Mn
  Cl1      1.0000 0.50000  0.50000  0.00000  Biso   1.000  Cl
  Cl2      1.0000 0.00000  0.50000  0.50000  Biso   1.000  Cl
  Cl3      1.0000 0.50000  0.00000  0.50000  Biso   1.000  Cl
  Cu13     1.0000 0.50000  0.25650  0.13700  Biso   1.000  Cu
  Cu14     1.0000 0.50000  0.74350  0.13700  Biso   1.000  Cu
  Cu15     1.0000 0.50000  0.25650  0.86300  Biso   1.000  Cu
  Cu16     1.0000 0.50000  0.74350  0.86300  Biso   1.000  Cu
  Cu17     1.0000 0.13700  0.50000  0.25650  Biso   1.000  Cu
  Cu18     1.0000 0.13700  0.50000  0.74350  Biso   1.000  Cu
  Cu19     1.0000 0.86300  0.50000  0.25650  Biso   1.000  Cu
  Cu20     1.0000 0.86300  0.50000  0.74350  Biso   1.000  Cu
  Cu21     1.0000 0.25650  0.13700  0.50000  Biso   1.000  Cu
  Cu22     1.0000 0.74350  0.13700  0.50000  Biso   1.000  Cu
  Cu23     1.0000 0.25650  0.86300  0.50000  Biso   1.000  Cu
  Cu24     1.0000 0.74350  0.86300  0.50000  Biso   1.000  Cu
  Cu25     1.0000 0.25650  0.50000  0.86300  Biso   1.000  Cu
  Cu26     1.0000 0.74350  0.50000  0.86300  Biso   1.000  Cu
  Cu27     1.0000 0.25650  0.50000  0.13700  Biso   1.000  Cu
  Cu28     1.0000 0.74350  0.50000  0.13700  Biso   1.000  Cu
  Cu29     1.0000 0.50000  0.13700  0.74350  Biso   1.000  Cu
  Cu30     1.0000 0.50000  0.13700  0.25650  Biso   1.000  Cu
  Cu31     1.0000 0.50000  0.86300  0.74350  Biso   1.000  Cu
  Cu32     1.0000 0.50000  0.86300  0.25650  Biso   1.000  Cu
  Cu33     1.0000 0.13700  0.25650  0.50000  Biso   1.000  Cu
  Cu34     1.0000 0.13700  0.74350  0.50000  Biso   1.000  Cu
  Cu35     1.0000 0.86300  0.25650  0.50000  Biso   1.000  Cu
  Cu36     1.0000 0.86300  0.74350  0.50000  Biso   1.000  Cu
  C1       1.0000 0.35080  0.35080  0.16230  Biso   1.000  C
  C2       1.0000 0.31910  0.31910  0.22760  Biso   1.000  C
  C3       1.0000 0.64920  0.64920  0.16230  Biso   1.000  C
  C4       1.0000 0.68090  0.68090  0.22760  Biso   1.000  C
  C5       1.0000 0.64920  0.35080  0.83770  Biso   1.000  C
  C6       1.0000 0.68090  0.31910  0.77240  Biso   1.000  C
  C7       1.0000 0.35080  0.64920  0.83770  Biso   1.000  C
  C8       1.0000 0.31910  0.68090  0.77240  Biso   1.000  C
  C9       1.0000 0.16230  0.35080  0.35080  Biso   1.000  C
  C10      1.0000 0.22760  0.31910  0.31910  Biso   1.000  C
  C11      1.0000 0.16230  0.64920  0.64920  Biso   1.000  C
  C12      1.0000 0.22760  0.68090  0.68090  Biso   1.000  C
  C13      1.0000 0.83770  0.64920  0.35080  Biso   1.000  C
  C14      1.0000 0.77240  0.68090  0.31910  Biso   1.000  C
  C15      1.0000 0.83770  0.35080  0.64920  Biso   1.000  C
  C16      1.0000 0.77240  0.31910  0.68090  Biso   1.000  C
  C17      1.0000 0.35080  0.16230  0.35080  Biso   1.000  C
  C18      1.0000 0.31910  0.22760  0.31910  Biso   1.000  C
  C19      1.0000 0.64920  0.16230  0.64920  Biso   1.000  C
  C20      1.0000 0.68090  0.22760  0.68090  Biso   1.000  C
  C21      1.0000 0.35080  0.83770  0.64920  Biso   1.000  C
  C22      1.0000 0.31910  0.77240  0.68090  Biso   1.000  C
  C23      1.0000 0.64920  0.83770  0.35080  Biso   1.000  C
  C24      1.0000 0.68090  0.77240  0.31910  Biso   1.000  C
  C25      1.0000 0.35080  0.35080  0.83770  Biso   1.000  C
  C26      1.0000 0.31910  0.31910  0.77240  Biso   1.000  C
  C27      1.0000 0.64920  0.64920  0.83770  Biso   1.000  C
  C28      1.0000 0.68090  0.68090  0.77240  Biso   1.000  C
  C29      1.0000 0.35080  0.64920  0.16230  Biso   1.000  C
  C30      1.0000 0.31910  0.68090  0.22760  Biso   1.000  C
  C31      1.0000 0.64920  0.35080  0.16230  Biso   1.000  C
  C32      1.0000 0.68090  0.31910  0.22760  Biso   1.000  C
  C33      1.0000 0.35080  0.16230  0.64920  Biso   1.000  C
  C34      1.0000 0.31910  0.22760  0.68090  Biso   1.000  C
  C35      1.0000 0.64920  0.16230  0.35080  Biso   1.000  C
  C36      1.0000 0.68090  0.22760  0.31910  Biso   1.000  C
  C37      1.0000 0.64920  0.83770  0.64920  Biso   1.000  C
  C38      1.0000 0.68090  0.77240  0.68090  Biso   1.000  C
  C39      1.0000 0.35080  0.83770  0.35080  Biso   1.000  C
  C40      1.0000 0.31910  0.77240  0.31910  Biso   1.000  C
  C41      1.0000 0.16230  0.35080  0.64920  Biso   1.000  C
  C42      1.0000 0.22760  0.31910  0.68090  Biso   1.000  C
  C43      1.0000 0.16230  0.64920  0.35080  Biso   1.000  C
  C44      1.0000 0.22760  0.68090  0.31910  Biso   1.000  C
  C45      1.0000 0.83770  0.35080  0.35080  Biso   1.000  C
  C46      1.0000 0.77240  0.31910  0.31910  Biso   1.000  C
  C47      1.0000 0.83770  0.64920  0.64920  Biso   1.000  C
  C48      1.0000 0.77240  0.68090  0.68090  Biso   1.000  C
  C49      1.0000 0.34840  0.25770  0.25770  Biso   1.000  C
  H1       1.0000 0.38850  0.23615  0.23615  Biso   1.000  H
  C50      1.0000 0.65160  0.74230  0.25770  Biso   1.000  C
  H2       1.0000 0.61150  0.76385  0.23615  Biso   1.000  H
  C51      1.0000 0.65160  0.25770  0.74230  Biso   1.000  C
  H3       1.0000 0.61150  0.23615  0.76385  Biso   1.000  H
  C52      1.0000 0.34840  0.74230  0.74230  Biso   1.000  C
  H4       1.0000 0.38850  0.76385  0.76385  Biso   1.000  H
  C53      1.0000 0.25770  0.34840  0.25770  Biso   1.000  C
  H5       1.0000 0.23615  0.38850  0.23615  Biso   1.000  H
  C54      1.0000 0.25770  0.65160  0.74230  Biso   1.000  C
  H6       1.0000 0.23615  0.61150  0.76385  Biso   1.000  H
  C55      1.0000 0.74230  0.65160  0.25770  Biso   1.000  C
  H7       1.0000 0.76385  0.61150  0.23615  Biso   1.000  H
  C56      1.0000 0.74230  0.34840  0.74230  Biso   1.000  C
  H8       1.0000 0.76385  0.38850  0.76385  Biso   1.000  H
  C57      1.0000 0.25770  0.25770  0.34840  Biso   1.000  C
  H9       1.0000 0.23615  0.23615  0.38850  Biso   1.000  H
  C58      1.0000 0.74230  0.25770  0.65160  Biso   1.000  C
  H10      1.0000 0.76385  0.23615  0.61150  Biso   1.000  H
  C59      1.0000 0.25770  0.74230  0.65160  Biso   1.000  C
  H11      1.0000 0.23615  0.76385  0.61150  Biso   1.000  H
  C60      1.0000 0.74230  0.74230  0.34840  Biso   1.000  C
  H12      1.0000 0.76385  0.76385  0.38850  Biso   1.000  H
  C61      1.0000 0.25770  0.34840  0.74230  Biso   1.000  C
  H13      1.0000 0.23615  0.38850  0.76385  Biso   1.000  H
  C62      1.0000 0.74230  0.65160  0.74230  Biso   1.000  C
  H14      1.0000 0.76385  0.61150  0.76385  Biso   1.000  H
  C63      1.0000 0.25770  0.65160  0.25770  Biso   1.000  C
  H15      1.0000 0.23615  0.61150  0.23615  Biso   1.000  H
  C64      1.0000 0.74230  0.34840  0.25770  Biso   1.000  C
  H16      1.0000 0.76385  0.38850  0.23615  Biso   1.000  H
  C65      1.0000 0.34840  0.25770  0.74230  Biso   1.000  C
  H17      1.0000 0.38850  0.23615  0.76385  Biso   1.000  H
  C66      1.0000 0.65160  0.25770  0.25770  Biso   1.000  C
  H18      1.0000 0.61150  0.23615  0.23615  Biso   1.000  H
  C67      1.0000 0.65160  0.74230  0.74230  Biso   1.000  C
  H19      1.0000 0.61150  0.76385  0.76385  Biso   1.000  H
  C68      1.0000 0.34840  0.74230  0.25770  Biso   1.000  C
  H20      1.0000 0.38850  0.76385  0.23615  Biso   1.000  H
  C69      1.0000 0.25770  0.25770  0.65160  Biso   1.000  C
  H21      1.0000 0.23615  0.23615  0.61150  Biso   1.000  H
  C70      1.0000 0.25770  0.74230  0.34840  Biso   1.000  C
  H22      1.0000 0.23615  0.76385  0.38850  Biso   1.000  H
  C71      1.0000 0.74230  0.25770  0.34840  Biso   1.000  C
  H23      1.0000 0.76385  0.23615  0.38850  Biso   1.000  H
  C72      1.0000 0.74230  0.74230  0.65160  Biso   1.000  C
  H24      1.0000 0.76385  0.76385  0.61150  Biso   1.000  H
