data_MIVNUB_clean
_audit_creation_date              2014-07-02
_audit_creation_method            'Materials Studio'
_symmetry_space_group_name_H-M    'P1'
_symmetry_Int_Tables_number       1
_symmetry_cell_setting            triclinic
loop_
_symmetry_equiv_pos_as_xyz
  x,y,z
_cell_length_a                    6.6008
_cell_length_b                    12.8250
_cell_length_c                    13.3100
_cell_angle_alpha                 90.0000
_cell_angle_beta                  103.6300
_cell_angle_gamma                 90.0000
loop_
_atom_site_label
_atom_site_type_symbol
_atom_site_fract_x
_atom_site_fract_y
_atom_site_fract_z
_atom_site_U_iso_or_equiv
_atom_site_adp_type
_atom_site_occupancy
Lu1    Lu    0.26093   0.07619   0.70552   0.01267  Uiso   1.00
Lu2    Lu    0.23907   0.57619   0.29448   0.01267  Uiso   1.00
Lu3    Lu    0.73907   0.92381   0.29448   0.01267  Uiso   1.00
Lu4    Lu    0.76093   0.42381   0.70552   0.01267  Uiso   1.00
H1     H     0.12450   0.05770   0.97120   0.01267  Uiso   1.00
H2     H     0.09410   0.36740   0.98870   0.01267  Uiso   1.00
H3     H     0.25280   0.19090   0.24130   0.01267  Uiso   1.00
H4     H     0.37550   0.55770   0.02880   0.01267  Uiso   1.00
H5     H     0.40590   0.86740   0.01130   0.01267  Uiso   1.00
H6     H     0.24720   0.69090   0.75870   0.01267  Uiso   1.00
H7     H     0.87550   0.94230   0.02880   0.01267  Uiso   1.00
H8     H     0.90590   0.63260   0.01130   0.01267  Uiso   1.00
H9     H     0.74720   0.80910   0.75870   0.01267  Uiso   1.00
H10    H     0.62450   0.44230   0.97120   0.01267  Uiso   1.00
H11    H     0.59410   0.13260   0.98870   0.01267  Uiso   1.00
H12    H     0.75280   0.30910   0.24130   0.01267  Uiso   1.00
C1     C     0.13720   0.11790   0.01110   0.01267  Uiso   1.00
C2     C     0.09700   0.21340   0.96100   0.01267  Uiso   1.00
C3     C     0.12030   0.30230   0.01990   0.01267  Uiso   1.00
C4     C     0.18330   0.29380   0.12630   0.01267  Uiso   1.00
C5     C     0.21470   0.19600   0.16960   0.01267  Uiso   1.00
C6     C     0.02480   0.22310   0.84600   0.01267  Uiso   1.00
C7     C     0.21200   0.39050   0.19040   0.01267  Uiso   1.00
C8     C     0.89910   0.00590   0.51950   0.01267  Uiso   1.00
C9     C     0.36280   0.61790   0.98890   0.01267  Uiso   1.00
C10    C     0.40300   0.71340   0.03900   0.01267  Uiso   1.00
C11    C     0.37970   0.80230   0.98010   0.01267  Uiso   1.00
C12    C     0.31670   0.79380   0.87370   0.01267  Uiso   1.00
C13    C     0.28530   0.69600   0.83040   0.01267  Uiso   1.00
C14    C     0.47520   0.72310   0.15400   0.01267  Uiso   1.00
C15    C     0.28800   0.89050   0.80960   0.01267  Uiso   1.00
C16    C     0.60090   0.50590   0.48050   0.01267  Uiso   1.00
C17    C     0.86280   0.88210   0.98890   0.01267  Uiso   1.00
C18    C     0.90300   0.78660   0.03900   0.01267  Uiso   1.00
C19    C     0.87970   0.69770   0.98010   0.01267  Uiso   1.00
C20    C     0.81670   0.70620   0.87370   0.01267  Uiso   1.00
C21    C     0.78530   0.80400   0.83040   0.01267  Uiso   1.00
C22    C     0.97520   0.77690   0.15400   0.01267  Uiso   1.00
C23    C     0.78800   0.60950   0.80960   0.01267  Uiso   1.00
C24    C     0.10090   0.99410   0.48050   0.01267  Uiso   1.00
C25    C     0.63720   0.38210   0.01110   0.01267  Uiso   1.00
C26    C     0.59700   0.28660   0.96100   0.01267  Uiso   1.00
C27    C     0.62030   0.19770   0.01990   0.01267  Uiso   1.00
C28    C     0.68330   0.20620   0.12630   0.01267  Uiso   1.00
C29    C     0.71470   0.30400   0.16960   0.01267  Uiso   1.00
C30    C     0.52480   0.27690   0.84600   0.01267  Uiso   1.00
C31    C     0.71200   0.10950   0.19040   0.01267  Uiso   1.00
C32    C     0.39910   0.49410   0.51950   0.01267  Uiso   1.00
N1     N     0.19340   0.10830   0.11450   0.01267  Uiso   1.00
N2     N     0.30660   0.60830   0.88550   0.01267  Uiso   1.00
N3     N     0.80660   0.89170   0.88550   0.01267  Uiso   1.00
N4     N     0.69340   0.39170   0.11450   0.01267  Uiso   1.00
O1     O     0.02910   0.14370   0.78830   0.01267  Uiso   1.00
O2     O     0.95750   0.30960   0.81380   0.01267  Uiso   1.00
O3     O     0.16700   0.47830   0.14550   0.01267  Uiso   1.00
O4     O     0.27790   0.38680   0.28740   0.01267  Uiso   1.00
O5     O     0.92090   0.04520   0.60790   0.01267  Uiso   1.00
O6     O     0.73470   0.97670   0.46120   0.01267  Uiso   1.00
O7     O     0.47090   0.64370   0.21170   0.01267  Uiso   1.00
O8     O     0.54250   0.80960   0.18620   0.01267  Uiso   1.00
O9     O     0.33300   0.97830   0.85450   0.01267  Uiso   1.00
O10    O     0.22210   0.88680   0.71260   0.01267  Uiso   1.00
O11    O     0.57910   0.54520   0.39210   0.01267  Uiso   1.00
O12    O     0.76530   0.47670   0.53880   0.01267  Uiso   1.00
O13    O     0.97090   0.85630   0.21170   0.01267  Uiso   1.00
O14    O     0.04250   0.69040   0.18620   0.01267  Uiso   1.00
O15    O     0.83300   0.52170   0.85450   0.01267  Uiso   1.00
O16    O     0.72210   0.61320   0.71260   0.01267  Uiso   1.00
O17    O     0.07910   0.95480   0.39210   0.01267  Uiso   1.00
O18    O     0.26530   0.02330   0.53880   0.01267  Uiso   1.00
O19    O     0.52910   0.35630   0.78830   0.01267  Uiso   1.00
O20    O     0.45750   0.19040   0.81380   0.01267  Uiso   1.00
O21    O     0.66700   0.02170   0.14550   0.01267  Uiso   1.00
O22    O     0.77790   0.11320   0.28740   0.01267  Uiso   1.00
O23    O     0.42090   0.45480   0.60790   0.01267  Uiso   1.00
O24    O     0.23470   0.52330   0.46120   0.01267  Uiso   1.00
