data_MIVPEN_clean
_audit_creation_date              2014-07-02
_audit_creation_method            'Materials Studio'
_symmetry_space_group_name_H-M    'P1'
_symmetry_Int_Tables_number       1
_symmetry_cell_setting            triclinic
loop_
_symmetry_equiv_pos_as_xyz
  x,y,z
_cell_length_a                    7.5716
_cell_length_b                    9.7891
_cell_length_c                    14.6702
_cell_angle_alpha                 90.0000
_cell_angle_beta                  97.9330
_cell_angle_gamma                 90.0000
loop_
_atom_site_label
_atom_site_type_symbol
_atom_site_fract_x
_atom_site_fract_y
_atom_site_fract_z
_atom_site_U_iso_or_equiv
_atom_site_adp_type
_atom_site_occupancy
Tm1    Tm    0.84811   0.45571   0.63873   0.01267  Uiso   1.00
Tm2    Tm    0.65189   0.95571   0.86127   0.01267  Uiso   1.00
Tm3    Tm    0.15189   0.54429   0.36127   0.01267  Uiso   1.00
Tm4    Tm    0.34811   0.04429   0.13873   0.01267  Uiso   1.00
H1     H     0.83120   0.88680   0.63690   0.01267  Uiso   1.00
H2     H     0.61260   0.19880   0.48420   0.01267  Uiso   1.00
H3     H     0.79750   0.88700   0.36150   0.01267  Uiso   1.00
H4     H     0.66880   0.38680   0.86310   0.01267  Uiso   1.00
H5     H     0.88740   0.69880   0.01580   0.01267  Uiso   1.00
H6     H     0.70250   0.38700   0.13850   0.01267  Uiso   1.00
H7     H     0.16880   0.11320   0.36310   0.01267  Uiso   1.00
H8     H     0.38740   0.80120   0.51580   0.01267  Uiso   1.00
H9     H     0.20250   0.11300   0.63850   0.01267  Uiso   1.00
H10    H     0.33120   0.61320   0.13690   0.01267  Uiso   1.00
H11    H     0.11260   0.30120   0.98420   0.01267  Uiso   1.00
H12    H     0.29750   0.61300   0.86150   0.01267  Uiso   1.00
C1     C     0.72090   0.05880   0.57492   0.01267  Uiso   1.00
C2     C     0.69290   0.13960   0.65845   0.01267  Uiso   1.00
C3     C     0.79910   0.92920   0.58030   0.01267  Uiso   1.00
C4     C     0.54410   0.46880   0.46012   0.01267  Uiso   1.00
C5     C     0.66730   0.11360   0.48776   0.01267  Uiso   1.00
C6     C     0.91270   0.72550   0.50058   0.01267  Uiso   1.00
C7     C     0.82770   0.86490   0.49876   0.01267  Uiso   1.00
C8     C     0.77420   0.92940   0.41540   0.01267  Uiso   1.00
C9     C     0.77910   0.55880   0.92508   0.01267  Uiso   1.00
C10    C     0.80710   0.63960   0.84155   0.01267  Uiso   1.00
C11    C     0.70090   0.42920   0.91970   0.01267  Uiso   1.00
C12    C     0.95590   0.96880   0.03988   0.01267  Uiso   1.00
C13    C     0.83270   0.61360   0.01224   0.01267  Uiso   1.00
C14    C     0.58730   0.22550   0.99942   0.01267  Uiso   1.00
C15    C     0.67230   0.36490   0.00124   0.01267  Uiso   1.00
C16    C     0.72580   0.42940   0.08460   0.01267  Uiso   1.00
C17    C     0.27910   0.94120   0.42508   0.01267  Uiso   1.00
C18    C     0.30710   0.86040   0.34155   0.01267  Uiso   1.00
C19    C     0.20090   0.07080   0.41970   0.01267  Uiso   1.00
C20    C     0.45590   0.53120   0.53988   0.01267  Uiso   1.00
C21    C     0.33270   0.88640   0.51224   0.01267  Uiso   1.00
C22    C     0.08730   0.27450   0.49942   0.01267  Uiso   1.00
C23    C     0.17230   0.13510   0.50124   0.01267  Uiso   1.00
C24    C     0.22580   0.07060   0.58460   0.01267  Uiso   1.00
C25    C     0.22090   0.44120   0.07492   0.01267  Uiso   1.00
C26    C     0.19290   0.36040   0.15845   0.01267  Uiso   1.00
C27    C     0.29910   0.57080   0.08030   0.01267  Uiso   1.00
C28    C     0.04410   0.03120   0.96012   0.01267  Uiso   1.00
C29    C     0.16730   0.38640   0.98776   0.01267  Uiso   1.00
C30    C     0.41270   0.77450   0.00058   0.01267  Uiso   1.00
C31    C     0.32770   0.63510   0.99876   0.01267  Uiso   1.00
C32    C     0.27420   0.57060   0.91540   0.01267  Uiso   1.00
N1     N     0.68970   0.05140   0.40902   0.01267  Uiso   1.00
N2     N     0.81030   0.55140   0.09098   0.01267  Uiso   1.00
N3     N     0.31030   0.94860   0.59098   0.01267  Uiso   1.00
N4     N     0.18970   0.44860   0.90902   0.01267  Uiso   1.00
O1     O     0.70570   0.43610   0.47947   0.01267  Uiso   1.00
O2     O     0.66570   0.26786   0.64700   0.01267  Uiso   1.00
O3     O     0.90590   0.65390   0.57076   0.01267  Uiso   1.00
O4     O     0.69810   0.08010   0.73405   0.01267  Uiso   1.00
O5     O     0.98340   0.69050   0.43133   0.01267  Uiso   1.00
O6     O     0.44710   0.45350   0.38442   0.01267  Uiso   1.00
O7     O     0.79430   0.93610   0.02053   0.01267  Uiso   1.00
O8     O     0.83430   0.76786   0.85300   0.01267  Uiso   1.00
O9     O     0.59410   0.15390   0.92924   0.01267  Uiso   1.00
O10    O     0.80190   0.58010   0.76595   0.01267  Uiso   1.00
O11    O     0.51660   0.19050   0.06867   0.01267  Uiso   1.00
O12    O     0.05290   0.95350   0.11558   0.01267  Uiso   1.00
O13    O     0.29430   0.56390   0.52053   0.01267  Uiso   1.00
O14    O     0.33430   0.73214   0.35300   0.01267  Uiso   1.00
O15    O     0.09410   0.34610   0.42924   0.01267  Uiso   1.00
O16    O     0.30190   0.91990   0.26595   0.01267  Uiso   1.00
O17    O     0.01660   0.30950   0.56867   0.01267  Uiso   1.00
O18    O     0.55290   0.54650   0.61558   0.01267  Uiso   1.00
O19    O     0.20570   0.06390   0.97947   0.01267  Uiso   1.00
O20    O     0.16570   0.23214   0.14700   0.01267  Uiso   1.00
O21    O     0.40590   0.84610   0.07076   0.01267  Uiso   1.00
O22    O     0.19810   0.41990   0.23405   0.01267  Uiso   1.00
O23    O     0.48340   0.80950   0.93133   0.01267  Uiso   1.00
O24    O     0.94710   0.04650   0.88442   0.01267  Uiso   1.00
