data_image0
_cell_length_a       16.835
_cell_length_b       9.707
_cell_length_c       39.767
_cell_angle_alpha    90
_cell_angle_beta     90.522
_cell_angle_gamma    90

_symmetry_space_group_name_H-M    "P 1"
_symmetry_int_tables_number       1

loop_
  _symmetry_equiv_pos_as_xyz
  'x, y, z'

loop_
  _atom_site_label
  _atom_site_occupancy
  _atom_site_fract_x
  _atom_site_fract_y
  _atom_site_fract_z
  _atom_site_thermal_displace_type
  _atom_site_B_iso_or_equiv
  _atom_site_type_symbol
  Cu1      1.0000 0.55023  0.71487  0.66665  Biso   1.000  Cu
  C1       1.0000 0.66350  0.87940  0.51580  Biso   1.000  C
  C2       1.0000 0.63620  0.98840  0.53460  Biso   1.000  C
  H1       1.0000 0.59280  0.04130  0.52790  Biso   1.000  H
  C3       1.0000 0.67820  0.01430  0.56460  Biso   1.000  C
  C4       1.0000 0.73590  0.93280  0.57490  Biso   1.000  C
  H2       1.0000 0.75940  0.94940  0.59570  Biso   1.000  H
  C5       1.0000 0.76300  0.82330  0.55580  Biso   1.000  C
  H3       1.0000 0.80640  0.77090  0.56280  Biso   1.000  H
  C6       1.0000 0.72350  0.79550  0.52660  Biso   1.000  C
  H4       1.0000 0.73750  0.71900  0.51390  Biso   1.000  H
  O1       1.0000 0.62270  0.84440  0.48668  Biso   1.000  O
  O2       1.0000 0.63820  0.04900  0.46420  Biso   1.000  O
  N1       1.0000 0.49730  0.78630  0.37667  Biso   1.000  N
  C7       1.0000 0.53810  0.70260  0.39610  Biso   1.000  C
  H5       1.0000 0.54180  0.61080  0.38960  Biso   1.000  H
  C8       1.0000 0.57470  0.74060  0.42460  Biso   1.000  C
  H6       1.0000 0.60180  0.67670  0.43780  Biso   1.000  H
  C9       1.0000 0.57110  0.87610  0.43380  Biso   1.000  C
  C10      1.0000 0.53290  0.96780  0.41310  Biso   1.000  C
  H7       1.0000 0.53060  0.06130  0.41810  Biso   1.000  H
  C11      1.0000 0.49820  0.91490  0.38461  Biso   1.000  C
  H8       1.0000 0.47360  0.97630  0.36990  Biso   1.000  H
  C12      1.0000 0.61320  0.93570  0.46370  Biso   1.000  C
  N2       1.0000 0.59770  0.56210  0.64087  Biso   1.000  N
  O3       1.0000 0.65190  0.12820  0.58243  Biso   1.000  O
  O4       1.0000 0.73900  0.26440  0.55830  Biso   1.000  O
  C13      1.0000 0.65230  0.58650  0.61700  Biso   1.000  C
  H9       1.0000 0.66930  0.67660  0.61370  Biso   1.000  H
  C14      1.0000 0.68380  0.48450  0.59740  Biso   1.000  C
  H10      1.0000 0.72510  0.50260  0.58270  Biso   1.000  H
  C15      1.0000 0.65280  0.35560  0.60035  Biso   1.000  C
  C16      1.0000 0.59880  0.32830  0.62360  Biso   1.000  C
  H11      1.0000 0.57780  0.24020  0.62580  Biso   1.000  H
  C17      1.0000 0.57440  0.43510  0.64450  Biso   1.000  C
  H12      1.0000 0.53980  0.41470  0.66190  Biso   1.000  H
  C18      1.0000 0.68550  0.24570  0.57810  Biso   1.000  C
  C19      1.0000 0.58650  0.21950  0.89728  Biso   1.000  C
  C20      1.0000 0.59660  0.29920  0.86780  Biso   1.000  C
  H13      1.0000 0.64470  0.33630  0.86100  Biso   1.000  H
  C21      1.0000 0.52180  0.31570  0.84960  Biso   1.000  C
  C22      1.0000 0.45380  0.26710  0.85950  Biso   1.000  C
  H14      1.0000 0.40880  0.27870  0.84610  Biso   1.000  H
  C23      1.0000 0.44830  0.20000  0.88920  Biso   1.000  C
  H15      1.0000 0.39910  0.17130  0.89700  Biso   1.000  H
  C24      1.0000 0.51640  0.17440  0.90800  Biso   1.000  C
  H16      1.0000 0.51310  0.12560  0.92800  Biso   1.000  H
  O5       1.0000 0.65480  0.20520  0.91656  Biso   1.000  O
  O6       1.0000 0.68040  0.01070  0.89170  Biso   1.000  O
  N3       1.0000 0.89890  0.06990  0.97398  Biso   1.000  N
  C25      1.0000 0.84660  0.17060  0.97730  Biso   1.000  C
  H17      1.0000 0.85480  0.23520  0.99420  Biso   1.000  H
  C26      1.0000 0.78310  0.18370  0.95750  Biso   1.000  C
  H18      1.0000 0.74880  0.25810  0.95990  Biso   1.000  H
  C27      1.0000 0.76940  0.08580  0.93378  Biso   1.000  C
  C28      1.0000 0.82040  0.98050  0.93100  Biso   1.000  C
  H19      1.0000 0.81140  0.91210  0.91500  Biso   1.000  H
  C29      1.0000 0.88180  0.97440  0.95040  Biso   1.000  C
  H20      1.0000 0.91620  0.90020  0.94800  Biso   1.000  H
  C30      1.0000 0.69620  0.09390  0.91195  Biso   1.000  C
  O7       1.0000 0.62610  0.26700  0.79760  Biso   1.000  O
  N4       1.0000 0.56180  0.60510  0.70977  Biso   1.000  N
  O8       1.0000 0.52690  0.39030  0.82025  Biso   1.000  O
  C31      1.0000 0.50090  0.58840  0.72940  Biso   1.000  C
  H21      1.0000 0.45310  0.62830  0.72270  Biso   1.000  H
  C32      1.0000 0.50160  0.51800  0.75870  Biso   1.000  C
  H22      1.0000 0.45790  0.51510  0.77280  Biso   1.000  H
  C33      1.0000 0.57120  0.45110  0.76620  Biso   1.000  C
  C34      1.0000 0.63450  0.46670  0.74580  Biso   1.000  C
  H23      1.0000 0.68260  0.42420  0.75090  Biso   1.000  H
  C35      1.0000 0.62700  0.54340  0.71850  Biso   1.000  C
  H24      1.0000 0.67110  0.55350  0.70470  Biso   1.000  H
  C36      1.0000 0.57990  0.36040  0.79640  Biso   1.000  C
  C37      1.0000 0.26440  0.25560  0.76930  Biso   1.000  C
  C38      1.0000 0.22980  0.20720  0.79820  Biso   1.000  C
  H25      1.0000 0.23410  0.11530  0.80450  Biso   1.000  H
  C39      1.0000 0.18860  0.30090  0.81724  Biso   1.000  C
  C40      1.0000 0.17550  0.42980  0.80790  Biso   1.000  C
  H26      1.0000 0.14500  0.48840  0.82110  Biso   1.000  H
  C41      1.0000 0.21000  0.47800  0.77650  Biso   1.000  C
  H27      1.0000 0.20100  0.56650  0.76830  Biso   1.000  H
  C42      1.0000 0.25640  0.38460  0.75990  Biso   1.000  C
  H28      1.0000 0.28360  0.41410  0.74090  Biso   1.000  H
  N5       1.0000 0.05930  0.10230  0.95667  Biso   1.000  N
  O9       1.0000 0.15010  0.25830  0.84668  Biso   1.000  O
  O10      1.0000 0.26270  0.17760  0.86870  Biso   1.000  O
  C43      1.0000 0.12080  0.03470  0.94880  Biso   1.000  C
  H29      1.0000 0.13700  0.96310  0.96280  Biso   1.000  H
  C44      1.0000 0.16600  0.06270  0.91990  Biso   1.000  C
  H30      1.0000 0.21080  0.01070  0.91500  Biso   1.000  H
  C45      1.0000 0.14350  0.16300  0.90029  Biso   1.000  C
  C46      1.0000 0.07550  0.24240  0.90890  Biso   1.000  C
  H31      1.0000 0.05800  0.31610  0.89590  Biso   1.000  H
  C47      1.0000 0.03760  0.20300  0.93760  Biso   1.000  C
  H32      1.0000 0.99280  0.25270  0.94390  Biso   1.000  H
  C48      1.0000 0.19120  0.20120  0.86990  Biso   1.000  C
  N6       1.0000 0.49660  0.86420  0.69297  Biso   1.000  N
  O11      1.0000 0.30710  0.16280  0.74943  Biso   1.000  O
  O12      1.0000 0.41820  0.22130  0.77530  Biso   1.000  O
  C49      1.0000 0.53760  0.93200  0.71620  Biso   1.000  C
  H33      1.0000 0.59170  0.91470  0.71860  Biso   1.000  H
  C50      1.0000 0.50220  0.02820  0.73710  Biso   1.000  C
  H34      1.0000 0.53170  0.07480  0.75340  Biso   1.000  H
  C51      1.0000 0.42160  0.05280  0.73300  Biso   1.000  C
  C52      1.0000 0.38540  0.98380  0.70918  Biso   1.000  C
  H35      1.0000 0.33140  0.00060  0.70620  Biso   1.000  H
  C53      1.0000 0.41850  0.89130  0.68860  Biso   1.000  C
  H36      1.0000 0.38880  0.84730  0.67200  Biso   1.000  H
  C54      1.0000 0.38510  0.15380  0.75490  Biso   1.000  C
  Cu2      1.0000 0.44977  0.71487  0.33335  Biso   1.000  Cu
  C55      1.0000 0.33650  0.87940  0.48420  Biso   1.000  C
  C56      1.0000 0.36380  0.98840  0.46540  Biso   1.000  C
  H37      1.0000 0.40720  0.04130  0.47210  Biso   1.000  H
  C57      1.0000 0.32180  0.01430  0.43540  Biso   1.000  C
  C58      1.0000 0.26410  0.93280  0.42510  Biso   1.000  C
  H38      1.0000 0.24060  0.94940  0.40430  Biso   1.000  H
  C59      1.0000 0.23700  0.82330  0.44420  Biso   1.000  C
  H39      1.0000 0.19360  0.77090  0.43720  Biso   1.000  H
  C60      1.0000 0.27650  0.79550  0.47340  Biso   1.000  C
  H40      1.0000 0.26250  0.71900  0.48610  Biso   1.000  H
  O13      1.0000 0.37730  0.84440  0.51332  Biso   1.000  O
  O14      1.0000 0.36180  0.04900  0.53580  Biso   1.000  O
  N7       1.0000 0.50270  0.78630  0.62333  Biso   1.000  N
  C61      1.0000 0.46190  0.70260  0.60390  Biso   1.000  C
  H41      1.0000 0.45820  0.61080  0.61040  Biso   1.000  H
  C62      1.0000 0.42530  0.74060  0.57540  Biso   1.000  C
  H42      1.0000 0.39820  0.67670  0.56220  Biso   1.000  H
  C63      1.0000 0.42890  0.87610  0.56620  Biso   1.000  C
  C64      1.0000 0.46710  0.96780  0.58690  Biso   1.000  C
  H43      1.0000 0.46940  0.06130  0.58190  Biso   1.000  H
  C65      1.0000 0.50180  0.91490  0.61539  Biso   1.000  C
  H44      1.0000 0.52640  0.97630  0.63010  Biso   1.000  H
  C66      1.0000 0.38680  0.93570  0.53630  Biso   1.000  C
  N8       1.0000 0.40230  0.56210  0.35913  Biso   1.000  N
  O15      1.0000 0.34810  0.12820  0.41757  Biso   1.000  O
  O16      1.0000 0.26100  0.26440  0.44170  Biso   1.000  O
  C67      1.0000 0.34770  0.58650  0.38300  Biso   1.000  C
  H45      1.0000 0.33070  0.67660  0.38630  Biso   1.000  H
  C68      1.0000 0.31620  0.48450  0.40260  Biso   1.000  C
  H46      1.0000 0.27490  0.50260  0.41730  Biso   1.000  H
  C69      1.0000 0.34720  0.35560  0.39965  Biso   1.000  C
  C70      1.0000 0.40120  0.32830  0.37640  Biso   1.000  C
  H47      1.0000 0.42220  0.24020  0.37420  Biso   1.000  H
  C71      1.0000 0.42560  0.43510  0.35550  Biso   1.000  C
  H48      1.0000 0.46020  0.41470  0.33810  Biso   1.000  H
  C72      1.0000 0.31450  0.24570  0.42190  Biso   1.000  C
  C73      1.0000 0.41350  0.21950  0.10272  Biso   1.000  C
  C74      1.0000 0.40340  0.29920  0.13220  Biso   1.000  C
  H49      1.0000 0.35530  0.33630  0.13900  Biso   1.000  H
  C75      1.0000 0.47820  0.31570  0.15040  Biso   1.000  C
  C76      1.0000 0.54620  0.26710  0.14050  Biso   1.000  C
  H50      1.0000 0.59120  0.27870  0.15390  Biso   1.000  H
  C77      1.0000 0.55170  0.20000  0.11080  Biso   1.000  C
  H51      1.0000 0.60090  0.17130  0.10300  Biso   1.000  H
  C78      1.0000 0.48360  0.17440  0.09200  Biso   1.000  C
  H52      1.0000 0.48690  0.12560  0.07200  Biso   1.000  H
  O17      1.0000 0.34520  0.20520  0.08344  Biso   1.000  O
  O18      1.0000 0.31960  0.01070  0.10830  Biso   1.000  O
  N9       1.0000 0.10110  0.06990  0.02602  Biso   1.000  N
  C79      1.0000 0.15340  0.17060  0.02270  Biso   1.000  C
  H53      1.0000 0.14520  0.23520  0.00580  Biso   1.000  H
  C80      1.0000 0.21690  0.18370  0.04250  Biso   1.000  C
  H54      1.0000 0.25120  0.25810  0.04010  Biso   1.000  H
  C81      1.0000 0.23060  0.08580  0.06622  Biso   1.000  C
  C82      1.0000 0.17960  0.98050  0.06900  Biso   1.000  C
  H55      1.0000 0.18860  0.91210  0.08500  Biso   1.000  H
  C83      1.0000 0.11820  0.97440  0.04960  Biso   1.000  C
  H56      1.0000 0.08380  0.90020  0.05200  Biso   1.000  H
  C84      1.0000 0.30380  0.09390  0.08805  Biso   1.000  C
  O19      1.0000 0.37390  0.26700  0.20240  Biso   1.000  O
  N10      1.0000 0.43820  0.60510  0.29023  Biso   1.000  N
  O20      1.0000 0.47310  0.39030  0.17975  Biso   1.000  O
  C85      1.0000 0.49910  0.58840  0.27060  Biso   1.000  C
  H57      1.0000 0.54690  0.62830  0.27730  Biso   1.000  H
  C86      1.0000 0.49840  0.51800  0.24130  Biso   1.000  C
  H58      1.0000 0.54210  0.51510  0.22720  Biso   1.000  H
  C87      1.0000 0.42880  0.45110  0.23380  Biso   1.000  C
  C88      1.0000 0.36550  0.46670  0.25420  Biso   1.000  C
  H59      1.0000 0.31740  0.42420  0.24910  Biso   1.000  H
  C89      1.0000 0.37300  0.54340  0.28150  Biso   1.000  C
  H60      1.0000 0.32890  0.55350  0.29530  Biso   1.000  H
  C90      1.0000 0.42010  0.36040  0.20360  Biso   1.000  C
  C91      1.0000 0.73560  0.25560  0.23070  Biso   1.000  C
  C92      1.0000 0.77020  0.20720  0.20180  Biso   1.000  C
  H61      1.0000 0.76590  0.11530  0.19550  Biso   1.000  H
  C93      1.0000 0.81140  0.30090  0.18276  Biso   1.000  C
  C94      1.0000 0.82450  0.42980  0.19210  Biso   1.000  C
  H62      1.0000 0.85500  0.48840  0.17890  Biso   1.000  H
  C95      1.0000 0.79000  0.47800  0.22350  Biso   1.000  C
  H63      1.0000 0.79900  0.56650  0.23170  Biso   1.000  H
  C96      1.0000 0.74360  0.38460  0.24010  Biso   1.000  C
  H64      1.0000 0.71640  0.41410  0.25910  Biso   1.000  H
  N11      1.0000 0.94070  0.10230  0.04333  Biso   1.000  N
  O21      1.0000 0.84990  0.25830  0.15332  Biso   1.000  O
  O22      1.0000 0.73730  0.17760  0.13130  Biso   1.000  O
  C97      1.0000 0.87920  0.03470  0.05120  Biso   1.000  C
  H65      1.0000 0.86300  0.96310  0.03720  Biso   1.000  H
  C98      1.0000 0.83400  0.06270  0.08010  Biso   1.000  C
  H66      1.0000 0.78920  0.01070  0.08500  Biso   1.000  H
  C99      1.0000 0.85650  0.16300  0.09971  Biso   1.000  C
  C100     1.0000 0.92450  0.24240  0.09110  Biso   1.000  C
  H67      1.0000 0.94200  0.31610  0.10410  Biso   1.000  H
  C101     1.0000 0.96240  0.20300  0.06240  Biso   1.000  C
  H68      1.0000 0.00720  0.25270  0.05610  Biso   1.000  H
  C102     1.0000 0.80880  0.20120  0.13010  Biso   1.000  C
  N12      1.0000 0.50340  0.86420  0.30703  Biso   1.000  N
  O23      1.0000 0.69290  0.16280  0.25057  Biso   1.000  O
  O24      1.0000 0.58180  0.22130  0.22470  Biso   1.000  O
  C103     1.0000 0.46240  0.93200  0.28380  Biso   1.000  C
  H69      1.0000 0.40830  0.91470  0.28140  Biso   1.000  H
  C104     1.0000 0.49780  0.02820  0.26290  Biso   1.000  C
  H70      1.0000 0.46830  0.07480  0.24660  Biso   1.000  H
  C105     1.0000 0.57840  0.05280  0.26700  Biso   1.000  C
  C106     1.0000 0.61460  0.98380  0.29082  Biso   1.000  C
  H71      1.0000 0.66860  0.00060  0.29380  Biso   1.000  H
  C107     1.0000 0.58150  0.89130  0.31140  Biso   1.000  C
  H72      1.0000 0.61120  0.84730  0.32800  Biso   1.000  H
  C108     1.0000 0.61490  0.15380  0.24510  Biso   1.000  C
  Cu3      1.0000 0.00000  0.06478  0.00000  Biso   1.000  Cu
  Cu4      1.0000 0.05023  0.21487  0.66665  Biso   1.000  Cu
  C109     1.0000 0.16350  0.37940  0.51580  Biso   1.000  C
  C110     1.0000 0.13620  0.48840  0.53460  Biso   1.000  C
  H73      1.0000 0.09280  0.54130  0.52790  Biso   1.000  H
  C111     1.0000 0.17820  0.51430  0.56460  Biso   1.000  C
  C112     1.0000 0.23590  0.43280  0.57490  Biso   1.000  C
  H74      1.0000 0.25940  0.44940  0.59570  Biso   1.000  H
  C113     1.0000 0.26300  0.32330  0.55580  Biso   1.000  C
  H75      1.0000 0.30640  0.27090  0.56280  Biso   1.000  H
  C114     1.0000 0.22350  0.29550  0.52660  Biso   1.000  C
  H76      1.0000 0.23750  0.21900  0.51390  Biso   1.000  H
  O25      1.0000 0.12270  0.34440  0.48668  Biso   1.000  O
  O26      1.0000 0.13820  0.54900  0.46420  Biso   1.000  O
  N13      1.0000 0.99730  0.28630  0.37667  Biso   1.000  N
  C115     1.0000 0.03810  0.20260  0.39610  Biso   1.000  C
  H77      1.0000 0.04180  0.11080  0.38960  Biso   1.000  H
  C116     1.0000 0.07470  0.24060  0.42460  Biso   1.000  C
  H78      1.0000 0.10180  0.17670  0.43780  Biso   1.000  H
  C117     1.0000 0.07110  0.37610  0.43380  Biso   1.000  C
  C118     1.0000 0.03290  0.46780  0.41310  Biso   1.000  C
  H79      1.0000 0.03060  0.56130  0.41810  Biso   1.000  H
  C119     1.0000 0.99820  0.41490  0.38461  Biso   1.000  C
  H80      1.0000 0.97360  0.47630  0.36990  Biso   1.000  H
  C120     1.0000 0.11320  0.43570  0.46370  Biso   1.000  C
  N14      1.0000 0.09770  0.06210  0.64087  Biso   1.000  N
  O27      1.0000 0.15190  0.62820  0.58243  Biso   1.000  O
  O28      1.0000 0.23900  0.76440  0.55830  Biso   1.000  O
  C121     1.0000 0.15230  0.08650  0.61700  Biso   1.000  C
  H81      1.0000 0.16930  0.17660  0.61370  Biso   1.000  H
  C122     1.0000 0.18380  0.98450  0.59740  Biso   1.000  C
  H82      1.0000 0.22510  0.00260  0.58270  Biso   1.000  H
  C123     1.0000 0.15280  0.85560  0.60035  Biso   1.000  C
  C124     1.0000 0.09880  0.82830  0.62360  Biso   1.000  C
  H83      1.0000 0.07780  0.74020  0.62580  Biso   1.000  H
  C125     1.0000 0.07440  0.93510  0.64450  Biso   1.000  C
  H84      1.0000 0.03980  0.91470  0.66190  Biso   1.000  H
  C126     1.0000 0.18550  0.74570  0.57810  Biso   1.000  C
  C127     1.0000 0.08650  0.71950  0.89728  Biso   1.000  C
  C128     1.0000 0.09660  0.79920  0.86780  Biso   1.000  C
  H85      1.0000 0.14470  0.83630  0.86100  Biso   1.000  H
  C129     1.0000 0.02180  0.81570  0.84960  Biso   1.000  C
  C130     1.0000 0.95380  0.76710  0.85950  Biso   1.000  C
  H86      1.0000 0.90880  0.77870  0.84610  Biso   1.000  H
  C131     1.0000 0.94830  0.70000  0.88920  Biso   1.000  C
  H87      1.0000 0.89910  0.67130  0.89700  Biso   1.000  H
  C132     1.0000 0.01640  0.67440  0.90800  Biso   1.000  C
  H88      1.0000 0.01310  0.62560  0.92800  Biso   1.000  H
  O29      1.0000 0.15480  0.70520  0.91656  Biso   1.000  O
  O30      1.0000 0.18040  0.51070  0.89170  Biso   1.000  O
  N15      1.0000 0.39890  0.56990  0.97398  Biso   1.000  N
  C133     1.0000 0.34660  0.67060  0.97730  Biso   1.000  C
  H89      1.0000 0.35480  0.73520  0.99420  Biso   1.000  H
  C134     1.0000 0.28310  0.68370  0.95750  Biso   1.000  C
  H90      1.0000 0.24880  0.75810  0.95990  Biso   1.000  H
  C135     1.0000 0.26940  0.58580  0.93378  Biso   1.000  C
  C136     1.0000 0.32040  0.48050  0.93100  Biso   1.000  C
  H91      1.0000 0.31140  0.41210  0.91500  Biso   1.000  H
  C137     1.0000 0.38180  0.47440  0.95040  Biso   1.000  C
  H92      1.0000 0.41620  0.40020  0.94800  Biso   1.000  H
  C138     1.0000 0.19620  0.59390  0.91195  Biso   1.000  C
  O31      1.0000 0.12610  0.76700  0.79760  Biso   1.000  O
  N16      1.0000 0.06180  0.10510  0.70977  Biso   1.000  N
  O32      1.0000 0.02690  0.89030  0.82025  Biso   1.000  O
  C139     1.0000 0.00090  0.08840  0.72940  Biso   1.000  C
  H93      1.0000 0.95310  0.12830  0.72270  Biso   1.000  H
  C140     1.0000 0.00160  0.01800  0.75870  Biso   1.000  C
  H94      1.0000 0.95790  0.01510  0.77280  Biso   1.000  H
  C141     1.0000 0.07120  0.95110  0.76620  Biso   1.000  C
  C142     1.0000 0.13450  0.96670  0.74580  Biso   1.000  C
  H95      1.0000 0.18260  0.92420  0.75090  Biso   1.000  H
  C143     1.0000 0.12700  0.04340  0.71850  Biso   1.000  C
  H96      1.0000 0.17110  0.05350  0.70470  Biso   1.000  H
  C144     1.0000 0.07990  0.86040  0.79640  Biso   1.000  C
  C145     1.0000 0.76440  0.75560  0.76930  Biso   1.000  C
  C146     1.0000 0.72980  0.70720  0.79820  Biso   1.000  C
  H97      1.0000 0.73410  0.61530  0.80450  Biso   1.000  H
  C147     1.0000 0.68860  0.80090  0.81724  Biso   1.000  C
  C148     1.0000 0.67550  0.92980  0.80790  Biso   1.000  C
  H98      1.0000 0.64500  0.98840  0.82110  Biso   1.000  H
  C149     1.0000 0.71000  0.97800  0.77650  Biso   1.000  C
  H99      1.0000 0.70100  0.06650  0.76830  Biso   1.000  H
  C150     1.0000 0.75640  0.88460  0.75990  Biso   1.000  C
  H100     1.0000 0.78360  0.91410  0.74090  Biso   1.000  H
  N17      1.0000 0.55930  0.60230  0.95667  Biso   1.000  N
  O33      1.0000 0.65010  0.75830  0.84668  Biso   1.000  O
  O34      1.0000 0.76270  0.67760  0.86870  Biso   1.000  O
  C151     1.0000 0.62080  0.53470  0.94880  Biso   1.000  C
  H101     1.0000 0.63700  0.46310  0.96280  Biso   1.000  H
  C152     1.0000 0.66600  0.56270  0.91990  Biso   1.000  C
  H102     1.0000 0.71080  0.51070  0.91500  Biso   1.000  H
  C153     1.0000 0.64350  0.66300  0.90029  Biso   1.000  C
  C154     1.0000 0.57550  0.74240  0.90890  Biso   1.000  C
  H103     1.0000 0.55800  0.81610  0.89590  Biso   1.000  H
  C155     1.0000 0.53760  0.70300  0.93760  Biso   1.000  C
  H104     1.0000 0.49280  0.75270  0.94390  Biso   1.000  H
  C156     1.0000 0.69120  0.70120  0.86990  Biso   1.000  C
  N18      1.0000 0.99660  0.36420  0.69297  Biso   1.000  N
  O35      1.0000 0.80710  0.66280  0.74943  Biso   1.000  O
  O36      1.0000 0.91820  0.72130  0.77530  Biso   1.000  O
  C157     1.0000 0.03760  0.43200  0.71620  Biso   1.000  C
  H105     1.0000 0.09170  0.41470  0.71860  Biso   1.000  H
  C158     1.0000 0.00220  0.52820  0.73710  Biso   1.000  C
  H106     1.0000 0.03170  0.57480  0.75340  Biso   1.000  H
  C159     1.0000 0.92160  0.55280  0.73300  Biso   1.000  C
  C160     1.0000 0.88540  0.48380  0.70918  Biso   1.000  C
  H107     1.0000 0.83140  0.50060  0.70620  Biso   1.000  H
  C161     1.0000 0.91850  0.39130  0.68860  Biso   1.000  C
  H108     1.0000 0.88880  0.34730  0.67200  Biso   1.000  H
  C162     1.0000 0.88510  0.65380  0.75490  Biso   1.000  C
  Cu5      1.0000 0.94977  0.21487  0.33335  Biso   1.000  Cu
  C163     1.0000 0.83650  0.37940  0.48420  Biso   1.000  C
  C164     1.0000 0.86380  0.48840  0.46540  Biso   1.000  C
  H109     1.0000 0.90720  0.54130  0.47210  Biso   1.000  H
  C165     1.0000 0.82180  0.51430  0.43540  Biso   1.000  C
  C166     1.0000 0.76410  0.43280  0.42510  Biso   1.000  C
  H110     1.0000 0.74060  0.44940  0.40430  Biso   1.000  H
  C167     1.0000 0.73700  0.32330  0.44420  Biso   1.000  C
  H111     1.0000 0.69360  0.27090  0.43720  Biso   1.000  H
  C168     1.0000 0.77650  0.29550  0.47340  Biso   1.000  C
  H112     1.0000 0.76250  0.21900  0.48610  Biso   1.000  H
  O37      1.0000 0.87730  0.34440  0.51332  Biso   1.000  O
  O38      1.0000 0.86180  0.54900  0.53580  Biso   1.000  O
  N19      1.0000 0.00270  0.28630  0.62333  Biso   1.000  N
  C169     1.0000 0.96190  0.20260  0.60390  Biso   1.000  C
  H113     1.0000 0.95820  0.11080  0.61040  Biso   1.000  H
  C170     1.0000 0.92530  0.24060  0.57540  Biso   1.000  C
  H114     1.0000 0.89820  0.17670  0.56220  Biso   1.000  H
  C171     1.0000 0.92890  0.37610  0.56620  Biso   1.000  C
  C172     1.0000 0.96710  0.46780  0.58690  Biso   1.000  C
  H115     1.0000 0.96940  0.56130  0.58190  Biso   1.000  H
  C173     1.0000 0.00180  0.41490  0.61539  Biso   1.000  C
  H116     1.0000 0.02640  0.47630  0.63010  Biso   1.000  H
  C174     1.0000 0.88680  0.43570  0.53630  Biso   1.000  C
  N20      1.0000 0.90230  0.06210  0.35913  Biso   1.000  N
  O39      1.0000 0.84810  0.62820  0.41757  Biso   1.000  O
  O40      1.0000 0.76100  0.76440  0.44170  Biso   1.000  O
  C175     1.0000 0.84770  0.08650  0.38300  Biso   1.000  C
  H117     1.0000 0.83070  0.17660  0.38630  Biso   1.000  H
  C176     1.0000 0.81620  0.98450  0.40260  Biso   1.000  C
  H118     1.0000 0.77490  0.00260  0.41730  Biso   1.000  H
  C177     1.0000 0.84720  0.85560  0.39965  Biso   1.000  C
  C178     1.0000 0.90120  0.82830  0.37640  Biso   1.000  C
  H119     1.0000 0.92220  0.74020  0.37420  Biso   1.000  H
  C179     1.0000 0.92560  0.93510  0.35550  Biso   1.000  C
  H120     1.0000 0.96020  0.91470  0.33810  Biso   1.000  H
  C180     1.0000 0.81450  0.74570  0.42190  Biso   1.000  C
  C181     1.0000 0.91350  0.71950  0.10272  Biso   1.000  C
  C182     1.0000 0.90340  0.79920  0.13220  Biso   1.000  C
  H121     1.0000 0.85530  0.83630  0.13900  Biso   1.000  H
  C183     1.0000 0.97820  0.81570  0.15040  Biso   1.000  C
  C184     1.0000 0.04620  0.76710  0.14050  Biso   1.000  C
  H122     1.0000 0.09120  0.77870  0.15390  Biso   1.000  H
  C185     1.0000 0.05170  0.70000  0.11080  Biso   1.000  C
  H123     1.0000 0.10090  0.67130  0.10300  Biso   1.000  H
  C186     1.0000 0.98360  0.67440  0.09200  Biso   1.000  C
  H124     1.0000 0.98690  0.62560  0.07200  Biso   1.000  H
  O41      1.0000 0.84520  0.70520  0.08344  Biso   1.000  O
  O42      1.0000 0.81960  0.51070  0.10830  Biso   1.000  O
  N21      1.0000 0.60110  0.56990  0.02602  Biso   1.000  N
  C187     1.0000 0.65340  0.67060  0.02270  Biso   1.000  C
  H125     1.0000 0.64520  0.73520  0.00580  Biso   1.000  H
  C188     1.0000 0.71690  0.68370  0.04250  Biso   1.000  C
  H126     1.0000 0.75120  0.75810  0.04010  Biso   1.000  H
  C189     1.0000 0.73060  0.58580  0.06622  Biso   1.000  C
  C190     1.0000 0.67960  0.48050  0.06900  Biso   1.000  C
  H127     1.0000 0.68860  0.41210  0.08500  Biso   1.000  H
  C191     1.0000 0.61820  0.47440  0.04960  Biso   1.000  C
  H128     1.0000 0.58380  0.40020  0.05200  Biso   1.000  H
  C192     1.0000 0.80380  0.59390  0.08805  Biso   1.000  C
  O43      1.0000 0.87390  0.76700  0.20240  Biso   1.000  O
  N22      1.0000 0.93820  0.10510  0.29023  Biso   1.000  N
  O44      1.0000 0.97310  0.89030  0.17975  Biso   1.000  O
  C193     1.0000 0.99910  0.08840  0.27060  Biso   1.000  C
  H129     1.0000 0.04690  0.12830  0.27730  Biso   1.000  H
  C194     1.0000 0.99840  0.01800  0.24130  Biso   1.000  C
  H130     1.0000 0.04210  0.01510  0.22720  Biso   1.000  H
  C195     1.0000 0.92880  0.95110  0.23380  Biso   1.000  C
  C196     1.0000 0.86550  0.96670  0.25420  Biso   1.000  C
  H131     1.0000 0.81740  0.92420  0.24910  Biso   1.000  H
  C197     1.0000 0.87300  0.04340  0.28150  Biso   1.000  C
  H132     1.0000 0.82890  0.05350  0.29530  Biso   1.000  H
  C198     1.0000 0.92010  0.86040  0.20360  Biso   1.000  C
  C199     1.0000 0.23560  0.75560  0.23070  Biso   1.000  C
  C200     1.0000 0.27020  0.70720  0.20180  Biso   1.000  C
  H133     1.0000 0.26590  0.61530  0.19550  Biso   1.000  H
  C201     1.0000 0.31140  0.80090  0.18276  Biso   1.000  C
  C202     1.0000 0.32450  0.92980  0.19210  Biso   1.000  C
  H134     1.0000 0.35500  0.98840  0.17890  Biso   1.000  H
  C203     1.0000 0.29000  0.97800  0.22350  Biso   1.000  C
  H135     1.0000 0.29900  0.06650  0.23170  Biso   1.000  H
  C204     1.0000 0.24360  0.88460  0.24010  Biso   1.000  C
  H136     1.0000 0.21640  0.91410  0.25910  Biso   1.000  H
  N23      1.0000 0.44070  0.60230  0.04333  Biso   1.000  N
  O45      1.0000 0.34990  0.75830  0.15332  Biso   1.000  O
  O46      1.0000 0.23730  0.67760  0.13130  Biso   1.000  O
  C205     1.0000 0.37920  0.53470  0.05120  Biso   1.000  C
  H137     1.0000 0.36300  0.46310  0.03720  Biso   1.000  H
  C206     1.0000 0.33400  0.56270  0.08010  Biso   1.000  C
  H138     1.0000 0.28920  0.51070  0.08500  Biso   1.000  H
  C207     1.0000 0.35650  0.66300  0.09971  Biso   1.000  C
  C208     1.0000 0.42450  0.74240  0.09110  Biso   1.000  C
  H139     1.0000 0.44200  0.81610  0.10410  Biso   1.000  H
  C209     1.0000 0.46240  0.70300  0.06240  Biso   1.000  C
  H140     1.0000 0.50720  0.75270  0.05610  Biso   1.000  H
  C210     1.0000 0.30880  0.70120  0.13010  Biso   1.000  C
  N24      1.0000 0.00340  0.36420  0.30703  Biso   1.000  N
  O47      1.0000 0.19290  0.66280  0.25057  Biso   1.000  O
  O48      1.0000 0.08180  0.72130  0.22470  Biso   1.000  O
  C211     1.0000 0.96240  0.43200  0.28380  Biso   1.000  C
  H141     1.0000 0.90830  0.41470  0.28140  Biso   1.000  H
  C212     1.0000 0.99780  0.52820  0.26290  Biso   1.000  C
  H142     1.0000 0.96830  0.57480  0.24660  Biso   1.000  H
  C213     1.0000 0.07840  0.55280  0.26700  Biso   1.000  C
  C214     1.0000 0.11460  0.48380  0.29082  Biso   1.000  C
  H143     1.0000 0.16860  0.50060  0.29380  Biso   1.000  H
  C215     1.0000 0.08150  0.39130  0.31140  Biso   1.000  C
  H144     1.0000 0.11120  0.34730  0.32800  Biso   1.000  H
  C216     1.0000 0.11490  0.65380  0.24510  Biso   1.000  C
  Cu6      1.0000 0.50000  0.56478  0.00000  Biso   1.000  Cu
