data_image0
_cell_length_a       18.1402
_cell_length_b       18.1402
_cell_length_c       18.114
_cell_angle_alpha    90
_cell_angle_beta     90
_cell_angle_gamma    120

_symmetry_space_group_name_H-M    "P 1"
_symmetry_int_tables_number       1

loop_
  _symmetry_equiv_pos_as_xyz
  'x, y, z'

loop_
  _atom_site_label
  _atom_site_occupancy
  _atom_site_fract_x
  _atom_site_fract_y
  _atom_site_fract_z
  _atom_site_thermal_displace_type
  _atom_site_B_iso_or_equiv
  _atom_site_type_symbol
  Cu1      1.0000 0.47324  0.52552  0.05833  Biso   1.000  Cu
  O1       1.0000 0.43610  0.41370  0.09620  Biso   1.000  O
  O2       1.0000 0.47710  0.36970  0.00160  Biso   1.000  O
  O3       1.0000 0.47930  0.11030  0.00000  Biso   1.000  O
  O4       1.0000 0.43480  0.02190  0.10100  Biso   1.000  O
  C1       1.0000 0.44420  0.35530  0.06250  Biso   1.000  C
  C2       1.0000 0.41760  0.27300  0.09630  Biso   1.000  C
  C3       1.0000 0.37410  0.24870  0.16600  Biso   1.000  C
  H1       1.0000 0.36220  0.28590  0.19170  Biso   1.000  H
  C4       1.0000 0.35050  0.16990  0.19390  Biso   1.000  C
  C5       1.0000 0.37100  0.11380  0.16260  Biso   1.000  C
  H2       1.0000 0.35300  0.06020  0.18260  Biso   1.000  H
  C6       1.0000 0.41990  0.14190  0.09980  Biso   1.000  C
  C7       1.0000 0.44190  0.22080  0.06540  Biso   1.000  C
  H3       1.0000 0.47300  0.23640  0.02170  Biso   1.000  H
  C8       1.0000 0.45020  0.08410  0.06610  Biso   1.000  C
  C9       1.0000 0.21640  0.04680  0.43630  Biso   1.000  C
  C10      1.0000 0.14650  0.02870  0.46860  Biso   1.000  C
  H4       1.0000 0.11430  0.05220  0.45190  Biso   1.000  H
  C11      1.0000 0.28100  0.02470  0.46900  Biso   1.000  C
  H5       1.0000 0.33420  0.04400  0.44770  Biso   1.000  H
  N1       1.0000 0.30070  0.14130  0.25770  Biso   1.000  N
  N2       1.0000 0.28240  0.19670  0.29910  Biso   1.000  N
  N3       1.0000 0.23040  0.15020  0.35980  Biso   1.000  N
  C12      1.0000 0.21660  0.06610  0.35610  Biso   1.000  C
  C13      1.0000 0.26000  0.06050  0.29290  Biso   1.000  C
  H6       1.0000 0.26160  0.01250  0.27740  Biso   1.000  H
  Cu2      1.0000 0.47448  0.94772  0.05833  Biso   1.000  Cu
  O5       1.0000 0.58630  0.02240  0.09620  Biso   1.000  O
  O6       1.0000 0.63030  0.10740  0.00160  Biso   1.000  O
  O7       1.0000 0.88970  0.36900  0.00000  Biso   1.000  O
  O8       1.0000 0.97810  0.41290  0.10100  Biso   1.000  O
  C14      1.0000 0.64470  0.08890  0.06250  Biso   1.000  C
  C15      1.0000 0.72700  0.14460  0.09630  Biso   1.000  C
  C16      1.0000 0.75130  0.12540  0.16600  Biso   1.000  C
  H7       1.0000 0.71410  0.07630  0.19170  Biso   1.000  H
  C17      1.0000 0.83010  0.18060  0.19390  Biso   1.000  C
  C18      1.0000 0.88620  0.25720  0.16260  Biso   1.000  C
  H8       1.0000 0.93980  0.29280  0.18260  Biso   1.000  H
  C19      1.0000 0.85810  0.27800  0.09980  Biso   1.000  C
  C20      1.0000 0.77920  0.22110  0.06540  Biso   1.000  C
  H9       1.0000 0.76360  0.23660  0.02170  Biso   1.000  H
  C21      1.0000 0.91590  0.36610  0.06610  Biso   1.000  C
  C22      1.0000 0.95320  0.16960  0.43630  Biso   1.000  C
  C23      1.0000 0.97130  0.11780  0.46860  Biso   1.000  C
  H10      1.0000 0.94780  0.06210  0.45190  Biso   1.000  H
  C24      1.0000 0.97530  0.25630  0.46900  Biso   1.000  C
  H11      1.0000 0.95600  0.29020  0.44770  Biso   1.000  H
  N4       1.0000 0.85870  0.15940  0.25770  Biso   1.000  N
  N5       1.0000 0.80330  0.08570  0.29910  Biso   1.000  N
  N6       1.0000 0.84980  0.08020  0.35980  Biso   1.000  N
  C25      1.0000 0.93390  0.15050  0.35610  Biso   1.000  C
  C26      1.0000 0.93950  0.19950  0.29290  Biso   1.000  C
  H12      1.0000 0.98750  0.24910  0.27740  Biso   1.000  H
  Cu3      1.0000 0.05228  0.52676  0.05833  Biso   1.000  Cu
  O9       1.0000 0.97760  0.56390  0.09620  Biso   1.000  O
  O10      1.0000 0.89260  0.52290  0.00160  Biso   1.000  O
  O11      1.0000 0.63100  0.52070  0.00000  Biso   1.000  O
  O12      1.0000 0.58710  0.56520  0.10100  Biso   1.000  O
  C27      1.0000 0.91110  0.55580  0.06250  Biso   1.000  C
  C28      1.0000 0.85540  0.58240  0.09630  Biso   1.000  C
  C29      1.0000 0.87460  0.62590  0.16600  Biso   1.000  C
  H13      1.0000 0.92370  0.63780  0.19170  Biso   1.000  H
  C30      1.0000 0.81940  0.64950  0.19390  Biso   1.000  C
  C31      1.0000 0.74280  0.62900  0.16260  Biso   1.000  C
  H14      1.0000 0.70720  0.64700  0.18260  Biso   1.000  H
  C32      1.0000 0.72200  0.58010  0.09980  Biso   1.000  C
  C33      1.0000 0.77890  0.55810  0.06540  Biso   1.000  C
  H15      1.0000 0.76340  0.52700  0.02170  Biso   1.000  H
  C34      1.0000 0.63390  0.54980  0.06610  Biso   1.000  C
  C35      1.0000 0.83040  0.78360  0.43630  Biso   1.000  C
  C36      1.0000 0.88220  0.85350  0.46860  Biso   1.000  C
  H16      1.0000 0.93790  0.88570  0.45190  Biso   1.000  H
  C37      1.0000 0.74370  0.71900  0.46900  Biso   1.000  C
  H17      1.0000 0.70980  0.66580  0.44770  Biso   1.000  H
  N7       1.0000 0.84060  0.69930  0.25770  Biso   1.000  N
  N8       1.0000 0.91430  0.71760  0.29910  Biso   1.000  N
  N9       1.0000 0.91980  0.76960  0.35980  Biso   1.000  N
  C38      1.0000 0.84950  0.78340  0.35610  Biso   1.000  C
  C39      1.0000 0.80050  0.74000  0.29290  Biso   1.000  C
  H18      1.0000 0.75090  0.73840  0.27740  Biso   1.000  H
  Cu4      1.0000 0.52552  0.47324  0.94167  Biso   1.000  Cu
  O13      1.0000 0.41370  0.43610  0.90380  Biso   1.000  O
  O14      1.0000 0.36970  0.47710  0.99840  Biso   1.000  O
  O15      1.0000 0.11030  0.47930  0.00000  Biso   1.000  O
  O16      1.0000 0.02190  0.43480  0.89900  Biso   1.000  O
  C40      1.0000 0.35530  0.44420  0.93750  Biso   1.000  C
  C41      1.0000 0.27300  0.41760  0.90370  Biso   1.000  C
  C42      1.0000 0.24870  0.37410  0.83400  Biso   1.000  C
  H19      1.0000 0.28590  0.36220  0.80830  Biso   1.000  H
  C43      1.0000 0.16990  0.35050  0.80610  Biso   1.000  C
  C44      1.0000 0.11380  0.37100  0.83740  Biso   1.000  C
  H20      1.0000 0.06020  0.35300  0.81740  Biso   1.000  H
  C45      1.0000 0.14190  0.41990  0.90020  Biso   1.000  C
  C46      1.0000 0.22080  0.44190  0.93460  Biso   1.000  C
  H21      1.0000 0.23640  0.47300  0.97830  Biso   1.000  H
  C47      1.0000 0.08410  0.45020  0.93390  Biso   1.000  C
  C48      1.0000 0.04680  0.21640  0.56370  Biso   1.000  C
  C49      1.0000 0.02870  0.14650  0.53140  Biso   1.000  C
  H22      1.0000 0.05220  0.11430  0.54810  Biso   1.000  H
  C50      1.0000 0.02470  0.28100  0.53100  Biso   1.000  C
  H23      1.0000 0.04400  0.33420  0.55230  Biso   1.000  H
  N10      1.0000 0.14130  0.30070  0.74230  Biso   1.000  N
  N11      1.0000 0.19670  0.28240  0.70090  Biso   1.000  N
  N12      1.0000 0.15020  0.23040  0.64020  Biso   1.000  N
  C51      1.0000 0.06610  0.21660  0.64390  Biso   1.000  C
  C52      1.0000 0.06050  0.26000  0.70710  Biso   1.000  C
  H24      1.0000 0.01250  0.26160  0.72260  Biso   1.000  H
  Cu5      1.0000 0.94772  0.47448  0.94167  Biso   1.000  Cu
  O17      1.0000 0.02240  0.58630  0.90380  Biso   1.000  O
  O18      1.0000 0.10740  0.63030  0.99840  Biso   1.000  O
  O19      1.0000 0.36900  0.88970  0.00000  Biso   1.000  O
  O20      1.0000 0.41290  0.97810  0.89900  Biso   1.000  O
  C53      1.0000 0.08890  0.64470  0.93750  Biso   1.000  C
  C54      1.0000 0.14460  0.72700  0.90370  Biso   1.000  C
  C55      1.0000 0.12540  0.75130  0.83400  Biso   1.000  C
  H25      1.0000 0.07630  0.71410  0.80830  Biso   1.000  H
  C56      1.0000 0.18060  0.83010  0.80610  Biso   1.000  C
  C57      1.0000 0.25720  0.88620  0.83740  Biso   1.000  C
  H26      1.0000 0.29280  0.93980  0.81740  Biso   1.000  H
  C58      1.0000 0.27800  0.85810  0.90020  Biso   1.000  C
  C59      1.0000 0.22110  0.77920  0.93460  Biso   1.000  C
  H27      1.0000 0.23660  0.76360  0.97830  Biso   1.000  H
  C60      1.0000 0.36610  0.91590  0.93390  Biso   1.000  C
  C61      1.0000 0.16960  0.95320  0.56370  Biso   1.000  C
  C62      1.0000 0.11780  0.97130  0.53140  Biso   1.000  C
  H28      1.0000 0.06210  0.94780  0.54810  Biso   1.000  H
  C63      1.0000 0.25630  0.97530  0.53100  Biso   1.000  C
  H29      1.0000 0.29020  0.95600  0.55230  Biso   1.000  H
  N13      1.0000 0.15940  0.85870  0.74230  Biso   1.000  N
  N14      1.0000 0.08570  0.80330  0.70090  Biso   1.000  N
  N15      1.0000 0.08020  0.84980  0.64020  Biso   1.000  N
  C64      1.0000 0.15050  0.93390  0.64390  Biso   1.000  C
  C65      1.0000 0.19950  0.93950  0.70710  Biso   1.000  C
  H30      1.0000 0.24910  0.98750  0.72260  Biso   1.000  H
  Cu6      1.0000 0.52676  0.05228  0.94167  Biso   1.000  Cu
  O21      1.0000 0.56390  0.97760  0.90380  Biso   1.000  O
  O22      1.0000 0.52290  0.89260  0.99840  Biso   1.000  O
  O23      1.0000 0.52070  0.63100  0.00000  Biso   1.000  O
  O24      1.0000 0.56520  0.58710  0.89900  Biso   1.000  O
  C66      1.0000 0.55580  0.91110  0.93750  Biso   1.000  C
  C67      1.0000 0.58240  0.85540  0.90370  Biso   1.000  C
  C68      1.0000 0.62590  0.87460  0.83400  Biso   1.000  C
  H31      1.0000 0.63780  0.92370  0.80830  Biso   1.000  H
  C69      1.0000 0.64950  0.81940  0.80610  Biso   1.000  C
  C70      1.0000 0.62900  0.74280  0.83740  Biso   1.000  C
  H32      1.0000 0.64700  0.70720  0.81740  Biso   1.000  H
  C71      1.0000 0.58010  0.72200  0.90020  Biso   1.000  C
  C72      1.0000 0.55810  0.77890  0.93460  Biso   1.000  C
  H33      1.0000 0.52700  0.76340  0.97830  Biso   1.000  H
  C73      1.0000 0.54980  0.63390  0.93390  Biso   1.000  C
  C74      1.0000 0.78360  0.83040  0.56370  Biso   1.000  C
  C75      1.0000 0.85350  0.88220  0.53140  Biso   1.000  C
  H34      1.0000 0.88570  0.93790  0.54810  Biso   1.000  H
  C76      1.0000 0.71900  0.74370  0.53100  Biso   1.000  C
  H35      1.0000 0.66580  0.70980  0.55230  Biso   1.000  H
  N16      1.0000 0.69930  0.84060  0.74230  Biso   1.000  N
  N17      1.0000 0.71760  0.91430  0.70090  Biso   1.000  N
  N18      1.0000 0.76960  0.91980  0.64020  Biso   1.000  N
  C77      1.0000 0.78340  0.84950  0.64390  Biso   1.000  C
  C78      1.0000 0.74000  0.80050  0.70710  Biso   1.000  C
  H36      1.0000 0.73840  0.75090  0.72260  Biso   1.000  H
