data_MIXKUB_clean
_audit_creation_date              2015-10-16
_audit_creation_method            'Materials Studio'
_symmetry_space_group_name_H-M    'P1'
_symmetry_Int_Tables_number       1
_symmetry_cell_setting            triclinic
loop_
_symmetry_equiv_pos_as_xyz
  x,y,z
_cell_length_a                    8.5707
_cell_length_b                    9.8985
_cell_length_c                    14.2812
_cell_angle_alpha                 104.9860
_cell_angle_beta                  102.2910
_cell_angle_gamma                 91.2860
loop_
_atom_site_label
_atom_site_type_symbol
_atom_site_fract_x
_atom_site_fract_y
_atom_site_fract_z
_atom_site_U_iso_or_equiv
_atom_site_adp_type
_atom_site_occupancy
Zn1    Zn    0.33695   0.63936   0.66121   0.01267  Uiso   1.00
Zn2    Zn    0.66305   0.36064   0.33879   0.01267  Uiso   1.00
Zn3    Zn    0.33220   0.41613   0.46172   0.01267  Uiso   1.00
Zn4    Zn    0.66780   0.58387   0.53828   0.01267  Uiso   1.00
H1     H     0.88820   0.76470   0.31420   0.01267  Uiso   1.00
H2     H     0.98100   0.34180   0.70190   0.01267  Uiso   1.00
H3     H     0.01900   0.65820   0.29810   0.01267  Uiso   1.00
H4     H     0.80170   0.56430   0.75230   0.01267  Uiso   1.00
H5     H     0.10860   0.15160   0.37790   0.01267  Uiso   1.00
H6     H     0.31760   0.93760   0.12180   0.01267  Uiso   1.00
H7     H     0.19830   0.43570   0.24770   0.01267  Uiso   1.00
H8     H     0.98600   0.14620   0.51840   0.01267  Uiso   1.00
H9     H     0.01400   0.85380   0.48160   0.01267  Uiso   1.00
H10    H     0.63350   0.77010   0.01370   0.01267  Uiso   1.00
H11    H     0.14090   0.86100   0.41800   0.01267  Uiso   1.00
H12    H     0.58770   0.03890   0.59900   0.01267  Uiso   1.00
H13    H     0.50320   0.92830   0.73860   0.01267  Uiso   1.00
H14    H     0.85910   0.13900   0.58200   0.01267  Uiso   1.00
H15    H     0.68240   0.06240   0.87820   0.01267  Uiso   1.00
H16    H     0.41230   0.96110   0.40100   0.01267  Uiso   1.00
H17    H     0.97500   0.68190   0.89770   0.01267  Uiso   1.00
H18    H     0.49680   0.07170   0.26140   0.01267  Uiso   1.00
H19    H     0.45410   0.64160   0.87280   0.01267  Uiso   1.00
H20    H     0.92390   0.02920   0.23310   0.01267  Uiso   1.00
H21    H     0.54590   0.35840   0.12720   0.01267  Uiso   1.00
H22    H     0.02500   0.31810   0.10230   0.01267  Uiso   1.00
H23    H     0.07610   0.97080   0.76690   0.01267  Uiso   1.00
H24    H     0.59770   0.99880   0.43260   0.01267  Uiso   1.00
H25    H     0.89140   0.84840   0.62210   0.01267  Uiso   1.00
H26    H     0.36650   0.22990   0.98630   0.01267  Uiso   1.00
H27    H     0.40230   0.00120   0.56740   0.01267  Uiso   1.00
H28    H     0.11180   0.23530   0.68580   0.01267  Uiso   1.00
C1     C     0.07450   0.79760   0.43780   0.01267  Uiso   1.00
C2     C     0.14380   0.35190   0.24480   0.01267  Uiso   1.00
C3     C     0.98050   0.11120   0.23460   0.01267  Uiso   1.00
C4     C     0.52990   0.89460   0.79450   0.01267  Uiso   1.00
C5     C     0.63710   0.97620   0.87840   0.01267  Uiso   1.00
C6     C     0.95770   0.16040   0.15280   0.01267  Uiso   1.00
C7     C     0.39180   0.19540   0.04190   0.01267  Uiso   1.00
C8     C     0.92550   0.20240   0.56220   0.01267  Uiso   1.00
C9     C     0.60820   0.80460   0.95810   0.01267  Uiso   1.00
C10    C     0.82030   0.28950   0.50710   0.01267  Uiso   1.00
C11    C     0.01950   0.88880   0.76540   0.01267  Uiso   1.00
C12    C     0.50830   0.95700   0.45010   0.01267  Uiso   1.00
C13    C     0.67450   0.92880   0.96040   0.01267  Uiso   1.00
C14    C     0.95860   0.70560   0.34540   0.01267  Uiso   1.00
C15    C     0.53470   0.80420   0.44380   0.01267  Uiso   1.00
C16    C     0.04230   0.83960   0.84720   0.01267  Uiso   1.00
C17    C     0.90870   0.81380   0.67780   0.01267  Uiso   1.00
C18    C     0.36290   0.02380   0.12160   0.01267  Uiso   1.00
C19    C     0.46530   0.19580   0.55620   0.01267  Uiso   1.00
C20    C     0.85620   0.64810   0.75520   0.01267  Uiso   1.00
C21    C     0.14100   0.40190   0.63000   0.01267  Uiso   1.00
C22    C     0.50140   0.72710   0.87280   0.01267  Uiso   1.00
C23    C     0.03960   0.28240   0.15750   0.01267  Uiso   1.00
C24    C     0.96040   0.71760   0.84250   0.01267  Uiso   1.00
C25    C     0.49860   0.27290   0.12720   0.01267  Uiso   1.00
C26    C     0.04140   0.29440   0.65460   0.01267  Uiso   1.00
C27    C     0.32550   0.07120   0.03960   0.01267  Uiso   1.00
C28    C     0.09130   0.18620   0.32220   0.01267  Uiso   1.00
C29    C     0.85900   0.59810   0.37000   0.01267  Uiso   1.00
C30    C     0.49170   0.04300   0.54990   0.01267  Uiso   1.00
C31    C     0.17970   0.71050   0.49290   0.01267  Uiso   1.00
C32    C     0.47010   0.10540   0.20550   0.01267  Uiso   1.00
N1     N     0.17090   0.30460   0.32640   0.01267  Uiso   1.00
N2     N     0.84770   0.09600   0.05420   0.01267  Uiso   1.00
N3     N     0.21190   0.00310   0.94040   0.01267  Uiso   1.00
N4     N     0.46470   0.77100   0.79120   0.01267  Uiso   1.00
N5     N     0.53530   0.22900   0.20880   0.01267  Uiso   1.00
N6     N     0.82910   0.69540   0.67360   0.01267  Uiso   1.00
N7     N     0.78810   0.99690   0.05960   0.01267  Uiso   1.00
N8     N     0.15230   0.90400   0.94580   0.01267  Uiso   1.00
O1     O     0.50580   0.71910   0.35930   0.01267  Uiso   1.00
O2     O     0.49420   0.28090   0.64070   0.01267  Uiso   1.00
O3     O     0.84550   0.61550   0.45600   0.01267  Uiso   1.00
O4     O     0.15450   0.38450   0.54400   0.01267  Uiso   1.00
O5     O     0.77670   0.24130   0.41320   0.01267  Uiso   1.00
O6     O     0.58490   0.77280   0.52430   0.01267  Uiso   1.00
O7     O     0.51170   0.47090   0.40060   0.01267  Uiso   1.00
O8     O     0.79320   0.49190   0.29770   0.01267  Uiso   1.00
O9     O     0.21810   0.59870   0.44360   0.01267  Uiso   1.00
O10    O     0.78190   0.40130   0.55640   0.01267  Uiso   1.00
O11    O     0.41510   0.22720   0.47570   0.01267  Uiso   1.00
O12    O     0.48830   0.52910   0.59940   0.01267  Uiso   1.00
O13    O     0.20680   0.50810   0.70230   0.01267  Uiso   1.00
O14    O     0.22330   0.75870   0.58680   0.01267  Uiso   1.00
