data_image0
_cell_length_a       19.1786
_cell_length_b       19.1786
_cell_length_c       27.926
_cell_angle_alpha    90
_cell_angle_beta     90
_cell_angle_gamma    120

_symmetry_space_group_name_H-M    "P 1"
_symmetry_int_tables_number       1

loop_
  _symmetry_equiv_pos_as_xyz
  'x, y, z'

loop_
  _atom_site_label
  _atom_site_occupancy
  _atom_site_fract_x
  _atom_site_fract_y
  _atom_site_fract_z
  _atom_site_thermal_displace_type
  _atom_site_B_iso_or_equiv
  _atom_site_type_symbol
  C1       1.0000 0.29510  0.78180  0.68390  Biso   1.000  C
  C2       1.0000 0.28020  0.82650  0.64420  Biso   1.000  C
  C3       1.0000 0.25180  0.90900  0.57130  Biso   1.000  C
  C4       1.0000 0.32800  0.93740  0.58950  Biso   1.000  C
  H1       1.0000 0.37070  0.98460  0.57730  Biso   1.000  H
  C5       1.0000 0.20630  0.79790  0.62530  Biso   1.000  C
  H2       1.0000 0.16440  0.74920  0.63640  Biso   1.000  H
  C6       1.0000 0.19070  0.83800  0.59020  Biso   1.000  C
  H3       1.0000 0.13840  0.81730  0.57890  Biso   1.000  H
  C7       1.0000 0.34210  0.89660  0.62600  Biso   1.000  C
  H4       1.0000 0.39390  0.91710  0.63810  Biso   1.000  H
  O1       1.0000 0.36590  0.81260  0.69829  Biso   1.000  O
  O2       1.0000 0.23560  0.71960  0.69866  Biso   1.000  O
  C8       1.0000 0.23660  0.95500  0.53420  Biso   1.000  C
  C9       1.0000 0.16430  0.95410  0.53310  Biso   1.000  C
  H5       1.0000 0.12420  0.92240  0.55490  Biso   1.000  H
  C10      1.0000 0.21820  0.51330  0.68390  Biso   1.000  C
  C11      1.0000 0.17350  0.45370  0.64420  Biso   1.000  C
  C12      1.0000 0.09100  0.34280  0.57130  Biso   1.000  C
  C13      1.0000 0.06260  0.39060  0.58950  Biso   1.000  C
  H6       1.0000 0.01540  0.38610  0.57730  Biso   1.000  H
  C14      1.0000 0.20210  0.40840  0.62530  Biso   1.000  C
  H7       1.0000 0.25080  0.41520  0.63640  Biso   1.000  H
  C15      1.0000 0.16200  0.35270  0.59020  Biso   1.000  C
  H8       1.0000 0.18270  0.32110  0.57890  Biso   1.000  H
  C16      1.0000 0.10340  0.44550  0.62600  Biso   1.000  C
  H9       1.0000 0.08290  0.47680  0.63810  Biso   1.000  H
  O3       1.0000 0.18740  0.55330  0.69829  Biso   1.000  O
  O4       1.0000 0.28040  0.51600  0.69866  Biso   1.000  O
  C17      1.0000 0.04500  0.28160  0.53420  Biso   1.000  C
  C18      1.0000 0.04590  0.21020  0.53310  Biso   1.000  C
  H10      1.0000 0.07760  0.20180  0.55490  Biso   1.000  H
  C19      1.0000 0.48670  0.70490  0.68390  Biso   1.000  C
  C20      1.0000 0.54630  0.71980  0.64420  Biso   1.000  C
  C21      1.0000 0.65720  0.74820  0.57130  Biso   1.000  C
  C22      1.0000 0.60940  0.67200  0.58950  Biso   1.000  C
  H11      1.0000 0.61390  0.62930  0.57730  Biso   1.000  H
  C23      1.0000 0.59160  0.79370  0.62530  Biso   1.000  C
  H12      1.0000 0.58480  0.83560  0.63640  Biso   1.000  H
  C24      1.0000 0.64730  0.80930  0.59020  Biso   1.000  C
  H13      1.0000 0.67890  0.86160  0.57890  Biso   1.000  H
  C25      1.0000 0.55450  0.65790  0.62600  Biso   1.000  C
  H14      1.0000 0.52320  0.60610  0.63810  Biso   1.000  H
  O5       1.0000 0.44670  0.63410  0.69829  Biso   1.000  O
  O6       1.0000 0.48400  0.76440  0.69866  Biso   1.000  O
  C26      1.0000 0.71840  0.76340  0.53420  Biso   1.000  C
  C27      1.0000 0.78980  0.83570  0.53310  Biso   1.000  C
  H15      1.0000 0.79820  0.87580  0.55490  Biso   1.000  H
  C28      1.0000 0.29510  0.78180  0.81610  Biso   1.000  C
  C29      1.0000 0.28020  0.82650  0.85580  Biso   1.000  C
  C30      1.0000 0.25180  0.90900  0.92870  Biso   1.000  C
  C31      1.0000 0.32800  0.93740  0.91050  Biso   1.000  C
  H16      1.0000 0.37070  0.98460  0.92270  Biso   1.000  H
  C32      1.0000 0.20630  0.79790  0.87470  Biso   1.000  C
  H17      1.0000 0.16440  0.74920  0.86360  Biso   1.000  H
  C33      1.0000 0.19070  0.83800  0.90980  Biso   1.000  C
  H18      1.0000 0.13840  0.81730  0.92110  Biso   1.000  H
  C34      1.0000 0.34210  0.89660  0.87400  Biso   1.000  C
  H19      1.0000 0.39390  0.91710  0.86190  Biso   1.000  H
  O7       1.0000 0.36590  0.81260  0.80171  Biso   1.000  O
  O8       1.0000 0.23560  0.71960  0.80134  Biso   1.000  O
  C35      1.0000 0.23660  0.95500  0.96580  Biso   1.000  C
  C36      1.0000 0.16430  0.95410  0.96690  Biso   1.000  C
  H20      1.0000 0.12420  0.92240  0.94510  Biso   1.000  H
  C37      1.0000 0.21820  0.51330  0.81610  Biso   1.000  C
  C38      1.0000 0.17350  0.45370  0.85580  Biso   1.000  C
  C39      1.0000 0.09100  0.34280  0.92870  Biso   1.000  C
  C40      1.0000 0.06260  0.39060  0.91050  Biso   1.000  C
  H21      1.0000 0.01540  0.38610  0.92270  Biso   1.000  H
  C41      1.0000 0.20210  0.40840  0.87470  Biso   1.000  C
  H22      1.0000 0.25080  0.41520  0.86360  Biso   1.000  H
  C42      1.0000 0.16200  0.35270  0.90980  Biso   1.000  C
  H23      1.0000 0.18270  0.32110  0.92110  Biso   1.000  H
  C43      1.0000 0.10340  0.44550  0.87400  Biso   1.000  C
  H24      1.0000 0.08290  0.47680  0.86190  Biso   1.000  H
  O9       1.0000 0.18740  0.55330  0.80171  Biso   1.000  O
  O10      1.0000 0.28040  0.51600  0.80134  Biso   1.000  O
  C44      1.0000 0.04500  0.28160  0.96580  Biso   1.000  C
  C45      1.0000 0.04590  0.21020  0.96690  Biso   1.000  C
  H25      1.0000 0.07760  0.20180  0.94510  Biso   1.000  H
  C46      1.0000 0.48670  0.70490  0.81610  Biso   1.000  C
  C47      1.0000 0.54630  0.71980  0.85580  Biso   1.000  C
  C48      1.0000 0.65720  0.74820  0.92870  Biso   1.000  C
  C49      1.0000 0.60940  0.67200  0.91050  Biso   1.000  C
  H26      1.0000 0.61390  0.62930  0.92270  Biso   1.000  H
  C50      1.0000 0.59160  0.79370  0.87470  Biso   1.000  C
  H27      1.0000 0.58480  0.83560  0.86360  Biso   1.000  H
  C51      1.0000 0.64730  0.80930  0.90980  Biso   1.000  C
  H28      1.0000 0.67890  0.86160  0.92110  Biso   1.000  H
  C52      1.0000 0.55450  0.65790  0.87400  Biso   1.000  C
  H29      1.0000 0.52320  0.60610  0.86190  Biso   1.000  H
  O11      1.0000 0.44670  0.63410  0.80171  Biso   1.000  O
  O12      1.0000 0.48400  0.76440  0.80134  Biso   1.000  O
  C53      1.0000 0.71840  0.76340  0.96580  Biso   1.000  C
  C54      1.0000 0.78980  0.83570  0.96690  Biso   1.000  C
  H30      1.0000 0.79820  0.87580  0.94510  Biso   1.000  H
  C55      1.0000 0.78180  0.29510  0.31610  Biso   1.000  C
  C56      1.0000 0.82650  0.28020  0.35580  Biso   1.000  C
  C57      1.0000 0.90900  0.25180  0.42870  Biso   1.000  C
  C58      1.0000 0.93740  0.32800  0.41050  Biso   1.000  C
  H31      1.0000 0.98460  0.37070  0.42270  Biso   1.000  H
  C59      1.0000 0.79790  0.20630  0.37470  Biso   1.000  C
  H32      1.0000 0.74920  0.16440  0.36360  Biso   1.000  H
  C60      1.0000 0.83800  0.19070  0.40980  Biso   1.000  C
  H33      1.0000 0.81730  0.13840  0.42110  Biso   1.000  H
  C61      1.0000 0.89660  0.34210  0.37400  Biso   1.000  C
  H34      1.0000 0.91710  0.39390  0.36190  Biso   1.000  H
  O13      1.0000 0.81260  0.36590  0.30171  Biso   1.000  O
  O14      1.0000 0.71960  0.23560  0.30134  Biso   1.000  O
  C62      1.0000 0.95500  0.23660  0.46580  Biso   1.000  C
  C63      1.0000 0.95410  0.16430  0.46690  Biso   1.000  C
  H35      1.0000 0.92240  0.12420  0.44510  Biso   1.000  H
  C64      1.0000 0.51330  0.21820  0.31610  Biso   1.000  C
  C65      1.0000 0.45370  0.17350  0.35580  Biso   1.000  C
  C66      1.0000 0.34280  0.09100  0.42870  Biso   1.000  C
  C67      1.0000 0.39060  0.06260  0.41050  Biso   1.000  C
  H36      1.0000 0.38610  0.01540  0.42270  Biso   1.000  H
  C68      1.0000 0.40840  0.20210  0.37470  Biso   1.000  C
  H37      1.0000 0.41520  0.25080  0.36360  Biso   1.000  H
  C69      1.0000 0.35270  0.16200  0.40980  Biso   1.000  C
  H38      1.0000 0.32110  0.18270  0.42110  Biso   1.000  H
  C70      1.0000 0.44550  0.10340  0.37400  Biso   1.000  C
  H39      1.0000 0.47680  0.08290  0.36190  Biso   1.000  H
  O15      1.0000 0.55330  0.18740  0.30171  Biso   1.000  O
  O16      1.0000 0.51600  0.28040  0.30134  Biso   1.000  O
  C71      1.0000 0.28160  0.04500  0.46580  Biso   1.000  C
  C72      1.0000 0.21020  0.04590  0.46690  Biso   1.000  C
  H40      1.0000 0.20180  0.07760  0.44510  Biso   1.000  H
  C73      1.0000 0.70490  0.48670  0.31610  Biso   1.000  C
  C74      1.0000 0.71980  0.54630  0.35580  Biso   1.000  C
  C75      1.0000 0.74820  0.65720  0.42870  Biso   1.000  C
  C76      1.0000 0.67200  0.60940  0.41050  Biso   1.000  C
  H41      1.0000 0.62930  0.61390  0.42270  Biso   1.000  H
  C77      1.0000 0.79370  0.59160  0.37470  Biso   1.000  C
  H42      1.0000 0.83560  0.58480  0.36360  Biso   1.000  H
  C78      1.0000 0.80930  0.64730  0.40980  Biso   1.000  C
  H43      1.0000 0.86160  0.67890  0.42110  Biso   1.000  H
  C79      1.0000 0.65790  0.55450  0.37400  Biso   1.000  C
  H44      1.0000 0.60610  0.52320  0.36190  Biso   1.000  H
  O17      1.0000 0.63410  0.44670  0.30171  Biso   1.000  O
  O18      1.0000 0.76440  0.48400  0.30134  Biso   1.000  O
  C80      1.0000 0.76340  0.71840  0.46580  Biso   1.000  C
  C81      1.0000 0.83570  0.78980  0.46690  Biso   1.000  C
  H45      1.0000 0.87580  0.79820  0.44510  Biso   1.000  H
  C82      1.0000 0.78180  0.29510  0.18390  Biso   1.000  C
  C83      1.0000 0.82650  0.28020  0.14420  Biso   1.000  C
  C84      1.0000 0.90900  0.25180  0.07130  Biso   1.000  C
  C85      1.0000 0.93740  0.32800  0.08950  Biso   1.000  C
  H46      1.0000 0.98460  0.37070  0.07730  Biso   1.000  H
  C86      1.0000 0.79790  0.20630  0.12530  Biso   1.000  C
  H47      1.0000 0.74920  0.16440  0.13640  Biso   1.000  H
  C87      1.0000 0.83800  0.19070  0.09020  Biso   1.000  C
  H48      1.0000 0.81730  0.13840  0.07890  Biso   1.000  H
  C88      1.0000 0.89660  0.34210  0.12600  Biso   1.000  C
  H49      1.0000 0.91710  0.39390  0.13810  Biso   1.000  H
  O19      1.0000 0.81260  0.36590  0.19829  Biso   1.000  O
  O20      1.0000 0.71960  0.23560  0.19866  Biso   1.000  O
  C89      1.0000 0.95500  0.23660  0.03420  Biso   1.000  C
  C90      1.0000 0.95410  0.16430  0.03310  Biso   1.000  C
  H50      1.0000 0.92240  0.12420  0.05490  Biso   1.000  H
  C91      1.0000 0.51330  0.21820  0.18390  Biso   1.000  C
  C92      1.0000 0.45370  0.17350  0.14420  Biso   1.000  C
  C93      1.0000 0.34280  0.09100  0.07130  Biso   1.000  C
  C94      1.0000 0.39060  0.06260  0.08950  Biso   1.000  C
  H51      1.0000 0.38610  0.01540  0.07730  Biso   1.000  H
  C95      1.0000 0.40840  0.20210  0.12530  Biso   1.000  C
  H52      1.0000 0.41520  0.25080  0.13640  Biso   1.000  H
  C96      1.0000 0.35270  0.16200  0.09020  Biso   1.000  C
  H53      1.0000 0.32110  0.18270  0.07890  Biso   1.000  H
  C97      1.0000 0.44550  0.10340  0.12600  Biso   1.000  C
  H54      1.0000 0.47680  0.08290  0.13810  Biso   1.000  H
  O21      1.0000 0.55330  0.18740  0.19829  Biso   1.000  O
  O22      1.0000 0.51600  0.28040  0.19866  Biso   1.000  O
  C98      1.0000 0.28160  0.04500  0.03420  Biso   1.000  C
  C99      1.0000 0.21020  0.04590  0.03310  Biso   1.000  C
  H55      1.0000 0.20180  0.07760  0.05490  Biso   1.000  H
  C100     1.0000 0.70490  0.48670  0.18390  Biso   1.000  C
  C101     1.0000 0.71980  0.54630  0.14420  Biso   1.000  C
  C102     1.0000 0.74820  0.65720  0.07130  Biso   1.000  C
  C103     1.0000 0.67200  0.60940  0.08950  Biso   1.000  C
  H56      1.0000 0.62930  0.61390  0.07730  Biso   1.000  H
  C104     1.0000 0.79370  0.59160  0.12530  Biso   1.000  C
  H57      1.0000 0.83560  0.58480  0.13640  Biso   1.000  H
  C105     1.0000 0.80930  0.64730  0.09020  Biso   1.000  C
  H58      1.0000 0.86160  0.67890  0.07890  Biso   1.000  H
  C106     1.0000 0.65790  0.55450  0.12600  Biso   1.000  C
  H59      1.0000 0.60610  0.52320  0.13810  Biso   1.000  H
  O23      1.0000 0.63410  0.44670  0.19829  Biso   1.000  O
  O24      1.0000 0.76440  0.48400  0.19866  Biso   1.000  O
  C107     1.0000 0.76340  0.71840  0.03420  Biso   1.000  C
  C108     1.0000 0.83570  0.78980  0.03310  Biso   1.000  C
  H60      1.0000 0.87580  0.79820  0.05490  Biso   1.000  H
  Ni1      1.0000 0.41929  0.78102  0.75000  Biso   1.000  Ni
  Ni2      1.0000 0.21898  0.63827  0.75000  Biso   1.000  Ni
  Ni3      1.0000 0.36173  0.58071  0.75000  Biso   1.000  Ni
  Ni4      1.0000 0.78102  0.41929  0.25000  Biso   1.000  Ni
  Ni5      1.0000 0.63827  0.21898  0.25000  Biso   1.000  Ni
  Ni6      1.0000 0.58071  0.36173  0.25000  Biso   1.000  Ni
  O25      1.0000 0.33333  0.66667  0.75000  Biso   1.000  O
  O26      1.0000 0.66667  0.33333  0.25000  Biso   1.000  O
  C109     1.0000 0.07080  0.00000  0.50000  Biso   1.000  C
  C110     1.0000 0.15060  0.00000  0.50000  Biso   1.000  C
  C111     1.0000 0.29320  0.00000  0.50000  Biso   1.000  C
  H61      1.0000 0.34170  0.00000  0.50000  Biso   1.000  H
  C112     1.0000 0.00000  0.07080  0.50000  Biso   1.000  C
  C113     1.0000 0.00000  0.15060  0.50000  Biso   1.000  C
  C114     1.0000 0.00000  0.29320  0.50000  Biso   1.000  C
  H62      1.0000 0.00000  0.34170  0.50000  Biso   1.000  H
  C115     1.0000 0.92920  0.92920  0.50000  Biso   1.000  C
  C116     1.0000 0.84940  0.84940  0.50000  Biso   1.000  C
  C117     1.0000 0.70680  0.70680  0.50000  Biso   1.000  C
  H63      1.0000 0.65830  0.65830  0.50000  Biso   1.000  H
  C118     1.0000 0.07080  0.00000  0.00000  Biso   1.000  C
  C119     1.0000 0.15060  0.00000  0.00000  Biso   1.000  C
  C120     1.0000 0.29320  0.00000  0.00000  Biso   1.000  C
  H64      1.0000 0.34170  0.00000  0.00000  Biso   1.000  H
  C121     1.0000 0.00000  0.07080  0.00000  Biso   1.000  C
  C122     1.0000 0.00000  0.15060  0.00000  Biso   1.000  C
  C123     1.0000 0.00000  0.29320  0.00000  Biso   1.000  C
  H65      1.0000 0.00000  0.34170  0.00000  Biso   1.000  H
  C124     1.0000 0.92920  0.92920  0.00000  Biso   1.000  C
  C125     1.0000 0.84940  0.84940  0.00000  Biso   1.000  C
  C126     1.0000 0.70680  0.70680  0.00000  Biso   1.000  C
  H66      1.0000 0.65830  0.65830  0.00000  Biso   1.000  H
  C127     1.0000 0.00000  0.92760  0.50000  Biso   1.000  C
  H67      1.0000 0.00000  0.87910  0.50000  Biso   1.000  H
  C128     1.0000 0.07240  0.07240  0.50000  Biso   1.000  C
  H68      1.0000 0.12090  0.12090  0.50000  Biso   1.000  H
  C129     1.0000 0.92760  0.00000  0.50000  Biso   1.000  C
  H69      1.0000 0.87910  0.00000  0.50000  Biso   1.000  H
  C130     1.0000 0.00000  0.92760  0.00000  Biso   1.000  C
  H70      1.0000 0.00000  0.87910  0.00000  Biso   1.000  H
  C131     1.0000 0.07240  0.07240  0.00000  Biso   1.000  C
  H71      1.0000 0.12090  0.12090  0.00000  Biso   1.000  H
  C132     1.0000 0.92760  0.00000  0.00000  Biso   1.000  C
  H72      1.0000 0.87910  0.00000  0.00000  Biso   1.000  H
