data_image0
_cell_length_a       10.8001
_cell_length_b       11.6288
_cell_length_c       25.3183
_cell_angle_alpha    89.094
_cell_angle_beta     87.425
_cell_angle_gamma    78.44

_symmetry_space_group_name_H-M    "P 1"
_symmetry_int_tables_number       1

loop_
  _symmetry_equiv_pos_as_xyz
  'x, y, z'

loop_
  _atom_site_label
  _atom_site_occupancy
  _atom_site_fract_x
  _atom_site_fract_y
  _atom_site_fract_z
  _atom_site_thermal_displace_type
  _atom_site_B_iso_or_equiv
  _atom_site_type_symbol
  Ag1      1.0000 0.74095  0.06095  0.00639  Biso   1.000  Ag
  Ag2      1.0000 0.49776  0.05057  0.10954  Biso   1.000  Ag
  Ag3      1.0000 0.48760  0.02851  0.01078  Biso   1.000  Ag
  Ag4      1.0000 0.52754  0.19291  0.93139  Biso   1.000  Ag
  Ag5      1.0000 0.58117  0.28413  0.03260  Biso   1.000  Ag
  Ag6      1.0000 0.62310  0.42934  0.93438  Biso   1.000  Ag
  Ag7      1.0000 0.59421  0.42486  0.57389  Biso   1.000  Ag
  Ag8      1.0000 0.50041  0.19189  0.56557  Biso   1.000  Ag
  Ag9      1.0000 0.59570  0.29161  0.47084  Biso   1.000  Ag
  Ag10     1.0000 0.73828  0.06418  0.49852  Biso   1.000  Ag
  Ag11     1.0000 0.48082  0.04717  0.47810  Biso   1.000  Ag
  Ag12     1.0000 0.47822  0.93093  0.57658  Biso   1.000  Ag
  Ag13     1.0000 0.44760  0.95390  0.63393  Biso   1.000  Ag
  Ag14     1.0000 0.02278  0.33082  0.74956  Biso   1.000  Ag
  C1       1.0000 0.93250  0.28560  0.86210  Biso   1.000  C
  H1       1.0000 0.85720  0.32010  0.84680  Biso   1.000  H
  C2       1.0000 0.92640  0.24370  0.91350  Biso   1.000  C
  C3       1.0000 0.03660  0.19080  0.93670  Biso   1.000  C
  H2       1.0000 0.03560  0.16340  0.97140  Biso   1.000  H
  C4       1.0000 0.15040  0.17940  0.90640  Biso   1.000  C
  C5       1.0000 0.14770  0.22630  0.85570  Biso   1.000  C
  H3       1.0000 0.22380  0.22080  0.83630  Biso   1.000  H
  C6       1.0000 0.80480  0.25100  0.94090  Biso   1.000  C
  C7       1.0000 0.70530  0.24120  0.96350  Biso   1.000  C
  C8       1.0000 0.73010  0.87800  0.07230  Biso   1.000  C
  C9       1.0000 0.62900  0.92560  0.05720  Biso   1.000  C
  C10      1.0000 0.12390  0.22050  0.64200  Biso   1.000  C
  H4       1.0000 0.19960  0.21480  0.65890  Biso   1.000  H
  C11      1.0000 0.12740  0.17490  0.59190  Biso   1.000  C
  C12      1.0000 0.01470  0.18470  0.56640  Biso   1.000  C
  H5       1.0000 0.01410  0.15710  0.53210  Biso   1.000  H
  C13      1.0000 0.90260  0.23690  0.59320  Biso   1.000  C
  C14      1.0000 0.90790  0.27980  0.64340  Biso   1.000  C
  H6       1.0000 0.83300  0.31510  0.66110  Biso   1.000  H
  C15      1.0000 0.78420  0.24340  0.56880  Biso   1.000  C
  C16      1.0000 0.68800  0.23930  0.54570  Biso   1.000  C
  C17      1.0000 0.24710  0.11680  0.56890  Biso   1.000  C
  C18      1.0000 0.35320  0.06850  0.55380  Biso   1.000  C
  C19      1.0000 0.30820  0.45130  0.56470  Biso   1.000  C
  C20      1.0000 0.16910  0.51580  0.56600  Biso   1.000  C
  C21      1.0000 0.66260  0.54830  0.07550  Biso   1.000  C
  C22      1.0000 0.79710  0.48500  0.08040  Biso   1.000  C
  C23      1.0000 0.33370  0.30370  0.42070  Biso   1.000  C
  C24      1.0000 0.20280  0.37030  0.40460  Biso   1.000  C
  F1       1.0000 0.13860  0.54260  0.61650  Biso   1.000  F
  F2       1.0000 0.09130  0.45350  0.55940  Biso   1.000  F
  F3       1.0000 0.14500  0.61150  0.54260  Biso   1.000  F
  F4       1.0000 0.87810  0.54610  0.07220  Biso   1.000  F
  F5       1.0000 0.83220  0.38910  0.05590  Biso   1.000  F
  F6       1.0000 0.81770  0.45580  0.13170  Biso   1.000  F
  F7       1.0000 0.20240  0.36900  0.35330  Biso   1.000  F
  F8       1.0000 0.11180  0.32240  0.42090  Biso   1.000  F
  F9       1.0000 0.17720  0.47550  0.41820  Biso   1.000  F
  N1       1.0000 0.04020  0.27940  0.83320  Biso   1.000  N
  N2       1.0000 0.01720  0.27240  0.66730  Biso   1.000  N
  O1       1.0000 0.32480  0.34990  0.57550  Biso   1.000  O
  O2       1.0000 0.38880  0.50950  0.55290  Biso   1.000  O
  O3       1.0000 0.59210  0.49020  0.05610  Biso   1.000  O
  O4       1.0000 0.36370  0.35120  0.90790  Biso   1.000  O
  O5       1.0000 0.34280  0.19490  0.42250  Biso   1.000  O
  O6       1.0000 0.58930  0.63640  0.56890  Biso   1.000  O
  Ag15     1.0000 0.25905  0.93905  0.99361  Biso   1.000  Ag
  Ag16     1.0000 0.50224  0.94943  0.89046  Biso   1.000  Ag
  Ag17     1.0000 0.51240  0.97149  0.98922  Biso   1.000  Ag
  Ag18     1.0000 0.47246  0.80709  0.06861  Biso   1.000  Ag
  Ag19     1.0000 0.41883  0.71587  0.96740  Biso   1.000  Ag
  Ag20     1.0000 0.37690  0.57066  0.06562  Biso   1.000  Ag
  Ag21     1.0000 0.40579  0.57514  0.42611  Biso   1.000  Ag
  Ag22     1.0000 0.49959  0.80811  0.43443  Biso   1.000  Ag
  Ag23     1.0000 0.40430  0.70839  0.52916  Biso   1.000  Ag
  Ag24     1.0000 0.26172  0.93582  0.50148  Biso   1.000  Ag
  Ag25     1.0000 0.51918  0.95283  0.52190  Biso   1.000  Ag
  Ag26     1.0000 0.52178  0.06907  0.42342  Biso   1.000  Ag
  Ag27     1.0000 0.55240  0.04610  0.36607  Biso   1.000  Ag
  Ag28     1.0000 0.97722  0.66918  0.25044  Biso   1.000  Ag
  C25      1.0000 0.06750  0.71440  0.13790  Biso   1.000  C
  H7       1.0000 0.14280  0.67990  0.15320  Biso   1.000  H
  C26      1.0000 0.07360  0.75630  0.08650  Biso   1.000  C
  C27      1.0000 0.96340  0.80920  0.06330  Biso   1.000  C
  H8       1.0000 0.96440  0.83660  0.02860  Biso   1.000  H
  C28      1.0000 0.84960  0.82060  0.09360  Biso   1.000  C
  C29      1.0000 0.85230  0.77370  0.14430  Biso   1.000  C
  H9       1.0000 0.77620  0.77920  0.16370  Biso   1.000  H
  C30      1.0000 0.19520  0.74900  0.05910  Biso   1.000  C
  C31      1.0000 0.29470  0.75880  0.03650  Biso   1.000  C
  C32      1.0000 0.26990  0.12200  0.92770  Biso   1.000  C
  C33      1.0000 0.37100  0.07440  0.94280  Biso   1.000  C
  C34      1.0000 0.87610  0.77950  0.35800  Biso   1.000  C
  H10      1.0000 0.80040  0.78520  0.34110  Biso   1.000  H
  C35      1.0000 0.87260  0.82510  0.40810  Biso   1.000  C
  C36      1.0000 0.98530  0.81530  0.43360  Biso   1.000  C
  H11      1.0000 0.98590  0.84290  0.46790  Biso   1.000  H
  C37      1.0000 0.09740  0.76310  0.40680  Biso   1.000  C
  C38      1.0000 0.09210  0.72020  0.35660  Biso   1.000  C
  H12      1.0000 0.16700  0.68490  0.33890  Biso   1.000  H
  C39      1.0000 0.21580  0.75660  0.43120  Biso   1.000  C
  C40      1.0000 0.31200  0.76070  0.45430  Biso   1.000  C
  C41      1.0000 0.75290  0.88320  0.43110  Biso   1.000  C
  C42      1.0000 0.64680  0.93150  0.44620  Biso   1.000  C
  C43      1.0000 0.69180  0.54870  0.43530  Biso   1.000  C
  C44      1.0000 0.83090  0.48420  0.43400  Biso   1.000  C
  C45      1.0000 0.33740  0.45170  0.92450  Biso   1.000  C
  C46      1.0000 0.20290  0.51500  0.91960  Biso   1.000  C
  C47      1.0000 0.66630  0.69630  0.57930  Biso   1.000  C
  C48      1.0000 0.79720  0.62970  0.59540  Biso   1.000  C
  F10      1.0000 0.86140  0.45740  0.38350  Biso   1.000  F
  F11      1.0000 0.90870  0.54650  0.44060  Biso   1.000  F
  F12      1.0000 0.85500  0.38850  0.45740  Biso   1.000  F
  F13      1.0000 0.12190  0.45390  0.92780  Biso   1.000  F
  F14      1.0000 0.16780  0.61090  0.94410  Biso   1.000  F
  F15      1.0000 0.18230  0.54420  0.86830  Biso   1.000  F
  F16      1.0000 0.79760  0.63100  0.64670  Biso   1.000  F
  F17      1.0000 0.88820  0.67760  0.57910  Biso   1.000  F
  F18      1.0000 0.82280  0.52450  0.58180  Biso   1.000  F
  N3       1.0000 0.95980  0.72060  0.16680  Biso   1.000  N
  N4       1.0000 0.98280  0.72760  0.33270  Biso   1.000  N
  O7       1.0000 0.67520  0.65010  0.42450  Biso   1.000  O
  O8       1.0000 0.61120  0.49050  0.44710  Biso   1.000  O
  O9       1.0000 0.40790  0.50980  0.94390  Biso   1.000  O
  O10      1.0000 0.63630  0.64880  0.09210  Biso   1.000  O
  O11      1.0000 0.65720  0.80510  0.57750  Biso   1.000  O
  O12      1.0000 0.41070  0.36360  0.43110  Biso   1.000  O
