data_MIZKOW_clean
_audit_creation_date              2014-07-02
_audit_creation_method            'Materials Studio'
_symmetry_space_group_name_H-M    'P1'
_symmetry_Int_Tables_number       1
_symmetry_cell_setting            triclinic
loop_
_symmetry_equiv_pos_as_xyz
  x,y,z
_cell_length_a                    9.3825
_cell_length_b                    9.6773
_cell_length_c                    21.6939
_cell_angle_alpha                 90.0000
_cell_angle_beta                  90.0000
_cell_angle_gamma                 115.3120
loop_
_atom_site_label
_atom_site_type_symbol
_atom_site_fract_x
_atom_site_fract_y
_atom_site_fract_z
_atom_site_U_iso_or_equiv
_atom_site_adp_type
_atom_site_occupancy
La1    La    0.12205   0.36168   0.99143   0.01267  Uiso   1.00
La2    La    0.37795   0.63832   0.49143   0.01267  Uiso   1.00
La3    La    0.87795   0.63832   0.00857   0.01267  Uiso   1.00
La4    La    0.62205   0.36168   0.50857   0.01267  Uiso   1.00
Cu1    Cu    0.45642   0.30874   0.85610   0.01267  Uiso   1.00
Cu2    Cu    0.04358   0.69126   0.35610   0.01267  Uiso   1.00
Cu3    Cu    0.54358   0.69126   0.14390   0.01267  Uiso   1.00
Cu4    Cu    0.95642   0.30874   0.64390   0.01267  Uiso   1.00
H1     H     0.70300   0.20680   0.84650   0.01267  Uiso   1.00
H2     H     0.75590   0.00730   0.87620   0.01267  Uiso   1.00
H3     H     0.56340   0.80290   0.92920   0.01267  Uiso   1.00
H4     H     0.29240   0.02770   0.92740   0.01267  Uiso   1.00
H5     H     0.87800   0.57440   0.65510   0.01267  Uiso   1.00
H6     H     0.84870   0.72130   0.73220   0.01267  Uiso   1.00
H7     H     0.89610   0.67660   0.83410   0.01267  Uiso   1.00
H8     H     0.00230   0.34240   0.77280   0.01267  Uiso   1.00
H9     H     0.79700   0.79320   0.34650   0.01267  Uiso   1.00
H10    H     0.74410   0.99270   0.37620   0.01267  Uiso   1.00
H11    H     0.93660   0.19710   0.42920   0.01267  Uiso   1.00
H12    H     0.20760   0.97230   0.42740   0.01267  Uiso   1.00
H13    H     0.62200   0.42560   0.15510   0.01267  Uiso   1.00
H14    H     0.65130   0.27870   0.23220   0.01267  Uiso   1.00
H15    H     0.60390   0.32340   0.33410   0.01267  Uiso   1.00
H16    H     0.49770   0.65760   0.27280   0.01267  Uiso   1.00
H17    H     0.29700   0.79320   0.15350   0.01267  Uiso   1.00
H18    H     0.24410   0.99270   0.12380   0.01267  Uiso   1.00
H19    H     0.43660   0.19710   0.07080   0.01267  Uiso   1.00
H20    H     0.70760   0.97230   0.07260   0.01267  Uiso   1.00
H21    H     0.12200   0.42560   0.34490   0.01267  Uiso   1.00
H22    H     0.15130   0.27870   0.26780   0.01267  Uiso   1.00
H23    H     0.10390   0.32340   0.16590   0.01267  Uiso   1.00
H24    H     0.99770   0.65760   0.22720   0.01267  Uiso   1.00
H25    H     0.20300   0.20680   0.65350   0.01267  Uiso   1.00
H26    H     0.25590   0.00730   0.62380   0.01267  Uiso   1.00
H27    H     0.06340   0.80290   0.57080   0.01267  Uiso   1.00
H28    H     0.79240   0.02770   0.57260   0.01267  Uiso   1.00
H29    H     0.37800   0.57440   0.84490   0.01267  Uiso   1.00
H30    H     0.34870   0.72130   0.76780   0.01267  Uiso   1.00
H31    H     0.39610   0.67660   0.66590   0.01267  Uiso   1.00
H32    H     0.50230   0.34240   0.72720   0.01267  Uiso   1.00
C1     C     0.62760   0.12790   0.86923   0.01267  Uiso   1.00
C2     C     0.65970   0.00790   0.88600   0.01267  Uiso   1.00
C3     C     0.54590   0.88710   0.91806   0.01267  Uiso   1.00
C4     C     0.40540   0.89380   0.93314   0.01267  Uiso   1.00
C5     C     0.38520   0.02170   0.91604   0.01267  Uiso   1.00
C6     C     0.27590   0.76350   0.96648   0.01267  Uiso   1.00
C7     C     0.89690   0.55530   0.69561   0.01267  Uiso   1.00
C8     C     0.87940   0.64420   0.74160   0.01267  Uiso   1.00
C9     C     0.90800   0.61820   0.80224   0.01267  Uiso   1.00
C10    C     0.95460   0.50310   0.81413   0.01267  Uiso   1.00
C11    C     0.96980   0.41890   0.76481   0.01267  Uiso   1.00
C12    C     0.99250   0.46470   0.87697   0.01267  Uiso   1.00
C13    C     0.50370   0.47680   0.96605   0.01267  Uiso   1.00
C14    C     0.98730   0.99200   0.96426   0.01267  Uiso   1.00
C15    C     0.87240   0.87210   0.36923   0.01267  Uiso   1.00
C16    C     0.84030   0.99210   0.38600   0.01267  Uiso   1.00
C17    C     0.95410   0.11290   0.41806   0.01267  Uiso   1.00
C18    C     0.09460   0.10620   0.43314   0.01267  Uiso   1.00
C19    C     0.11480   0.97830   0.41604   0.01267  Uiso   1.00
C20    C     0.22410   0.23650   0.46648   0.01267  Uiso   1.00
C21    C     0.60310   0.44470   0.19561   0.01267  Uiso   1.00
C22    C     0.62060   0.35580   0.24160   0.01267  Uiso   1.00
C23    C     0.59200   0.38180   0.30224   0.01267  Uiso   1.00
C24    C     0.54540   0.49690   0.31413   0.01267  Uiso   1.00
C25    C     0.53020   0.58110   0.26481   0.01267  Uiso   1.00
C26    C     0.50750   0.53530   0.37697   0.01267  Uiso   1.00
C27    C     0.99630   0.52320   0.46605   0.01267  Uiso   1.00
C28    C     0.51270   0.00800   0.46426   0.01267  Uiso   1.00
C29    C     0.37240   0.87210   0.13077   0.01267  Uiso   1.00
C30    C     0.34030   0.99210   0.11400   0.01267  Uiso   1.00
C31    C     0.45410   0.11290   0.08194   0.01267  Uiso   1.00
C32    C     0.59460   0.10620   0.06686   0.01267  Uiso   1.00
C33    C     0.61480   0.97830   0.08396   0.01267  Uiso   1.00
C34    C     0.72410   0.23650   0.03352   0.01267  Uiso   1.00
C35    C     0.10310   0.44470   0.30439   0.01267  Uiso   1.00
C36    C     0.12060   0.35580   0.25840   0.01267  Uiso   1.00
C37    C     0.09200   0.38180   0.19776   0.01267  Uiso   1.00
C38    C     0.04540   0.49690   0.18587   0.01267  Uiso   1.00
C39    C     0.03020   0.58110   0.23519   0.01267  Uiso   1.00
C40    C     0.00750   0.53530   0.12303   0.01267  Uiso   1.00
C41    C     0.49630   0.52320   0.03395   0.01267  Uiso   1.00
C42    C     0.01270   0.00800   0.03574   0.01267  Uiso   1.00
C43    C     0.12760   0.12790   0.63077   0.01267  Uiso   1.00
C44    C     0.15970   0.00790   0.61400   0.01267  Uiso   1.00
C45    C     0.04590   0.88710   0.58194   0.01267  Uiso   1.00
C46    C     0.90540   0.89380   0.56686   0.01267  Uiso   1.00
C47    C     0.88520   0.02170   0.58396   0.01267  Uiso   1.00
C48    C     0.77590   0.76350   0.53352   0.01267  Uiso   1.00
C49    C     0.39690   0.55530   0.80439   0.01267  Uiso   1.00
C50    C     0.37940   0.64420   0.75840   0.01267  Uiso   1.00
C51    C     0.40800   0.61820   0.69776   0.01267  Uiso   1.00
C52    C     0.45460   0.50310   0.68587   0.01267  Uiso   1.00
C53    C     0.46980   0.41890   0.73519   0.01267  Uiso   1.00
C54    C     0.49250   0.46470   0.62303   0.01267  Uiso   1.00
C55    C     0.00370   0.47680   0.53395   0.01267  Uiso   1.00
C56    C     0.48730   0.99200   0.53574   0.01267  Uiso   1.00
N1     N     0.49330   0.13810   0.88371   0.01267  Uiso   1.00
N2     N     0.93990   0.44240   0.70644   0.01267  Uiso   1.00
N3     N     0.00670   0.86190   0.38371   0.01267  Uiso   1.00
N4     N     0.56010   0.55760   0.20644   0.01267  Uiso   1.00
N5     N     0.50670   0.86190   0.11629   0.01267  Uiso   1.00
N6     N     0.06010   0.55760   0.29356   0.01267  Uiso   1.00
N7     N     0.99330   0.13810   0.61629   0.01267  Uiso   1.00
N8     N     0.43990   0.44240   0.79356   0.01267  Uiso   1.00
O1     O     0.28670   0.63890   0.96719   0.01267  Uiso   1.00
O2     O     0.16750   0.78850   0.98985   0.01267  Uiso   1.00
O3     O     0.06260   0.38080   0.88014   0.01267  Uiso   1.00
O4     O     0.95410   0.51790   0.92365   0.01267  Uiso   1.00
O5     O     0.37610   0.38180   0.94288   0.01267  Uiso   1.00
O6     O     0.63410   0.53550   0.93961   0.01267  Uiso   1.00
O7     O     0.05090   0.11270   0.93386   0.01267  Uiso   1.00
O8     O     0.90670   0.86080   0.94338   0.01267  Uiso   1.00
O9     O     0.21330   0.36110   0.46719   0.01267  Uiso   1.00
O10    O     0.33250   0.21150   0.48985   0.01267  Uiso   1.00
O11    O     0.43740   0.61920   0.38014   0.01267  Uiso   1.00
O12    O     0.54590   0.48210   0.42365   0.01267  Uiso   1.00
O13    O     0.12390   0.61820   0.44288   0.01267  Uiso   1.00
O14    O     0.86590   0.46450   0.43961   0.01267  Uiso   1.00
O15    O     0.44910   0.88730   0.43386   0.01267  Uiso   1.00
O16    O     0.59330   0.13920   0.44338   0.01267  Uiso   1.00
O17    O     0.71330   0.36110   0.03281   0.01267  Uiso   1.00
O18    O     0.83250   0.21150   0.01015   0.01267  Uiso   1.00
O19    O     0.93740   0.61920   0.11986   0.01267  Uiso   1.00
O20    O     0.04590   0.48210   0.07635   0.01267  Uiso   1.00
O21    O     0.62390   0.61820   0.05712   0.01267  Uiso   1.00
O22    O     0.36590   0.46450   0.06039   0.01267  Uiso   1.00
O23    O     0.94910   0.88730   0.06614   0.01267  Uiso   1.00
O24    O     0.09330   0.13920   0.05662   0.01267  Uiso   1.00
O25    O     0.78670   0.63890   0.53281   0.01267  Uiso   1.00
O26    O     0.66750   0.78850   0.51015   0.01267  Uiso   1.00
O27    O     0.56260   0.38080   0.61986   0.01267  Uiso   1.00
O28    O     0.45410   0.51790   0.57635   0.01267  Uiso   1.00
O29    O     0.87610   0.38180   0.55712   0.01267  Uiso   1.00
O30    O     0.13410   0.53550   0.56039   0.01267  Uiso   1.00
O31    O     0.55090   0.11270   0.56614   0.01267  Uiso   1.00
O32    O     0.40670   0.86080   0.55662   0.01267  Uiso   1.00
