data_MOBBOU_clean
_audit_creation_date              2014-07-02
_audit_creation_method            'Materials Studio'
_symmetry_space_group_name_H-M    'P1'
_symmetry_Int_Tables_number       1
_symmetry_cell_setting            triclinic
loop_
_symmetry_equiv_pos_as_xyz
  x,y,z
_cell_length_a                    9.0211
_cell_length_b                    9.0211
_cell_length_c                    12.7200
_cell_angle_alpha                 85.2089
_cell_angle_beta                  85.2089
_cell_angle_gamma                 79.3769
loop_
_atom_site_label
_atom_site_type_symbol
_atom_site_fract_x
_atom_site_fract_y
_atom_site_fract_z
_atom_site_U_iso_or_equiv
_atom_site_adp_type
_atom_site_occupancy
Th1    Th    0.26515   0.73485   0.25000   0.01267  Uiso   1.00
Th2    Th    0.73485   0.26515   0.75000   0.01267  Uiso   1.00
C1     C     0.05420   0.50820   0.39060   0.01267  Uiso   1.00
C2     C     0.87910   0.41990   0.52560   0.01267  Uiso   1.00
C3     C     0.93700   0.42660   0.42120   0.01267  Uiso   1.00
C4     C     0.08400   0.00360   0.08990   0.01267  Uiso   1.00
C5     C     0.96510   0.13990   0.93880   0.01267  Uiso   1.00
C6     C     0.04550   0.13910   0.02290   0.01267  Uiso   1.00
C7     C     0.49180   0.94580   0.10940   0.01267  Uiso   1.00
C8     C     0.58010   0.12090   0.97440   0.01267  Uiso   1.00
C9     C     0.57340   0.06300   0.07880   0.01267  Uiso   1.00
C10    C     0.99640   0.91600   0.41010   0.01267  Uiso   1.00
C11    C     0.86010   0.03490   0.56120   0.01267  Uiso   1.00
C12    C     0.86090   0.95450   0.47710   0.01267  Uiso   1.00
C13    C     0.94580   0.49180   0.60940   0.01267  Uiso   1.00
C14    C     0.12090   0.58010   0.47440   0.01267  Uiso   1.00
C15    C     0.06300   0.57340   0.57880   0.01267  Uiso   1.00
C16    C     0.91600   0.99640   0.91010   0.01267  Uiso   1.00
C17    C     0.03490   0.86010   0.06120   0.01267  Uiso   1.00
C18    C     0.95450   0.86090   0.97710   0.01267  Uiso   1.00
C19    C     0.50820   0.05420   0.89060   0.01267  Uiso   1.00
C20    C     0.41990   0.87910   0.02560   0.01267  Uiso   1.00
C21    C     0.42660   0.93700   0.92120   0.01267  Uiso   1.00
C22    C     0.00360   0.08400   0.58990   0.01267  Uiso   1.00
C23    C     0.13990   0.96510   0.43880   0.01267  Uiso   1.00
C24    C     0.13910   0.04550   0.52290   0.01267  Uiso   1.00
Cl1    Cl    0.86863   0.33603   0.32660   0.01267  Uiso   1.00
Cl2    Cl    0.09830   0.30210   0.05860   0.01267  Uiso   1.00
Cl3    Cl    0.66397   0.13137   0.17340   0.01267  Uiso   1.00
Cl4    Cl    0.69790   0.90170   0.44140   0.01267  Uiso   1.00
Cl5    Cl    0.13137   0.66397   0.67340   0.01267  Uiso   1.00
Cl6    Cl    0.90170   0.69790   0.94140   0.01267  Uiso   1.00
Cl7    Cl    0.33603   0.86863   0.82660   0.01267  Uiso   1.00
Cl8    Cl    0.30210   0.09830   0.55860   0.01267  Uiso   1.00
O1     O     0.10720   0.53140   0.29860   0.01267  Uiso   1.00
O2     O     0.76540   0.36060   0.55870   0.01267  Uiso   1.00
O3     O     0.16170   0.99210   0.16840   0.01267  Uiso   1.00
O4     O     0.92730   0.25530   0.87580   0.01267  Uiso   1.00
O5     O     0.46860   0.89280   0.20140   0.01267  Uiso   1.00
O6     O     0.63940   0.23460   0.94130   0.01267  Uiso   1.00
O7     O     0.00790   0.83830   0.33160   0.01267  Uiso   1.00
O8     O     0.74470   0.07270   0.62420   0.01267  Uiso   1.00
O9     O     0.89280   0.46860   0.70140   0.01267  Uiso   1.00
O10    O     0.23460   0.63940   0.44130   0.01267  Uiso   1.00
O11    O     0.83830   0.00790   0.83160   0.01267  Uiso   1.00
O12    O     0.07270   0.74470   0.12420   0.01267  Uiso   1.00
O13    O     0.53140   0.10720   0.79860   0.01267  Uiso   1.00
O14    O     0.36060   0.76540   0.05870   0.01267  Uiso   1.00
O15    O     0.99210   0.16170   0.66840   0.01267  Uiso   1.00
O16    O     0.25530   0.92730   0.37580   0.01267  Uiso   1.00
