data_MOBBIO_clean
_audit_creation_date              2014-07-02
_audit_creation_method            'Materials Studio'
_symmetry_space_group_name_H-M    'P1'
_symmetry_Int_Tables_number       1
_symmetry_cell_setting            triclinic
loop_
_symmetry_equiv_pos_as_xyz
  x,y,z
_cell_length_a                    11.5780
_cell_length_b                    11.5780
_cell_length_c                    15.1063
_cell_angle_alpha                 112.5330
_cell_angle_beta                  112.5330
_cell_angle_gamma                 90.0000
loop_
_atom_site_label
_atom_site_type_symbol
_atom_site_fract_x
_atom_site_fract_y
_atom_site_fract_z
_atom_site_U_iso_or_equiv
_atom_site_adp_type
_atom_site_occupancy
Y1     Y     0.37500   0.12500   0.25000   0.01267  Uiso   1.00
Y2     Y     0.62500   0.87500   0.75000   0.01267  Uiso   1.00
C1     C     0.57500   0.52880   0.45200   0.01267  Uiso   1.00
C2     C     0.50130   0.41450   0.40300   0.01267  Uiso   1.00
C3     C     0.58030   0.62010   0.54720   0.01267  Uiso   1.00
C4     C     0.37700   0.92320   0.45200   0.01267  Uiso   1.00
C5     C     0.40170   0.98850   0.40300   0.01267  Uiso   1.00
C6     C     0.46690   0.92710   0.54720   0.01267  Uiso   1.00
C7     C     0.02880   0.87700   0.95200   0.01267  Uiso   1.00
C8     C     0.91450   0.90170   0.90300   0.01267  Uiso   1.00
C9     C     0.12010   0.96690   0.04720   0.01267  Uiso   1.00
C10    C     0.42320   0.07500   0.95200   0.01267  Uiso   1.00
C11    C     0.48850   0.00130   0.90300   0.01267  Uiso   1.00
C12    C     0.42710   0.08030   0.04720   0.01267  Uiso   1.00
C13    C     0.42500   0.47120   0.54800   0.01267  Uiso   1.00
C14    C     0.49870   0.58550   0.59700   0.01267  Uiso   1.00
C15    C     0.41970   0.37990   0.45280   0.01267  Uiso   1.00
C16    C     0.62300   0.07680   0.54800   0.01267  Uiso   1.00
C17    C     0.59830   0.01150   0.59700   0.01267  Uiso   1.00
C18    C     0.53310   0.07290   0.45280   0.01267  Uiso   1.00
C19    C     0.97120   0.12300   0.04800   0.01267  Uiso   1.00
C20    C     0.08550   0.09830   0.09700   0.01267  Uiso   1.00
C21    C     0.87990   0.03310   0.95280   0.01267  Uiso   1.00
C22    C     0.57680   0.92500   0.04800   0.01267  Uiso   1.00
C23    C     0.51150   0.99870   0.09700   0.01267  Uiso   1.00
C24    C     0.57290   0.91970   0.95280   0.01267  Uiso   1.00
Cl1    Cl    0.66444   0.56824   0.39508   0.01267  Uiso   1.00
Cl2    Cl    0.23064   0.82684   0.39508   0.01267  Uiso   1.00
Cl3    Cl    0.06824   0.73064   0.89508   0.01267  Uiso   1.00
Cl4    Cl    0.32684   0.16444   0.89508   0.01267  Uiso   1.00
Cl5    Cl    0.33556   0.43176   0.60492   0.01267  Uiso   1.00
Cl6    Cl    0.76936   0.17316   0.60492   0.01267  Uiso   1.00
Cl7    Cl    0.93176   0.26936   0.10492   0.01267  Uiso   1.00
Cl8    Cl    0.67316   0.83556   0.10492   0.01267  Uiso   1.00
O1     O     0.48700   0.32560   0.31480   0.01267  Uiso   1.00
O2     O     0.64880   0.72700   0.59820   0.01267  Uiso   1.00
O3     O     0.32780   0.98920   0.31480   0.01267  Uiso   1.00
O4     O     0.44940   0.87120   0.59820   0.01267  Uiso   1.00
O5     O     0.82560   0.82780   0.81480   0.01267  Uiso   1.00
O6     O     0.22700   0.94940   0.09820   0.01267  Uiso   1.00
O7     O     0.48920   0.98700   0.81480   0.01267  Uiso   1.00
O8     O     0.37120   0.14880   0.09820   0.01267  Uiso   1.00
O9     O     0.51300   0.67440   0.68520   0.01267  Uiso   1.00
O10    O     0.35120   0.27300   0.40180   0.01267  Uiso   1.00
O11    O     0.67220   0.01080   0.68520   0.01267  Uiso   1.00
O12    O     0.55060   0.12880   0.40180   0.01267  Uiso   1.00
O13    O     0.17440   0.17220   0.18520   0.01267  Uiso   1.00
O14    O     0.77300   0.05060   0.90180   0.01267  Uiso   1.00
O15    O     0.51080   0.01300   0.18520   0.01267  Uiso   1.00
O16    O     0.62880   0.85120   0.90180   0.01267  Uiso   1.00
