data_MOCHUI_clean
_audit_creation_date              2014-07-02
_audit_creation_method            'Materials Studio'
_symmetry_space_group_name_H-M    'P1'
_symmetry_Int_Tables_number       1
_symmetry_cell_setting            triclinic
loop_
_symmetry_equiv_pos_as_xyz
  x,y,z
_cell_length_a                    6.5434
_cell_length_b                    6.9311
_cell_length_c                    7.7465
_cell_angle_alpha                 111.4870
_cell_angle_beta                  95.6450
_cell_angle_gamma                 90.8330
loop_
_atom_site_label
_atom_site_type_symbol
_atom_site_fract_x
_atom_site_fract_y
_atom_site_fract_z
_atom_site_U_iso_or_equiv
_atom_site_adp_type
_atom_site_occupancy
Gd1    Gd    0.87397   0.77948   0.06766   0.01267  Uiso   1.00
Gd2    Gd    0.12603   0.22052   0.93234   0.01267  Uiso   1.00
P1     P     0.32840   0.74792   0.97994   0.01267  Uiso   1.00
P2     P     0.67160   0.25208   0.02006   0.01267  Uiso   1.00
H1     H     0.36220   0.72040   0.79780   0.01267  Uiso   1.00
H2     H     0.63780   0.27960   0.20220   0.01267  Uiso   1.00
C1     C     0.05910   0.90580   0.50090   0.01267  Uiso   1.00
C2     C     0.94090   0.09420   0.49910   0.01267  Uiso   1.00
O1     O     0.19940   0.94150   0.03570   0.01267  Uiso   1.00
O2     O     0.52800   0.77600   0.10480   0.01267  Uiso   1.00
O3     O     0.18250   0.57210   0.97580   0.01267  Uiso   1.00
O4     O     0.05180   0.75540   0.34830   0.01267  Uiso   1.00
O5     O     0.84750   0.08340   0.34740   0.01267  Uiso   1.00
O6     O     0.80060   0.05850   0.96430   0.01267  Uiso   1.00
O7     O     0.47200   0.22400   0.89520   0.01267  Uiso   1.00
O8     O     0.81750   0.42790   0.02420   0.01267  Uiso   1.00
O9     O     0.94820   0.24460   0.65170   0.01267  Uiso   1.00
O10    O     0.15250   0.91660   0.65260   0.01267  Uiso   1.00
