data_MOCJAQ_clean
_audit_creation_date              2014-07-02
_audit_creation_method            'Materials Studio'
_symmetry_space_group_name_H-M    'P1'
_symmetry_Int_Tables_number       1
_symmetry_cell_setting            triclinic
loop_
_symmetry_equiv_pos_as_xyz
  x,y,z
_cell_length_a                    6.4628
_cell_length_b                    6.8519
_cell_length_c                    7.6936
_cell_angle_alpha                 111.6460
_cell_angle_beta                  95.7790
_cell_angle_gamma                 91.0280
loop_
_atom_site_label
_atom_site_type_symbol
_atom_site_fract_x
_atom_site_fract_y
_atom_site_fract_z
_atom_site_U_iso_or_equiv
_atom_site_adp_type
_atom_site_occupancy
Ho1    Ho    0.87615   0.78055   0.06815   0.01267  Uiso   1.00
Ho2    Ho    0.12385   0.21945   0.93185   0.01267  Uiso   1.00
P1     P     0.32992   0.74765   0.97945   0.01267  Uiso   1.00
P2     P     0.67008   0.25235   0.02055   0.01267  Uiso   1.00
H1     H     0.36220   0.72040   0.79780   0.01267  Uiso   1.00
H2     H     0.63780   0.27960   0.20220   0.01267  Uiso   1.00
C1     C     0.05770   0.90360   0.50050   0.01267  Uiso   1.00
C2     C     0.94230   0.09640   0.49950   0.01267  Uiso   1.00
O1     O     0.19890   0.94180   0.03530   0.01267  Uiso   1.00
O2     O     0.53260   0.77780   0.10550   0.01267  Uiso   1.00
O3     O     0.18200   0.57010   0.97690   0.01267  Uiso   1.00
O4     O     0.05080   0.75360   0.34550   0.01267  Uiso   1.00
O5     O     0.85160   0.08560   0.34490   0.01267  Uiso   1.00
O6     O     0.80110   0.05820   0.96470   0.01267  Uiso   1.00
O7     O     0.46740   0.22220   0.89450   0.01267  Uiso   1.00
O8     O     0.81800   0.42990   0.02310   0.01267  Uiso   1.00
O9     O     0.94920   0.24640   0.65450   0.01267  Uiso   1.00
O10    O     0.14840   0.91440   0.65510   0.01267  Uiso   1.00
