data_MOCKEV_clean
_audit_creation_date              2014-07-02
_audit_creation_method            'Materials Studio'
_symmetry_space_group_name_H-M    'P1'
_symmetry_Int_Tables_number       1
_symmetry_cell_setting            triclinic
loop_
_symmetry_equiv_pos_as_xyz
  x,y,z
_cell_length_a                    14.8966
_cell_length_b                    14.8966
_cell_length_c                    14.8966
_cell_angle_alpha                 78.2453
_cell_angle_beta                  78.2453
_cell_angle_gamma                 78.2453
loop_
_atom_site_label
_atom_site_type_symbol
_atom_site_fract_x
_atom_site_fract_y
_atom_site_fract_z
_atom_site_U_iso_or_equiv
_atom_site_adp_type
_atom_site_occupancy
Cu1    Cu    0.48611   0.91873   0.48608   0.01267  Uiso   1.00
Cu2    Cu    0.48608   0.48611   0.91873   0.01267  Uiso   1.00
Cu3    Cu    0.91873   0.48608   0.48611   0.01267  Uiso   1.00
Cu4    Cu    0.51389   0.08127   0.51392   0.01267  Uiso   1.00
Cu5    Cu    0.51392   0.51389   0.08127   0.01267  Uiso   1.00
Cu6    Cu    0.08127   0.51392   0.51389   0.01267  Uiso   1.00
H1     H     0.77130   0.76510   0.47810   0.01267  Uiso   1.00
H2     H     0.19150   0.97970   0.50330   0.01267  Uiso   1.00
H3     H     0.97080   0.18800   0.51510   0.01267  Uiso   1.00
H4     H     0.47810   0.77130   0.76510   0.01267  Uiso   1.00
H5     H     0.50330   0.19150   0.97970   0.01267  Uiso   1.00
H6     H     0.51510   0.97080   0.18800   0.01267  Uiso   1.00
H7     H     0.76510   0.47810   0.77130   0.01267  Uiso   1.00
H8     H     0.97970   0.50330   0.19150   0.01267  Uiso   1.00
H9     H     0.18800   0.51510   0.97080   0.01267  Uiso   1.00
H10    H     0.22870   0.23490   0.52190   0.01267  Uiso   1.00
H11    H     0.80850   0.02030   0.49670   0.01267  Uiso   1.00
H12    H     0.02920   0.81200   0.48490   0.01267  Uiso   1.00
H13    H     0.52190   0.22870   0.23490   0.01267  Uiso   1.00
H14    H     0.49670   0.80850   0.02030   0.01267  Uiso   1.00
H15    H     0.48490   0.02920   0.81200   0.01267  Uiso   1.00
H16    H     0.23490   0.52190   0.22870   0.01267  Uiso   1.00
H17    H     0.02030   0.49670   0.80850   0.01267  Uiso   1.00
H18    H     0.81200   0.48490   0.02920   0.01267  Uiso   1.00
C1     C     0.22940   0.09410   0.51930   0.01267  Uiso   1.00
C2     C     0.09420   0.23000   0.51320   0.01267  Uiso   1.00
C3     C     0.18960   0.19400   0.51860   0.01267  Uiso   1.00
C4     C     0.16940   0.04260   0.50810   0.01267  Uiso   1.00
C5     C     0.32710   0.06780   0.51900   0.01267  Uiso   1.00
C6     C     0.03550   0.16880   0.51130   0.01267  Uiso   1.00
C7     C     0.07830   0.07660   0.50310   0.01267  Uiso   1.00
C8     C     0.93900   0.66560   0.48430   0.01267  Uiso   1.00
C9     C     0.51930   0.22940   0.09410   0.01267  Uiso   1.00
C10    C     0.51320   0.09420   0.23000   0.01267  Uiso   1.00
C11    C     0.51860   0.18960   0.19400   0.01267  Uiso   1.00
C12    C     0.50810   0.16940   0.04260   0.01267  Uiso   1.00
C13    C     0.51900   0.32710   0.06780   0.01267  Uiso   1.00
C14    C     0.51130   0.03550   0.16880   0.01267  Uiso   1.00
C15    C     0.50310   0.07830   0.07660   0.01267  Uiso   1.00
C16    C     0.48430   0.93900   0.66560   0.01267  Uiso   1.00
C17    C     0.09410   0.51930   0.22940   0.01267  Uiso   1.00
C18    C     0.23000   0.51320   0.09420   0.01267  Uiso   1.00
C19    C     0.19400   0.51860   0.18960   0.01267  Uiso   1.00
C20    C     0.04260   0.50810   0.16940   0.01267  Uiso   1.00
C21    C     0.06780   0.51900   0.32710   0.01267  Uiso   1.00
C22    C     0.16880   0.51130   0.03550   0.01267  Uiso   1.00
C23    C     0.07660   0.50310   0.07830   0.01267  Uiso   1.00
C24    C     0.66560   0.48430   0.93900   0.01267  Uiso   1.00
C25    C     0.77060   0.90590   0.48070   0.01267  Uiso   1.00
C26    C     0.90580   0.77000   0.48680   0.01267  Uiso   1.00
C27    C     0.81040   0.80600   0.48140   0.01267  Uiso   1.00
C28    C     0.83060   0.95740   0.49190   0.01267  Uiso   1.00
C29    C     0.67290   0.93220   0.48100   0.01267  Uiso   1.00
C30    C     0.96450   0.83120   0.48870   0.01267  Uiso   1.00
C31    C     0.92170   0.92340   0.49690   0.01267  Uiso   1.00
C32    C     0.06100   0.33440   0.51570   0.01267  Uiso   1.00
C33    C     0.48070   0.77060   0.90590   0.01267  Uiso   1.00
C34    C     0.48680   0.90580   0.77000   0.01267  Uiso   1.00
C35    C     0.48140   0.81040   0.80600   0.01267  Uiso   1.00
C36    C     0.49190   0.83060   0.95740   0.01267  Uiso   1.00
C37    C     0.48100   0.67290   0.93220   0.01267  Uiso   1.00
C38    C     0.48870   0.96450   0.83120   0.01267  Uiso   1.00
C39    C     0.49690   0.92170   0.92340   0.01267  Uiso   1.00
C40    C     0.51570   0.06100   0.33440   0.01267  Uiso   1.00
C41    C     0.90590   0.48070   0.77060   0.01267  Uiso   1.00
C42    C     0.77000   0.48680   0.90580   0.01267  Uiso   1.00
C43    C     0.80600   0.48140   0.81040   0.01267  Uiso   1.00
C44    C     0.95740   0.49190   0.83060   0.01267  Uiso   1.00
C45    C     0.93220   0.48100   0.67290   0.01267  Uiso   1.00
C46    C     0.83120   0.48870   0.96450   0.01267  Uiso   1.00
C47    C     0.92340   0.49690   0.92170   0.01267  Uiso   1.00
C48    C     0.33440   0.51570   0.06100   0.01267  Uiso   1.00
N1     N     0.02000   0.01700   0.50400   0.01267  Uiso   1.00
N2     N     0.50400   0.02000   0.01700   0.01267  Uiso   1.00
N3     N     0.01700   0.50400   0.02000   0.01267  Uiso   1.00
N4     N     0.98000   0.98300   0.49600   0.01267  Uiso   1.00
N5     N     0.49600   0.98000   0.98300   0.01267  Uiso   1.00
N6     N     0.98300   0.49600   0.98000   0.01267  Uiso   1.00
O1     O     0.38310   0.12030   0.52150   0.01267  Uiso   1.00
O2     O     0.87770   0.61980   0.47680   0.01267  Uiso   1.00
O3     O     0.02200   0.64300   0.50040   0.01267  Uiso   1.00
O4     O     0.35530   0.97810   0.50550   0.01267  Uiso   1.00
O5     O     0.52150   0.38310   0.12030   0.01267  Uiso   1.00
O6     O     0.47680   0.87770   0.61980   0.01267  Uiso   1.00
O7     O     0.50040   0.02200   0.64300   0.01267  Uiso   1.00
O8     O     0.50550   0.35530   0.97810   0.01267  Uiso   1.00
O9     O     0.12030   0.52150   0.38310   0.01267  Uiso   1.00
O10    O     0.61980   0.47680   0.87770   0.01267  Uiso   1.00
O11    O     0.64300   0.50040   0.02200   0.01267  Uiso   1.00
O12    O     0.97810   0.50550   0.35530   0.01267  Uiso   1.00
O13    O     0.61690   0.87970   0.47850   0.01267  Uiso   1.00
O14    O     0.12230   0.38020   0.52320   0.01267  Uiso   1.00
O15    O     0.97800   0.35700   0.49960   0.01267  Uiso   1.00
O16    O     0.64470   0.02190   0.49450   0.01267  Uiso   1.00
O17    O     0.47850   0.61690   0.87970   0.01267  Uiso   1.00
O18    O     0.52320   0.12230   0.38020   0.01267  Uiso   1.00
O19    O     0.49960   0.97800   0.35700   0.01267  Uiso   1.00
O20    O     0.49450   0.64470   0.02190   0.01267  Uiso   1.00
O21    O     0.87970   0.47850   0.61690   0.01267  Uiso   1.00
O22    O     0.38020   0.52320   0.12230   0.01267  Uiso   1.00
O23    O     0.35700   0.49960   0.97800   0.01267  Uiso   1.00
O24    O     0.02190   0.49450   0.64470   0.01267  Uiso   1.00
