data_MODDEP_clean
_audit_creation_date              2014-07-02
_audit_creation_method            'Materials Studio'
_symmetry_space_group_name_H-M    'P1'
_symmetry_Int_Tables_number       1
_symmetry_cell_setting            triclinic
loop_
_symmetry_equiv_pos_as_xyz
  x,y,z
_cell_length_a                    8.8802
_cell_length_b                    12.0800
_cell_length_c                    16.6150
_cell_angle_alpha                 90.0000
_cell_angle_beta                  90.0000
_cell_angle_gamma                 109.3200
loop_
_atom_site_label
_atom_site_type_symbol
_atom_site_fract_x
_atom_site_fract_y
_atom_site_fract_z
_atom_site_U_iso_or_equiv
_atom_site_adp_type
_atom_site_occupancy
Dy1    Dy    0.93315   0.95259   0.88221   0.01267  Uiso   1.00
Dy2    Dy    0.56685   0.04741   0.38221   0.01267  Uiso   1.00
Dy3    Dy    0.06685   0.04741   0.11779   0.01267  Uiso   1.00
Dy4    Dy    0.43315   0.95259   0.61779   0.01267  Uiso   1.00
H1     H     0.47010   0.28030   0.93360   0.01267  Uiso   1.00
H2     H     0.37780   0.36110   0.96690   0.01267  Uiso   1.00
H3     H     0.62860   0.46500   0.93400   0.01267  Uiso   1.00
H4     H     0.40330   0.47420   0.72610   0.01267  Uiso   1.00
H5     H     0.82220   0.64180   0.90090   0.01267  Uiso   1.00
H6     H     0.59670   0.65300   0.69420   0.01267  Uiso   1.00
H7     H     0.90920   0.72550   0.67710   0.01267  Uiso   1.00
H8     H     0.82720   0.82220   0.66830   0.01267  Uiso   1.00
H9     H     0.25100   0.79460   0.07020   0.01267  Uiso   1.00
H10    H     0.38120   0.86110   0.00750   0.01267  Uiso   1.00
H11    H     0.20140   0.50400   0.91130   0.01267  Uiso   1.00
H12    H     0.01350   0.66580   0.07310   0.01267  Uiso   1.00
H13    H     0.02990   0.71970   0.43360   0.01267  Uiso   1.00
H14    H     0.12220   0.63890   0.46690   0.01267  Uiso   1.00
H15    H     0.87140   0.53500   0.43400   0.01267  Uiso   1.00
H16    H     0.09670   0.52580   0.22610   0.01267  Uiso   1.00
H17    H     0.67780   0.35820   0.40090   0.01267  Uiso   1.00
H18    H     0.90330   0.34700   0.19420   0.01267  Uiso   1.00
H19    H     0.59080   0.27450   0.17710   0.01267  Uiso   1.00
H20    H     0.67280   0.17780   0.16830   0.01267  Uiso   1.00
H21    H     0.24900   0.20540   0.57020   0.01267  Uiso   1.00
H22    H     0.11880   0.13890   0.50750   0.01267  Uiso   1.00
H23    H     0.29860   0.49600   0.41130   0.01267  Uiso   1.00
H24    H     0.48650   0.33420   0.57310   0.01267  Uiso   1.00
H25    H     0.52990   0.71970   0.06640   0.01267  Uiso   1.00
H26    H     0.62220   0.63890   0.03310   0.01267  Uiso   1.00
H27    H     0.37140   0.53500   0.06600   0.01267  Uiso   1.00
H28    H     0.59670   0.52580   0.27390   0.01267  Uiso   1.00
H29    H     0.17780   0.35820   0.09910   0.01267  Uiso   1.00
H30    H     0.40330   0.34700   0.30580   0.01267  Uiso   1.00
H31    H     0.09080   0.27450   0.32290   0.01267  Uiso   1.00
H32    H     0.17280   0.17780   0.33170   0.01267  Uiso   1.00
H33    H     0.74900   0.20540   0.92980   0.01267  Uiso   1.00
H34    H     0.61880   0.13890   0.99250   0.01267  Uiso   1.00
H35    H     0.79860   0.49600   0.08870   0.01267  Uiso   1.00
H36    H     0.98650   0.33420   0.92690   0.01267  Uiso   1.00
H37    H     0.97010   0.28030   0.56640   0.01267  Uiso   1.00
H38    H     0.87780   0.36110   0.53310   0.01267  Uiso   1.00
H39    H     0.12860   0.46500   0.56600   0.01267  Uiso   1.00
H40    H     0.90330   0.47420   0.77390   0.01267  Uiso   1.00
H41    H     0.32220   0.64180   0.59910   0.01267  Uiso   1.00
H42    H     0.09670   0.65300   0.80580   0.01267  Uiso   1.00
H43    H     0.40920   0.72550   0.82290   0.01267  Uiso   1.00
H44    H     0.32720   0.82220   0.83170   0.01267  Uiso   1.00
H45    H     0.75100   0.79460   0.42980   0.01267  Uiso   1.00
H46    H     0.88120   0.86110   0.49250   0.01267  Uiso   1.00
H47    H     0.70140   0.50400   0.58870   0.01267  Uiso   1.00
H48    H     0.51350   0.66580   0.42690   0.01267  Uiso   1.00
C1     C     0.22980   0.19400   0.94350   0.01267  Uiso   1.00
C2     C     0.37430   0.30120   0.92730   0.01267  Uiso   1.00
C3     C     0.49500   0.45220   0.83340   0.01267  Uiso   1.00
C4     C     0.62140   0.50230   0.88600   0.01267  Uiso   1.00
C5     C     0.48660   0.50820   0.76170   0.01267  Uiso   1.00
C6     C     0.73690   0.60870   0.86620   0.01267  Uiso   1.00
C7     C     0.60230   0.61540   0.74240   0.01267  Uiso   1.00
C8     C     0.72560   0.66480   0.79630   0.01267  Uiso   1.00
C9     C     0.90020   0.79650   0.70080   0.01267  Uiso   1.00
C10    C     0.06200   0.89090   0.70380   0.01267  Uiso   1.00
C11    C     0.15810   0.85990   0.97610   0.01267  Uiso   1.00
C12    C     0.27370   0.80630   0.01310   0.01267  Uiso   1.00
C13    C     0.13000   0.60200   0.99080   0.01267  Uiso   1.00
C14    C     0.12040   0.50250   0.94710   0.01267  Uiso   1.00
C15    C     0.00850   0.59920   0.04370   0.01267  Uiso   1.00
C16    C     0.27020   0.80600   0.44350   0.01267  Uiso   1.00
C17    C     0.12570   0.69880   0.42730   0.01267  Uiso   1.00
C18    C     0.00500   0.54780   0.33340   0.01267  Uiso   1.00
C19    C     0.87860   0.49770   0.38600   0.01267  Uiso   1.00
C20    C     0.01340   0.49180   0.26170   0.01267  Uiso   1.00
C21    C     0.76310   0.39130   0.36620   0.01267  Uiso   1.00
C22    C     0.89770   0.38460   0.24240   0.01267  Uiso   1.00
C23    C     0.77440   0.33520   0.29630   0.01267  Uiso   1.00
C24    C     0.59980   0.20350   0.20080   0.01267  Uiso   1.00
C25    C     0.43800   0.10910   0.20380   0.01267  Uiso   1.00
C26    C     0.34190   0.14010   0.47610   0.01267  Uiso   1.00
C27    C     0.22630   0.19370   0.51310   0.01267  Uiso   1.00
C28    C     0.37000   0.39800   0.49080   0.01267  Uiso   1.00
C29    C     0.37960   0.49750   0.44710   0.01267  Uiso   1.00
C30    C     0.49150   0.40080   0.54370   0.01267  Uiso   1.00
C31    C     0.77020   0.80600   0.05650   0.01267  Uiso   1.00
C32    C     0.62570   0.69880   0.07270   0.01267  Uiso   1.00
C33    C     0.50500   0.54780   0.16660   0.01267  Uiso   1.00
C34    C     0.37860   0.49770   0.11400   0.01267  Uiso   1.00
C35    C     0.51340   0.49180   0.23830   0.01267  Uiso   1.00
C36    C     0.26310   0.39130   0.13380   0.01267  Uiso   1.00
C37    C     0.39770   0.38460   0.25760   0.01267  Uiso   1.00
C38    C     0.27440   0.33520   0.20370   0.01267  Uiso   1.00
C39    C     0.09980   0.20350   0.29920   0.01267  Uiso   1.00
C40    C     0.93800   0.10910   0.29620   0.01267  Uiso   1.00
C41    C     0.84190   0.14010   0.02390   0.01267  Uiso   1.00
C42    C     0.72630   0.19370   0.98690   0.01267  Uiso   1.00
C43    C     0.87000   0.39800   0.00920   0.01267  Uiso   1.00
C44    C     0.87960   0.49750   0.05290   0.01267  Uiso   1.00
C45    C     0.99150   0.40080   0.95630   0.01267  Uiso   1.00
C46    C     0.72980   0.19400   0.55650   0.01267  Uiso   1.00
C47    C     0.87430   0.30120   0.57270   0.01267  Uiso   1.00
C48    C     0.99500   0.45220   0.66660   0.01267  Uiso   1.00
C49    C     0.12140   0.50230   0.61400   0.01267  Uiso   1.00
C50    C     0.98660   0.50820   0.73830   0.01267  Uiso   1.00
C51    C     0.23690   0.60870   0.63380   0.01267  Uiso   1.00
C52    C     0.10230   0.61540   0.75760   0.01267  Uiso   1.00
C53    C     0.22560   0.66480   0.70370   0.01267  Uiso   1.00
C54    C     0.40020   0.79650   0.79920   0.01267  Uiso   1.00
C55    C     0.56200   0.89090   0.79620   0.01267  Uiso   1.00
C56    C     0.65810   0.85990   0.52390   0.01267  Uiso   1.00
C57    C     0.77370   0.80630   0.48690   0.01267  Uiso   1.00
C58    C     0.63000   0.60200   0.50920   0.01267  Uiso   1.00
C59    C     0.62040   0.50250   0.55290   0.01267  Uiso   1.00
C60    C     0.50850   0.59920   0.45630   0.01267  Uiso   1.00
O1     O     0.15930   0.12920   0.88653   0.01267  Uiso   1.00
O2     O     0.19760   0.18020   0.01721   0.01267  Uiso   1.00
O3     O     0.37350   0.34830   0.84898   0.01267  Uiso   1.00
O4     O     0.84190   0.77420   0.78259   0.01267  Uiso   1.00
O5     O     0.15000   0.89980   0.64406   0.01267  Uiso   1.00
O6     O     0.09550   0.95510   0.76500   0.01267  Uiso   1.00
O7     O     0.09910   0.82790   0.90891   0.01267  Uiso   1.00
O8     O     0.13130   0.94200   0.01330   0.01267  Uiso   1.00
O9     O     0.26690   0.69810   0.97830   0.01267  Uiso   1.00
O10    O     0.34070   0.87080   0.38653   0.01267  Uiso   1.00
O11    O     0.30240   0.81980   0.51721   0.01267  Uiso   1.00
O12    O     0.12650   0.65170   0.34898   0.01267  Uiso   1.00
O13    O     0.65810   0.22580   0.28259   0.01267  Uiso   1.00
O14    O     0.35000   0.10020   0.14406   0.01267  Uiso   1.00
O15    O     0.40450   0.04490   0.26500   0.01267  Uiso   1.00
O16    O     0.40090   0.17210   0.40891   0.01267  Uiso   1.00
O17    O     0.36870   0.05800   0.51330   0.01267  Uiso   1.00
O18    O     0.23310   0.30190   0.47830   0.01267  Uiso   1.00
O19    O     0.84070   0.87080   0.11347   0.01267  Uiso   1.00
O20    O     0.80240   0.81980   0.98279   0.01267  Uiso   1.00
O21    O     0.62650   0.65170   0.15102   0.01267  Uiso   1.00
O22    O     0.15810   0.22580   0.21741   0.01267  Uiso   1.00
O23    O     0.85000   0.10020   0.35594   0.01267  Uiso   1.00
O24    O     0.90450   0.04490   0.23500   0.01267  Uiso   1.00
O25    O     0.90090   0.17210   0.09109   0.01267  Uiso   1.00
O26    O     0.86870   0.05800   0.98670   0.01267  Uiso   1.00
O27    O     0.73310   0.30190   0.02170   0.01267  Uiso   1.00
O28    O     0.65930   0.12920   0.61347   0.01267  Uiso   1.00
O29    O     0.69760   0.18020   0.48279   0.01267  Uiso   1.00
O30    O     0.87350   0.34830   0.65102   0.01267  Uiso   1.00
O31    O     0.34190   0.77420   0.71741   0.01267  Uiso   1.00
O32    O     0.65000   0.89980   0.85594   0.01267  Uiso   1.00
O33    O     0.59550   0.95510   0.73500   0.01267  Uiso   1.00
O34    O     0.59910   0.82790   0.59109   0.01267  Uiso   1.00
O35    O     0.63130   0.94200   0.48670   0.01267  Uiso   1.00
O36    O     0.76690   0.69810   0.52170   0.01267  Uiso   1.00
