data_image0
_cell_length_a       10.7864
_cell_length_b       12.2053
_cell_length_c       19
_cell_angle_alpha    90
_cell_angle_beta     92.239
_cell_angle_gamma    90

_symmetry_space_group_name_H-M    "P 1"
_symmetry_int_tables_number       1

loop_
  _symmetry_equiv_pos_as_xyz
  'x, y, z'

loop_
  _atom_site_label
  _atom_site_occupancy
  _atom_site_fract_x
  _atom_site_fract_y
  _atom_site_fract_z
  _atom_site_thermal_displace_type
  _atom_site_B_iso_or_equiv
  _atom_site_type_symbol
  U1       1.0000 0.40774  0.04086  0.12388  Biso   1.000  U
  U2       1.0000 0.03327  0.31601  0.18761  Biso   1.000  U
  O1       1.0000 0.35240  0.11990  0.23380  Biso   1.000  O
  O2       1.0000 0.15300  0.16600  0.22310  Biso   1.000  O
  O3       1.0000 0.12260  0.96270  0.29830  Biso   1.000  O
  O4       1.0000 0.03220  0.95660  0.39950  Biso   1.000  O
  O5       1.0000 0.13600  0.22000  0.58410  Biso   1.000  O
  O6       1.0000 0.33030  0.27910  0.59350  Biso   1.000  O
  O7       1.0000 0.36100  0.43900  0.50060  Biso   1.000  O
  O8       1.0000 0.50290  0.38300  0.42650  Biso   1.000  O
  C1       1.0000 0.24950  0.16120  0.33800  Biso   1.000  C
  C2       1.0000 0.32330  0.24560  0.36460  Biso   1.000  C
  H1       1.0000 0.37360  0.28380  0.33440  Biso   1.000  H
  C3       1.0000 0.32380  0.27480  0.43590  Biso   1.000  C
  C4       1.0000 0.24570  0.21760  0.48140  Biso   1.000  C
  C5       1.0000 0.17650  0.13000  0.45390  Biso   1.000  C
  H2       1.0000 0.12690  0.09020  0.48360  Biso   1.000  H
  C6       1.0000 0.17950  0.10030  0.38350  Biso   1.000  C
  C7       1.0000 0.10630  0.00180  0.35930  Biso   1.000  C
  C8       1.0000 0.24980  0.14600  0.25830  Biso   1.000  C
  C9       1.0000 0.40180  0.37340  0.45740  Biso   1.000  C
  C10      1.0000 0.23900  0.24240  0.55900  Biso   1.000  C
  U3       1.0000 0.59226  0.54086  0.37612  Biso   1.000  U
  U4       1.0000 0.96673  0.81601  0.31239  Biso   1.000  U
  O9       1.0000 0.64760  0.61990  0.26620  Biso   1.000  O
  O10      1.0000 0.84700  0.66600  0.27690  Biso   1.000  O
  O11      1.0000 0.87740  0.46270  0.20170  Biso   1.000  O
  O12      1.0000 0.96780  0.45660  0.10050  Biso   1.000  O
  O13      1.0000 0.86400  0.72000  0.91590  Biso   1.000  O
  O14      1.0000 0.66970  0.77910  0.90650  Biso   1.000  O
  O15      1.0000 0.63900  0.93900  0.99940  Biso   1.000  O
  O16      1.0000 0.49710  0.88300  0.07350  Biso   1.000  O
  C11      1.0000 0.75050  0.66120  0.16200  Biso   1.000  C
  C12      1.0000 0.67670  0.74560  0.13540  Biso   1.000  C
  H3       1.0000 0.62640  0.78380  0.16560  Biso   1.000  H
  C13      1.0000 0.67620  0.77480  0.06410  Biso   1.000  C
  C14      1.0000 0.75430  0.71760  0.01860  Biso   1.000  C
  C15      1.0000 0.82350  0.63000  0.04610  Biso   1.000  C
  H4       1.0000 0.87310  0.59020  0.01640  Biso   1.000  H
  C16      1.0000 0.82050  0.60030  0.11650  Biso   1.000  C
  C17      1.0000 0.89370  0.50180  0.14070  Biso   1.000  C
  C18      1.0000 0.75020  0.64600  0.24170  Biso   1.000  C
  C19      1.0000 0.59820  0.87340  0.04260  Biso   1.000  C
  C20      1.0000 0.76100  0.74240  0.94100  Biso   1.000  C
  U5       1.0000 0.59226  0.95914  0.87612  Biso   1.000  U
  U6       1.0000 0.96673  0.68399  0.81239  Biso   1.000  U
  O17      1.0000 0.64760  0.88010  0.76620  Biso   1.000  O
  O18      1.0000 0.84700  0.83400  0.77690  Biso   1.000  O
  O19      1.0000 0.87740  0.03730  0.70170  Biso   1.000  O
  O20      1.0000 0.96780  0.04340  0.60050  Biso   1.000  O
  O21      1.0000 0.86400  0.78000  0.41590  Biso   1.000  O
  O22      1.0000 0.66970  0.72090  0.40650  Biso   1.000  O
  O23      1.0000 0.63900  0.56100  0.49940  Biso   1.000  O
  O24      1.0000 0.49710  0.61700  0.57350  Biso   1.000  O
  C21      1.0000 0.75050  0.83880  0.66200  Biso   1.000  C
  C22      1.0000 0.67670  0.75440  0.63540  Biso   1.000  C
  H5       1.0000 0.62640  0.71620  0.66560  Biso   1.000  H
  C23      1.0000 0.67620  0.72520  0.56410  Biso   1.000  C
  C24      1.0000 0.75430  0.78240  0.51860  Biso   1.000  C
  C25      1.0000 0.82350  0.87000  0.54610  Biso   1.000  C
  H6       1.0000 0.87310  0.90980  0.51640  Biso   1.000  H
  C26      1.0000 0.82050  0.89970  0.61650  Biso   1.000  C
  C27      1.0000 0.89370  0.99820  0.64070  Biso   1.000  C
  C28      1.0000 0.75020  0.85400  0.74170  Biso   1.000  C
  C29      1.0000 0.59820  0.62660  0.54260  Biso   1.000  C
  C30      1.0000 0.76100  0.75760  0.44100  Biso   1.000  C
  U7       1.0000 0.40774  0.45914  0.62388  Biso   1.000  U
  U8       1.0000 0.03327  0.18399  0.68761  Biso   1.000  U
  O25      1.0000 0.35240  0.38010  0.73380  Biso   1.000  O
  O26      1.0000 0.15300  0.33400  0.72310  Biso   1.000  O
  O27      1.0000 0.12260  0.53730  0.79830  Biso   1.000  O
  O28      1.0000 0.03220  0.54340  0.89950  Biso   1.000  O
  O29      1.0000 0.13600  0.28000  0.08410  Biso   1.000  O
  O30      1.0000 0.33030  0.22090  0.09350  Biso   1.000  O
  O31      1.0000 0.36100  0.06100  0.00060  Biso   1.000  O
  O32      1.0000 0.50290  0.11700  0.92650  Biso   1.000  O
  C31      1.0000 0.24950  0.33880  0.83800  Biso   1.000  C
  C32      1.0000 0.32330  0.25440  0.86460  Biso   1.000  C
  H7       1.0000 0.37360  0.21620  0.83440  Biso   1.000  H
  C33      1.0000 0.32380  0.22520  0.93590  Biso   1.000  C
  C34      1.0000 0.24570  0.28240  0.98140  Biso   1.000  C
  C35      1.0000 0.17650  0.37000  0.95390  Biso   1.000  C
  H8       1.0000 0.12690  0.40980  0.98360  Biso   1.000  H
  C36      1.0000 0.17950  0.39970  0.88350  Biso   1.000  C
  C37      1.0000 0.10630  0.49820  0.85930  Biso   1.000  C
  C38      1.0000 0.24980  0.35400  0.75830  Biso   1.000  C
  C39      1.0000 0.40180  0.12660  0.95740  Biso   1.000  C
  C40      1.0000 0.23900  0.25760  0.05900  Biso   1.000  C
