data_image0
_cell_length_a       10.97
_cell_length_b       23.744
_cell_length_c       15.906
_cell_angle_alpha    90
_cell_angle_beta     90
_cell_angle_gamma    90

_symmetry_space_group_name_H-M    "P 1"
_symmetry_int_tables_number       1

loop_
  _symmetry_equiv_pos_as_xyz
  'x, y, z'

loop_
  _atom_site_label
  _atom_site_occupancy
  _atom_site_fract_x
  _atom_site_fract_y
  _atom_site_fract_z
  _atom_site_thermal_displace_type
  _atom_site_B_iso_or_equiv
  _atom_site_type_symbol
  C1       1.0000 0.10170  0.33310  0.34810  Biso   1.000  C
  N1       1.0000 0.15590  0.30700  0.39390  Biso   1.000  N
  C2       1.0000 0.74910  0.10640  0.61480  Biso   1.000  C
  N2       1.0000 0.18440  0.38720  0.16730  Biso   1.000  N
  C3       1.0000 0.60170  0.83310  0.34810  Biso   1.000  C
  N3       1.0000 0.65590  0.80700  0.39390  Biso   1.000  N
  C4       1.0000 0.24910  0.60640  0.61480  Biso   1.000  C
  N4       1.0000 0.68440  0.88720  0.16730  Biso   1.000  N
  C5       1.0000 0.89830  0.66690  0.34810  Biso   1.000  C
  N5       1.0000 0.84410  0.69300  0.39390  Biso   1.000  N
  C6       1.0000 0.25090  0.89360  0.61480  Biso   1.000  C
  N6       1.0000 0.81560  0.61280  0.16730  Biso   1.000  N
  C7       1.0000 0.39830  0.16690  0.34810  Biso   1.000  C
  N7       1.0000 0.34410  0.19300  0.39390  Biso   1.000  N
  C8       1.0000 0.75090  0.39360  0.61480  Biso   1.000  C
  N8       1.0000 0.31560  0.11280  0.16730  Biso   1.000  N
  C9       1.0000 0.89830  0.33310  0.15190  Biso   1.000  C
  N9       1.0000 0.84410  0.30700  0.10610  Biso   1.000  N
  C10      1.0000 0.25090  0.10640  0.88520  Biso   1.000  C
  N10      1.0000 0.81560  0.38720  0.33270  Biso   1.000  N
  C11      1.0000 0.39830  0.83310  0.15190  Biso   1.000  C
  N11      1.0000 0.34410  0.80700  0.10610  Biso   1.000  N
  C12      1.0000 0.75090  0.60640  0.88520  Biso   1.000  C
  N12      1.0000 0.31560  0.88720  0.33270  Biso   1.000  N
  C13      1.0000 0.10170  0.66690  0.15190  Biso   1.000  C
  N13      1.0000 0.15590  0.69300  0.10610  Biso   1.000  N
  C14      1.0000 0.74910  0.89360  0.88520  Biso   1.000  C
  N14      1.0000 0.18440  0.61280  0.33270  Biso   1.000  N
  C15      1.0000 0.60170  0.16690  0.15190  Biso   1.000  C
  N15      1.0000 0.65590  0.19300  0.10610  Biso   1.000  N
  C16      1.0000 0.24910  0.39360  0.88520  Biso   1.000  C
  N16      1.0000 0.68440  0.11280  0.33270  Biso   1.000  N
  C17      1.0000 0.89830  0.66690  0.65190  Biso   1.000  C
  N17      1.0000 0.84410  0.69300  0.60610  Biso   1.000  N
  C18      1.0000 0.25090  0.89360  0.38520  Biso   1.000  C
  N18      1.0000 0.81560  0.61280  0.83270  Biso   1.000  N
  C19      1.0000 0.39830  0.16690  0.65190  Biso   1.000  C
  N19      1.0000 0.34410  0.19300  0.60610  Biso   1.000  N
  C20      1.0000 0.75090  0.39360  0.38520  Biso   1.000  C
  N20      1.0000 0.31560  0.11280  0.83270  Biso   1.000  N
  C21      1.0000 0.10170  0.33310  0.65190  Biso   1.000  C
  N21      1.0000 0.15590  0.30700  0.60610  Biso   1.000  N
  C22      1.0000 0.74910  0.10640  0.38520  Biso   1.000  C
  N22      1.0000 0.18440  0.38720  0.83270  Biso   1.000  N
  C23      1.0000 0.60170  0.83310  0.65190  Biso   1.000  C
  N23      1.0000 0.65590  0.80700  0.60610  Biso   1.000  N
  C24      1.0000 0.24910  0.60640  0.38520  Biso   1.000  C
  N24      1.0000 0.68440  0.88720  0.83270  Biso   1.000  N
  C25      1.0000 0.10170  0.66690  0.84810  Biso   1.000  C
  N25      1.0000 0.15590  0.69300  0.89390  Biso   1.000  N
  C26      1.0000 0.74910  0.89360  0.11480  Biso   1.000  C
  N26      1.0000 0.18440  0.61280  0.66730  Biso   1.000  N
  C27      1.0000 0.60170  0.16690  0.84810  Biso   1.000  C
  N27      1.0000 0.65590  0.19300  0.89390  Biso   1.000  N
  C28      1.0000 0.24910  0.39360  0.11480  Biso   1.000  C
  N28      1.0000 0.68440  0.11280  0.66730  Biso   1.000  N
  C29      1.0000 0.89830  0.33310  0.84810  Biso   1.000  C
  N29      1.0000 0.84410  0.30700  0.89390  Biso   1.000  N
  C30      1.0000 0.25090  0.10640  0.11480  Biso   1.000  C
  N30      1.0000 0.81560  0.38720  0.66730  Biso   1.000  N
  C31      1.0000 0.39830  0.83310  0.84810  Biso   1.000  C
  N31      1.0000 0.34410  0.80700  0.89390  Biso   1.000  N
  C32      1.0000 0.75090  0.60640  0.11480  Biso   1.000  C
  N32      1.0000 0.31560  0.88720  0.66730  Biso   1.000  N
  Cd1      1.0000 0.25000  0.25000  0.50000  Biso   1.000  Cd
  Cd2      1.0000 0.75000  0.75000  0.50000  Biso   1.000  Cd
  Cd3      1.0000 0.75000  0.25000  0.00000  Biso   1.000  Cd
  Cd4      1.0000 0.25000  0.75000  0.00000  Biso   1.000  Cd
  Cd5      1.0000 0.00000  0.38180  0.25000  Biso   1.000  Cd
  C33      1.0000 0.00000  0.47660  0.25000  Biso   1.000  C
  Cd6      1.0000 0.50000  0.88180  0.25000  Biso   1.000  Cd
  C34      1.0000 0.50000  0.97660  0.25000  Biso   1.000  C
  Cd7      1.0000 0.00000  0.61820  0.25000  Biso   1.000  Cd
  C35      1.0000 0.00000  0.52340  0.25000  Biso   1.000  C
  Cd8      1.0000 0.50000  0.11820  0.25000  Biso   1.000  Cd
  C36      1.0000 0.50000  0.02340  0.25000  Biso   1.000  C
  Cd9      1.0000 0.00000  0.61820  0.75000  Biso   1.000  Cd
  C37      1.0000 0.00000  0.52340  0.75000  Biso   1.000  C
  Cd10     1.0000 0.50000  0.11820  0.75000  Biso   1.000  Cd
  C38      1.0000 0.50000  0.02340  0.75000  Biso   1.000  C
  Cd11     1.0000 0.00000  0.38180  0.75000  Biso   1.000  Cd
  C39      1.0000 0.00000  0.47660  0.75000  Biso   1.000  C
  Cd12     1.0000 0.50000  0.88180  0.75000  Biso   1.000  Cd
  C40      1.0000 0.50000  0.97660  0.75000  Biso   1.000  C
  Cd13     1.0000 0.86020  0.09851  0.50000  Biso   1.000  Cd
  C41      1.0000 0.01140  0.16150  0.50000  Biso   1.000  C
  N33      1.0000 0.08710  0.19290  0.50000  Biso   1.000  N
  C42      1.0000 0.96950  0.02040  0.50000  Biso   1.000  C
  Cd14     1.0000 0.36020  0.59851  0.50000  Biso   1.000  Cd
  C43      1.0000 0.51140  0.66150  0.50000  Biso   1.000  C
  N34      1.0000 0.58710  0.69290  0.50000  Biso   1.000  N
  C44      1.0000 0.46950  0.52040  0.50000  Biso   1.000  C
  Cd15     1.0000 0.13980  0.90149  0.50000  Biso   1.000  Cd
  C45      1.0000 0.98860  0.83850  0.50000  Biso   1.000  C
  N35      1.0000 0.91290  0.80710  0.50000  Biso   1.000  N
  C46      1.0000 0.03050  0.97960  0.50000  Biso   1.000  C
  Cd16     1.0000 0.63980  0.40149  0.50000  Biso   1.000  Cd
  C47      1.0000 0.48860  0.33850  0.50000  Biso   1.000  C
  N36      1.0000 0.41290  0.30710  0.50000  Biso   1.000  N
  C48      1.0000 0.53050  0.47960  0.50000  Biso   1.000  C
  Cd17     1.0000 0.13980  0.09851  0.00000  Biso   1.000  Cd
  C49      1.0000 0.98860  0.16150  0.00000  Biso   1.000  C
  N37      1.0000 0.91290  0.19290  0.00000  Biso   1.000  N
  C50      1.0000 0.03050  0.02040  0.00000  Biso   1.000  C
  Cd18     1.0000 0.63980  0.59851  0.00000  Biso   1.000  Cd
  C51      1.0000 0.48860  0.66150  0.00000  Biso   1.000  C
  N38      1.0000 0.41290  0.69290  0.00000  Biso   1.000  N
  C52      1.0000 0.53050  0.52040  0.00000  Biso   1.000  C
  Cd19     1.0000 0.86020  0.90149  0.00000  Biso   1.000  Cd
  C53      1.0000 0.01140  0.83850  0.00000  Biso   1.000  C
  N39      1.0000 0.08710  0.80710  0.00000  Biso   1.000  N
  C54      1.0000 0.96950  0.97960  0.00000  Biso   1.000  C
  Cd20     1.0000 0.36020  0.40149  0.00000  Biso   1.000  Cd
  C55      1.0000 0.51140  0.33850  0.00000  Biso   1.000  C
  N40      1.0000 0.58710  0.30710  0.00000  Biso   1.000  N
  C56      1.0000 0.46950  0.47960  0.00000  Biso   1.000  C
