data_MODMOH_charged
_audit_creation_date              2014-07-02
_audit_creation_method            'Materials Studio'
_symmetry_space_group_name_H-M    'P1'
_symmetry_Int_Tables_number       1
_symmetry_cell_setting            triclinic
loop_
_symmetry_equiv_pos_as_xyz
  x,y,z
_cell_length_a                    11.0655
_cell_length_b                    13.1921
_cell_length_c                    15.7838
_cell_angle_alpha                 90.0000
_cell_angle_beta                  90.0000
_cell_angle_gamma                 114.7970
loop_
_atom_site_label
_atom_site_type_symbol
_atom_site_fract_x
_atom_site_fract_y
_atom_site_fract_z
_atom_site_U_iso_or_equiv
_atom_site_adp_type
_atom_site_occupancy
Cd1    Cd    0.50000   0.50000   0.50000   0.01267  Uiso   1.00
Cd2    Cd    0.00000   0.50000   0.00000   0.01267  Uiso   1.00
Cd3    Cd    0.61758   0.23516   0.75000   0.01267  Uiso   1.00
Cd4    Cd    0.38242   0.76484   0.75000   0.01267  Uiso   1.00
Cd5    Cd    0.38242   0.76484   0.25000   0.01267  Uiso   1.00
Cd6    Cd    0.61758   0.23516   0.25000   0.01267  Uiso   1.00
Cd7    Cd    0.03752   0.80558   0.50000   0.01267  Uiso   1.00
Cd8    Cd    0.96248   0.19442   0.50000   0.01267  Uiso   1.00
Cd9    Cd    0.76806   0.80558   0.00000   0.01267  Uiso   1.00
Cd10   Cd    0.23194   0.19442   0.00000   0.01267  Uiso   1.00
C1     C     0.56539   0.33618   0.65390   0.01267  Uiso   1.00
C2     C     0.14580   0.79020   0.38770   0.01267  Uiso   1.00
C3     C     0.43461   0.66382   0.65390   0.01267  Uiso   1.00
C4     C     0.85420   0.20980   0.38770   0.01267  Uiso   1.00
C5     C     0.77079   0.33618   0.84610   0.01267  Uiso   1.00
C6     C     0.64440   0.79020   0.11230   0.01267  Uiso   1.00
C7     C     0.22921   0.66382   0.84610   0.01267  Uiso   1.00
C8     C     0.35560   0.20980   0.11230   0.01267  Uiso   1.00
C9     C     0.43461   0.66382   0.34610   0.01267  Uiso   1.00
C10    C     0.85420   0.20980   0.61230   0.01267  Uiso   1.00
C11    C     0.56539   0.33618   0.34610   0.01267  Uiso   1.00
C12    C     0.14580   0.79020   0.61230   0.01267  Uiso   1.00
C13    C     0.22921   0.66382   0.15390   0.01267  Uiso   1.00
C14    C     0.35560   0.20980   0.88770   0.01267  Uiso   1.00
C15    C     0.77079   0.33618   0.15390   0.01267  Uiso   1.00
C16    C     0.64440   0.79020   0.88770   0.01267  Uiso   1.00
C17    C     0.52400   0.04800   0.75000   0.01267  Uiso   1.00
C18    C     0.47600   0.95200   0.75000   0.01267  Uiso   1.00
C19    C     0.47600   0.95200   0.25000   0.01267  Uiso   1.00
C20    C     0.52400   0.04800   0.25000   0.01267  Uiso   1.00
C21    C     0.82830   0.68020   0.50000   0.01267  Uiso   1.00
C22    C     0.01110   0.96020   0.50000   0.01267  Uiso   1.00
C23    C     0.17170   0.31980   0.50000   0.01267  Uiso   1.00
C24    C     0.98890   0.03980   0.50000   0.01267  Uiso   1.00
C25    C     0.85190   0.68020   0.00000   0.01267  Uiso   1.00
C26    C     0.94910   0.96020   0.00000   0.01267  Uiso   1.00
C27    C     0.14810   0.31980   0.00000   0.01267  Uiso   1.00
C28    C     0.05090   0.03980   0.00000   0.01267  Uiso   1.00
N1     N     0.53952   0.38924   0.60710   0.01267  Uiso   1.00
N2     N     0.43180   0.22200   0.83800   0.01267  Uiso   1.00
N3     N     0.46048   0.61076   0.60710   0.01267  Uiso   1.00
N4     N     0.56820   0.77800   0.83800   0.01267  Uiso   1.00
N5     N     0.84972   0.38924   0.89290   0.01267  Uiso   1.00
N6     N     0.79020   0.22200   0.66200   0.01267  Uiso   1.00
N7     N     0.15028   0.61076   0.89290   0.01267  Uiso   1.00
N8     N     0.20980   0.77800   0.66200   0.01267  Uiso   1.00
N9     N     0.46048   0.61076   0.39290   0.01267  Uiso   1.00
N10    N     0.56820   0.77800   0.16200   0.01267  Uiso   1.00
N11    N     0.53952   0.38924   0.39290   0.01267  Uiso   1.00
N12    N     0.43180   0.22200   0.16200   0.01267  Uiso   1.00
N13    N     0.15028   0.61076   0.10710   0.01267  Uiso   1.00
N14    N     0.20980   0.77800   0.33800   0.01267  Uiso   1.00
N15    N     0.84972   0.38924   0.10710   0.01267  Uiso   1.00
N16    N     0.79020   0.22200   0.33800   0.01267  Uiso   1.00
N17    N     0.72010   0.61840   0.50000   0.01267  Uiso   1.00
N18    N     0.27990   0.38160   0.50000   0.01267  Uiso   1.00
N19    N     0.89830   0.61840   0.00000   0.01267  Uiso   1.00
N20    N     0.10170   0.38160   0.00000   0.01267  Uiso   1.00
H1     H     0.27880   0.27420   0.67700   0.01267  Uiso   1.00
H2     H     0.18900   0.08380   0.67610   0.01267  Uiso   1.00
H3     H     0.72120   0.72580   0.67700   0.01267  Uiso   1.00
H4     H     0.81100   0.91620   0.67610   0.01267  Uiso   1.00
H5     H     0.99540   0.27420   0.82300   0.01267  Uiso   1.00
H6     H     0.89480   0.08380   0.82390   0.01267  Uiso   1.00
H7     H     0.00460   0.72580   0.82300   0.01267  Uiso   1.00
H8     H     0.10520   0.91620   0.82390   0.01267  Uiso   1.00
C29    C     0.20100   0.23460   0.70710   0.01267  Uiso   1.00
C30    C     0.14760   0.12120   0.70600   0.01267  Uiso   1.00
C31    C     0.79900   0.76540   0.70710   0.01267  Uiso   1.00
C32    C     0.85240   0.87880   0.70600   0.01267  Uiso   1.00
C33    C     0.03360   0.23460   0.79290   0.01267  Uiso   1.00
C34    C     0.97360   0.12120   0.79400   0.01267  Uiso   1.00
C35    C     0.96640   0.76540   0.79290   0.01267  Uiso   1.00
C36    C     0.02640   0.87880   0.79400   0.01267  Uiso   1.00
C37    C     0.03100   0.06200   0.75000   0.01267  Uiso   1.00
C38    C     0.20620   0.41240   0.75000   0.01267  Uiso   1.00
C39    C     0.96900   0.93800   0.75000   0.01267  Uiso   1.00
C40    C     0.79380   0.58760   0.75000   0.01267  Uiso   1.00
N21    N     0.14500   0.29000   0.75000   0.01267  Uiso   1.00
N22    N     0.85500   0.71000   0.75000   0.01267  Uiso   1.00
H9     H     0.72120   0.72580   0.32300   0.01267  Uiso   1.00
H10    H     0.81100   0.91620   0.32390   0.01267  Uiso   1.00
H11    H     0.27880   0.27420   0.32300   0.01267  Uiso   1.00
H12    H     0.18900   0.08380   0.32390   0.01267  Uiso   1.00
H13    H     0.00460   0.72580   0.17700   0.01267  Uiso   1.00
H14    H     0.10520   0.91620   0.17610   0.01267  Uiso   1.00
H15    H     0.99540   0.27420   0.17700   0.01267  Uiso   1.00
H16    H     0.89480   0.08380   0.17610   0.01267  Uiso   1.00
C41    C     0.79900   0.76540   0.29290   0.01267  Uiso   1.00
C42    C     0.85240   0.87880   0.29400   0.01267  Uiso   1.00
C43    C     0.20100   0.23460   0.29290   0.01267  Uiso   1.00
C44    C     0.14760   0.12120   0.29400   0.01267  Uiso   1.00
C45    C     0.96640   0.76540   0.20710   0.01267  Uiso   1.00
C46    C     0.02640   0.87880   0.20600   0.01267  Uiso   1.00
C47    C     0.03360   0.23460   0.20710   0.01267  Uiso   1.00
C48    C     0.97360   0.12120   0.20600   0.01267  Uiso   1.00
C49    C     0.96900   0.93800   0.25000   0.01267  Uiso   1.00
C50    C     0.79380   0.58760   0.25000   0.01267  Uiso   1.00
C51    C     0.03100   0.06200   0.25000   0.01267  Uiso   1.00
C52    C     0.20620   0.41240   0.25000   0.01267  Uiso   1.00
N23    N     0.85500   0.71000   0.25000   0.01267  Uiso   1.00
N24    N     0.14500   0.29000   0.25000   0.01267  Uiso   1.00
