data_MODNOI_ion_b
_audit_creation_date              2014-07-02
_audit_creation_method            'Materials Studio'
_symmetry_space_group_name_H-M    'P1'
_symmetry_Int_Tables_number       1
_symmetry_cell_setting            triclinic
loop_
_symmetry_equiv_pos_as_xyz
  x,y,z
_cell_length_a                    13.7180
_cell_length_b                    27.2320
_cell_length_c                    13.6390
_cell_angle_alpha                 90.0000
_cell_angle_beta                  90.0000
_cell_angle_gamma                 90.0000
loop_
_atom_site_label
_atom_site_type_symbol
_atom_site_fract_x
_atom_site_fract_y
_atom_site_fract_z
_atom_site_U_iso_or_equiv
_atom_site_adp_type
_atom_site_occupancy
Cd1    Cd    0.83374   0.87367   0.99599   0.00000  Uiso   1.00
Cd2    Cd    0.47048   0.80752   0.13743   0.00000  Uiso   1.00
Cd3    Cd    0.22245   0.92530   0.89199   0.00000  Uiso   1.00
N4     N     0.68030   0.84980   0.04290   0.00000  Uiso   1.00
C5     C     0.61030   0.83490   0.07510   0.00000  Uiso   1.00
N6     N     0.89420   0.85810   0.15380   0.00000  Uiso   1.00
C7     C     0.92010   0.84170   0.22450   0.00000  Uiso   1.00
N8     N     0.99080   0.89820   0.94820   0.00000  Uiso   1.00
C9     C     0.06980   0.90450   0.92750   0.00000  Uiso   1.00
N10    N     0.77920   0.90140   0.84100   0.00000  Uiso   1.00
C11    C     0.75710   0.91070   0.76540   0.00000  Uiso   1.00
N12    N     0.37710   0.86690   0.03740   0.00000  Uiso   1.00
C13    C     0.32770   0.88760   0.99000   0.00000  Uiso   1.00
N14    N     0.80010   0.95530   0.05000   0.00000  Uiso   1.00
C15    C     0.78810   0.99400   0.07360   0.00000  Uiso   1.00
N16    N     0.87110   0.79490   0.94470   0.00000  Uiso   1.00
C17    C     0.90240   0.76070   0.91710   0.00000  Uiso   1.00
N19    N     0.54570   0.98410   0.24890   0.00000  Uiso   1.00
C20    C     0.56640   0.94870   0.18560   0.00000  Uiso   1.00
H21    H     0.59250   0.91940   0.20870   0.00000  Uiso   1.00
C22    C     0.55030   0.95410   0.08640   0.00000  Uiso   1.00
H23    H     0.56820   0.92940   0.04300   0.00000  Uiso   1.00
C24    C     0.50820   0.99590   0.05290   0.00000  Uiso   1.00
C25    C     0.48800   0.03340   0.11960   0.00000  Uiso   1.00
H26    H     0.45990   0.06250   0.09770   0.00000  Uiso   1.00
C27    C     0.50800   0.02760   0.21600   0.00000  Uiso   1.00
H28    H     0.49660   0.05310   0.25980   0.00000  Uiso   1.00
C29    C     0.56460   0.97700   0.35720   0.00000  Uiso   1.00
H30    H     0.51790   0.95430   0.38360   0.00000  Uiso   1.00
H31    H     0.55880   0.00800   0.39030   0.00000  Uiso   1.00
H32    H     0.62920   0.96420   0.36650   0.00000  Uiso   1.00
Cd33   Cd    0.66626   0.12633   0.49599   0.00000  Uiso   1.00
Cd34   Cd    0.02952   0.19248   0.63743   0.00000  Uiso   1.00
Cd35   Cd    0.27755   0.07470   0.39199   0.00000  Uiso   1.00
N36    N     0.81970   0.15020   0.54290   0.00000  Uiso   1.00
C37    C     0.88970   0.16510   0.57510   0.00000  Uiso   1.00
N38    N     0.60580   0.14190   0.65380   0.00000  Uiso   1.00
C39    C     0.57990   0.15830   0.72450   0.00000  Uiso   1.00
N40    N     0.50920   0.10180   0.44820   0.00000  Uiso   1.00
C41    C     0.43020   0.09550   0.42750   0.00000  Uiso   1.00
N42    N     0.72080   0.09860   0.34100   0.00000  Uiso   1.00
C43    C     0.74290   0.08930   0.26540   0.00000  Uiso   1.00
N44    N     0.12290   0.13310   0.53740   0.00000  Uiso   1.00
C45    C     0.17230   0.11240   0.49000   0.00000  Uiso   1.00
N46    N     0.69990   0.04470   0.55000   0.00000  Uiso   1.00
C47    C     0.71190   0.00600   0.57360   0.00000  Uiso   1.00
N48    N     0.62890   0.20510   0.44470   0.00000  Uiso   1.00
C49    C     0.59760   0.23930   0.41710   0.00000  Uiso   1.00
N51    N     0.95430   0.01590   0.74890   0.00000  Uiso   1.00
C52    C     0.93360   0.05130   0.68560   0.00000  Uiso   1.00
H53    H     0.90750   0.08060   0.70870   0.00000  Uiso   1.00
C54    C     0.94970   0.04590   0.58640   0.00000  Uiso   1.00
H55    H     0.93180   0.07060   0.54300   0.00000  Uiso   1.00
C56    C     0.99180   0.00410   0.55290   0.00000  Uiso   1.00
C57    C     0.01200   0.96660   0.61960   0.00000  Uiso   1.00
H58    H     0.04010   0.93750   0.59770   0.00000  Uiso   1.00
C59    C     0.99200   0.97240   0.71600   0.00000  Uiso   1.00
H60    H     0.00340   0.94690   0.75980   0.00000  Uiso   1.00
C61    C     0.93540   0.02300   0.85720   0.00000  Uiso   1.00
H62    H     0.98210   0.04570   0.88360   0.00000  Uiso   1.00
H63    H     0.94120   0.99200   0.89030   0.00000  Uiso   1.00
H64    H     0.87080   0.03580   0.86650   0.00000  Uiso   1.00
Cd65   Cd    0.16626   0.37367   0.50401   0.00000  Uiso   1.00
Cd66   Cd    0.52952   0.30752   0.36257   0.00000  Uiso   1.00
Cd67   Cd    0.77755   0.42530   0.60801   0.00000  Uiso   1.00
N68    N     0.31970   0.34980   0.45710   0.00000  Uiso   1.00
C69    C     0.38970   0.33490   0.42490   0.00000  Uiso   1.00
N70    N     0.10580   0.35810   0.34620   0.00000  Uiso   1.00
C71    C     0.07990   0.34170   0.27550   0.00000  Uiso   1.00
N72    N     0.00920   0.39820   0.55180   0.00000  Uiso   1.00
C73    C     0.93020   0.40450   0.57250   0.00000  Uiso   1.00
N74    N     0.22080   0.40140   0.65900   0.00000  Uiso   1.00
C75    C     0.24290   0.41070   0.73460   0.00000  Uiso   1.00
N76    N     0.62290   0.36690   0.46260   0.00000  Uiso   1.00
C77    C     0.67230   0.38760   0.51000   0.00000  Uiso   1.00
N78    N     0.19990   0.45530   0.45000   0.00000  Uiso   1.00
C79    C     0.21190   0.49400   0.42640   0.00000  Uiso   1.00
N80    N     0.12890   0.29490   0.55530   0.00000  Uiso   1.00
C81    C     0.09760   0.26070   0.58290   0.00000  Uiso   1.00
N83    N     0.45430   0.48410   0.25110   0.00000  Uiso   1.00
C84    C     0.43360   0.44870   0.31440   0.00000  Uiso   1.00
H85    H     0.40750   0.41940   0.29130   0.00000  Uiso   1.00
C86    C     0.44970   0.45410   0.41360   0.00000  Uiso   1.00
H87    H     0.43180   0.42940   0.45700   0.00000  Uiso   1.00
C88    C     0.49180   0.49590   0.44710   0.00000  Uiso   1.00
C89    C     0.51200   0.53340   0.38040   0.00000  Uiso   1.00
H90    H     0.54010   0.56250   0.40230   0.00000  Uiso   1.00
C91    C     0.49200   0.52760   0.28400   0.00000  Uiso   1.00
H92    H     0.50340   0.55310   0.24020   0.00000  Uiso   1.00
C93    C     0.43540   0.47700   0.14280   0.00000  Uiso   1.00
H94    H     0.48210   0.45430   0.11640   0.00000  Uiso   1.00
H95    H     0.44120   0.50800   0.10970   0.00000  Uiso   1.00
H96    H     0.37080   0.46420   0.13350   0.00000  Uiso   1.00
Cd97   Cd    0.33374   0.62633   0.00401   0.00000  Uiso   1.00
Cd98   Cd    0.97048   0.69248   0.86257   0.00000  Uiso   1.00
Cd99   Cd    0.72245   0.57470   0.10801   0.00000  Uiso   1.00
N100   N     0.18030   0.65020   0.95710   0.00000  Uiso   1.00
C101   C     0.11030   0.66510   0.92490   0.00000  Uiso   1.00
N102   N     0.39420   0.64190   0.84620   0.00000  Uiso   1.00
C103   C     0.42010   0.65830   0.77550   0.00000  Uiso   1.00
N104   N     0.49080   0.60180   0.05180   0.00000  Uiso   1.00
C105   C     0.56980   0.59550   0.07250   0.00000  Uiso   1.00
N106   N     0.27920   0.59860   0.15900   0.00000  Uiso   1.00
C107   C     0.25710   0.58930   0.23460   0.00000  Uiso   1.00
N108   N     0.87710   0.63310   0.96260   0.00000  Uiso   1.00
C109   C     0.82770   0.61240   0.01000   0.00000  Uiso   1.00
N110   N     0.30010   0.54470   0.95000   0.00000  Uiso   1.00
C111   C     0.28810   0.50600   0.92640   0.00000  Uiso   1.00
N112   N     0.37110   0.70510   0.05530   0.00000  Uiso   1.00
C113   C     0.40240   0.73930   0.08290   0.00000  Uiso   1.00
N115   N     0.04570   0.51590   0.75110   0.00000  Uiso   1.00
C116   C     0.06640   0.55130   0.81440   0.00000  Uiso   1.00
H117   H     0.09250   0.58060   0.79130   0.00000  Uiso   1.00
C118   C     0.05030   0.54590   0.91360   0.00000  Uiso   1.00
H119   H     0.06820   0.57060   0.95700   0.00000  Uiso   1.00
C120   C     0.00820   0.50410   0.94710   0.00000  Uiso   1.00
C121   C     0.98800   0.46660   0.88040   0.00000  Uiso   1.00
H122   H     0.95990   0.43750   0.90230   0.00000  Uiso   1.00
C123   C     0.00800   0.47240   0.78400   0.00000  Uiso   1.00
H124   H     0.99660   0.44690   0.74020   0.00000  Uiso   1.00
C125   C     0.06460   0.52300   0.64280   0.00000  Uiso   1.00
H126   H     0.01790   0.54570   0.61640   0.00000  Uiso   1.00
H127   H     0.05880   0.49200   0.60970   0.00000  Uiso   1.00
H128   H     0.12920   0.53580   0.63350   0.00000  Uiso   1.00
Cd129  Cd    0.16626   0.12633   0.00401   0.00000  Uiso   1.00
Cd130  Cd    0.52952   0.19248   0.86257   0.00000  Uiso   1.00
Cd131  Cd    0.77755   0.07470   0.10801   0.00000  Uiso   1.00
N132   N     0.31970   0.15020   0.95710   0.00000  Uiso   1.00
C133   C     0.38970   0.16510   0.92490   0.00000  Uiso   1.00
N134   N     0.10580   0.14190   0.84620   0.00000  Uiso   1.00
C135   C     0.07990   0.15830   0.77550   0.00000  Uiso   1.00
N136   N     0.00920   0.10180   0.05180   0.00000  Uiso   1.00
C137   C     0.93020   0.09550   0.07250   0.00000  Uiso   1.00
N138   N     0.22080   0.09860   0.15900   0.00000  Uiso   1.00
C139   C     0.24290   0.08930   0.23460   0.00000  Uiso   1.00
N140   N     0.62290   0.13310   0.96260   0.00000  Uiso   1.00
C141   C     0.67230   0.11240   0.01000   0.00000  Uiso   1.00
N142   N     0.19990   0.04470   0.95000   0.00000  Uiso   1.00
C143   C     0.21190   0.00600   0.92640   0.00000  Uiso   1.00
N144   N     0.12890   0.20510   0.05530   0.00000  Uiso   1.00
C145   C     0.09760   0.23930   0.08290   0.00000  Uiso   1.00
N147   N     0.45430   0.01590   0.75110   0.00000  Uiso   1.00
C148   C     0.43360   0.05130   0.81440   0.00000  Uiso   1.00
H149   H     0.40750   0.08060   0.79130   0.00000  Uiso   1.00
C150   C     0.44970   0.04590   0.91360   0.00000  Uiso   1.00
H151   H     0.43180   0.07060   0.95700   0.00000  Uiso   1.00
C152   C     0.49180   0.00410   0.94710   0.00000  Uiso   1.00
C153   C     0.51200   0.96660   0.88040   0.00000  Uiso   1.00
H154   H     0.54010   0.93750   0.90230   0.00000  Uiso   1.00
C155   C     0.49200   0.97240   0.78400   0.00000  Uiso   1.00
H156   H     0.50340   0.94690   0.74020   0.00000  Uiso   1.00
C157   C     0.43540   0.02300   0.64280   0.00000  Uiso   1.00
H158   H     0.48210   0.04570   0.61640   0.00000  Uiso   1.00
H159   H     0.44120   0.99200   0.60970   0.00000  Uiso   1.00
H160   H     0.37080   0.03580   0.63350   0.00000  Uiso   1.00
Cd161  Cd    0.33374   0.87367   0.50401   0.00000  Uiso   1.00
Cd162  Cd    0.97048   0.80752   0.36257   0.00000  Uiso   1.00
Cd163  Cd    0.72245   0.92530   0.60801   0.00000  Uiso   1.00
N164   N     0.18030   0.84980   0.45710   0.00000  Uiso   1.00
C165   C     0.11030   0.83490   0.42490   0.00000  Uiso   1.00
N166   N     0.39420   0.85810   0.34620   0.00000  Uiso   1.00
C167   C     0.42010   0.84170   0.27550   0.00000  Uiso   1.00
N168   N     0.49080   0.89820   0.55180   0.00000  Uiso   1.00
C169   C     0.56980   0.90450   0.57250   0.00000  Uiso   1.00
N170   N     0.27920   0.90140   0.65900   0.00000  Uiso   1.00
C171   C     0.25710   0.91070   0.73460   0.00000  Uiso   1.00
N172   N     0.87710   0.86690   0.46260   0.00000  Uiso   1.00
C173   C     0.82770   0.88760   0.51000   0.00000  Uiso   1.00
N174   N     0.30010   0.95530   0.45000   0.00000  Uiso   1.00
C175   C     0.28810   0.99400   0.42640   0.00000  Uiso   1.00
N176   N     0.37110   0.79490   0.55530   0.00000  Uiso   1.00
C177   C     0.40240   0.76070   0.58290   0.00000  Uiso   1.00
N179   N     0.04570   0.98410   0.25110   0.00000  Uiso   1.00
C180   C     0.06640   0.94870   0.31440   0.00000  Uiso   1.00
H181   H     0.09250   0.91940   0.29130   0.00000  Uiso   1.00
C182   C     0.05030   0.95410   0.41360   0.00000  Uiso   1.00
H183   H     0.06820   0.92940   0.45700   0.00000  Uiso   1.00
C184   C     0.00820   0.99590   0.44710   0.00000  Uiso   1.00
C185   C     0.98800   0.03340   0.38040   0.00000  Uiso   1.00
H186   H     0.95990   0.06250   0.40230   0.00000  Uiso   1.00
C187   C     0.00800   0.02760   0.28400   0.00000  Uiso   1.00
H188   H     0.99660   0.05310   0.24020   0.00000  Uiso   1.00
C189   C     0.06460   0.97700   0.14280   0.00000  Uiso   1.00
H190   H     0.01790   0.95430   0.11640   0.00000  Uiso   1.00
H191   H     0.05880   0.00800   0.10970   0.00000  Uiso   1.00
H192   H     0.12920   0.96420   0.13350   0.00000  Uiso   1.00
Cd193  Cd    0.83374   0.62633   0.49599   0.00000  Uiso   1.00
Cd194  Cd    0.47048   0.69248   0.63743   0.00000  Uiso   1.00
Cd195  Cd    0.22245   0.57470   0.39199   0.00000  Uiso   1.00
N196   N     0.68030   0.65020   0.54290   0.00000  Uiso   1.00
C197   C     0.61030   0.66510   0.57510   0.00000  Uiso   1.00
N198   N     0.89420   0.64190   0.65380   0.00000  Uiso   1.00
C199   C     0.92010   0.65830   0.72450   0.00000  Uiso   1.00
N200   N     0.99080   0.60180   0.44820   0.00000  Uiso   1.00
C201   C     0.06980   0.59550   0.42750   0.00000  Uiso   1.00
N202   N     0.77920   0.59860   0.34100   0.00000  Uiso   1.00
C203   C     0.75710   0.58930   0.26540   0.00000  Uiso   1.00
N204   N     0.37710   0.63310   0.53740   0.00000  Uiso   1.00
C205   C     0.32770   0.61240   0.49000   0.00000  Uiso   1.00
N206   N     0.80010   0.54470   0.55000   0.00000  Uiso   1.00
C207   C     0.78810   0.50600   0.57360   0.00000  Uiso   1.00
N208   N     0.87110   0.70510   0.44470   0.00000  Uiso   1.00
C209   C     0.90240   0.73930   0.41710   0.00000  Uiso   1.00
N211   N     0.54570   0.51590   0.74890   0.00000  Uiso   1.00
C212   C     0.56640   0.55130   0.68560   0.00000  Uiso   1.00
H213   H     0.59250   0.58060   0.70870   0.00000  Uiso   1.00
C214   C     0.55030   0.54590   0.58640   0.00000  Uiso   1.00
H215   H     0.56820   0.57060   0.54300   0.00000  Uiso   1.00
C216   C     0.50820   0.50410   0.55290   0.00000  Uiso   1.00
C217   C     0.48800   0.46660   0.61960   0.00000  Uiso   1.00
H218   H     0.45990   0.43750   0.59770   0.00000  Uiso   1.00
C219   C     0.50800   0.47240   0.71600   0.00000  Uiso   1.00
H220   H     0.49660   0.44690   0.75980   0.00000  Uiso   1.00
C221   C     0.56460   0.52300   0.85720   0.00000  Uiso   1.00
H222   H     0.51790   0.54570   0.88360   0.00000  Uiso   1.00
H223   H     0.55880   0.49200   0.89030   0.00000  Uiso   1.00
H224   H     0.62920   0.53580   0.86650   0.00000  Uiso   1.00
Cd225  Cd    0.66626   0.37367   0.99599   0.00000  Uiso   1.00
Cd226  Cd    0.02952   0.30752   0.13743   0.00000  Uiso   1.00
Cd227  Cd    0.27755   0.42530   0.89199   0.00000  Uiso   1.00
N228   N     0.81970   0.34980   0.04290   0.00000  Uiso   1.00
C229   C     0.88970   0.33490   0.07510   0.00000  Uiso   1.00
N230   N     0.60580   0.35810   0.15380   0.00000  Uiso   1.00
C231   C     0.57990   0.34170   0.22450   0.00000  Uiso   1.00
N232   N     0.50920   0.39820   0.94820   0.00000  Uiso   1.00
C233   C     0.43020   0.40450   0.92750   0.00000  Uiso   1.00
N234   N     0.72080   0.40140   0.84100   0.00000  Uiso   1.00
C235   C     0.74290   0.41070   0.76540   0.00000  Uiso   1.00
N236   N     0.12290   0.36690   0.03740   0.00000  Uiso   1.00
C237   C     0.17230   0.38760   0.99000   0.00000  Uiso   1.00
N238   N     0.69990   0.45530   0.05000   0.00000  Uiso   1.00
C239   C     0.71190   0.49400   0.07360   0.00000  Uiso   1.00
N240   N     0.62890   0.29490   0.94470   0.00000  Uiso   1.00
C241   C     0.59760   0.26070   0.91710   0.00000  Uiso   1.00
N243   N     0.95430   0.48410   0.24890   0.00000  Uiso   1.00
C244   C     0.93360   0.44870   0.18560   0.00000  Uiso   1.00
H245   H     0.90750   0.41940   0.20870   0.00000  Uiso   1.00
C246   C     0.94970   0.45410   0.08640   0.00000  Uiso   1.00
H247   H     0.93180   0.42940   0.04300   0.00000  Uiso   1.00
C248   C     0.99180   0.49590   0.05290   0.00000  Uiso   1.00
C249   C     0.01200   0.53340   0.11960   0.00000  Uiso   1.00
H250   H     0.04010   0.56250   0.09770   0.00000  Uiso   1.00
C251   C     0.99200   0.52760   0.21600   0.00000  Uiso   1.00
H252   H     0.00340   0.55310   0.25980   0.00000  Uiso   1.00
C253   C     0.93540   0.47700   0.35720   0.00000  Uiso   1.00
H254   H     0.98210   0.45430   0.38360   0.00000  Uiso   1.00
H255   H     0.94120   0.50800   0.39030   0.00000  Uiso   1.00
H256   H     0.87080   0.46420   0.36650   0.00000  Uiso   1.00
loop_
_geom_bond_atom_site_label_1
_geom_bond_atom_site_label_2
_geom_bond_distance
_geom_bond_site_symmetry_2
_ccdc_geom_bond_type
Cd1    N8      2.348   .     S
Cd1    N10     2.366   .     S
Cd1    N16     2.314   .     S
Cd1    N4      2.294   1_556 S
Cd1    N6      2.345   1_556 S
Cd1    N14     2.387   1_556 S
Cd2    C5      2.227   .     S
Cd2    C113    2.208   .     S
Cd2    C167    2.211   .     S
Cd3    C9      2.223   .     S
Cd3    C13     2.219   .     S
Cd3    C171    2.234   .     S
Cd3    C143    2.252   1_565 S
N4     C5      1.131   .     T
N4     Cd1     2.294   1_554 S
N6     C7      1.121   .     T
N6     Cd1     2.345   1_554 S
C7     Cd162   2.211   .     S
N8     C9      1.133   1_655 S
C9     N8      1.133   1_455 S
N10    C11     1.104   .     T
C11    Cd163   2.234   .     S
N12    C13     1.093   1_554 S
C13    N12     1.093   1_556 S
N14    C15     1.114   .     T
N14    Cd1     2.387   1_554 S
C15    Cd131   2.252   1_565 S
N16    C17     1.092   .     T
C17    Cd98    2.208   .     S
N19    C20     1.325   .     S
N19    C29     1.512   .     S
N19    C27     1.368   1_565 T
C20    H21     0.930   .     S
C20    C22     1.379   .     D
C22    H23     0.929   .     S
C22    C24     1.356   .     S
C24    C25     1.395   1_565 S
C24    C152    1.477   1_564 T
C25    H26     0.930   .     S
C25    C27     1.352   .     D
C25    C24     1.395   1_545 S
C27    H28     0.929   .     S
C27    N19     1.368   1_545 T
C29    H30     0.960   .     S
C29    H32     0.961   .     S
C29    H31     0.961   1_565 S
H31    C29     0.961   1_545 S
Cd33   N36     2.294   .     S
Cd33   N38     2.345   .     S
Cd33   N40     2.348   .     S
Cd33   N42     2.366   .     S
Cd33   N46     2.387   .     S
Cd33   N48     2.314   .     S
Cd34   C81     2.208   .     S
Cd34   C135    2.211   .     S
Cd34   C37     2.227   1_455 S
Cd35   C41     2.223   .     S
Cd35   C45     2.219   .     S
Cd35   C139    2.234   .     S
Cd35   C175    2.252   1_545 D
N36    C37     1.131   .     T
C37    Cd34    2.227   1_655 S
N38    C39     1.121   .     T
C39    Cd130   2.211   .     S
N40    C41     1.133   .     T
N42    C43     1.104   .     T
C43    Cd131   2.234   .     S
N44    C45     1.093   .     T
N46    C47     1.114   .     T
C47    Cd163   2.252   1_545 S
N48    C49     1.092   .     T
C49    Cd66    2.208   .     S
N51    C52     1.325   .     S
N51    C61     1.512   .     S
N51    C59     1.368   1_545 S
C52    H53     0.930   .     S
C52    C54     1.379   .     D
C54    H55     0.929   .     S
C54    C56     1.356   .     S
C56    C57     1.395   1_645 D
C56    C184    1.477   1_645 S
C57    H58     0.930   .     S
C57    C56     1.395   1_465 D
C57    C59     1.352   1_455 S
C59    N51     1.368   1_565 S
C59    C57     1.352   1_655 S
C59    H60     0.929   1_655 S
H60    C59     0.929   1_455 S
C61    H62     0.960   .     S
C61    H64     0.961   .     S
C61    H63     0.961   1_545 S
H63    C61     0.961   1_565 S
Cd65   N68     2.294   .     S
Cd65   N70     2.345   .     S
Cd65   N72     2.348   .     S
Cd65   N74     2.366   .     S
Cd65   N78     2.387   .     S
Cd65   N80     2.314   .     S
Cd66   C69     2.227   .     S
Cd66   C231    2.211   .     S
Cd67   C73     2.223   .     S
Cd67   C77     2.219   .     S
Cd67   C207    2.252   .     S
Cd67   C235    2.234   .     S
N68    C69     1.131   .     T
N70    C71     1.121   .     T
C71    Cd226   2.211   .     S
N72    C73     1.133   1_455 S
C73    N72     1.133   1_655 S
N74    C75     1.104   .     T
C75    Cd227   2.234   .     S
N76    C77     1.093   .     T
N78    C79     1.114   .     T
C79    Cd195   2.252   .     S
N80    C81     1.092   .     T
N83    C84     1.325   .     S
N83    C91     1.368   .     S
N83    C93     1.512   .     S
C84    H85     0.930   .     S
C84    C86     1.379   .     D
C86    H87     0.929   .     S
C86    C88     1.356   .     S
C88    C89     1.395   .     S
C88    C216    1.477   .     D
C89    H90     0.930   .     S
C89    C91     1.352   .     D
C91    H92     0.929   .     S
C93    H94     0.960   .     S
C93    H95     0.961   .     S
C93    H96     0.961   .     S
Cd97   N104    2.348   .     S
Cd97   N106    2.366   .     S
Cd97   N112    2.314   .     S
Cd97   N100    2.294   1_554 S
Cd97   N102    2.345   1_554 S
Cd97   N110    2.387   1_554 S
Cd98   C199    2.211   .     S
Cd98   C101    2.227   1_655 T
Cd99   C105    2.223   .     S
Cd99   C109    2.219   .     S
Cd99   C203    2.234   .     S
Cd99   C239    2.252   .     S
N100   C101    1.131   .     T
N100   Cd97    2.294   1_556 S
C101   Cd98    2.227   1_455 T
N102   C103    1.121   .     T
N102   Cd97    2.345   1_556 S
C103   Cd194   2.211   .     S
N104   C105    1.133   .     T
N106   C107    1.104   .     T
C107   Cd195   2.234   .     S
N108   C109    1.093   1_556 T
C109   N108    1.093   1_554 T
N110   C111    1.114   .     T
N110   Cd97    2.387   1_556 S
C111   Cd227   2.252   .     S
N112   C113    1.092   .     T
N115   C116    1.325   .     S
N115   C123    1.368   .     S
N115   C125    1.512   .     S
C116   H117    0.930   .     S
C116   C118    1.379   .     D
C118   H119    0.929   .     S
C118   C120    1.356   .     S
C120   C121    1.395   1_455 T
C120   C248    1.477   1_456 T
C121   H122    0.930   .     S
C121   C120    1.395   1_655 T
C121   C123    1.352   1_655 S
C123   C121    1.352   1_455 S
C123   H124    0.929   1_455 S
H124   C123    0.929   1_655 S
C125   H126    0.960   .     S
C125   H127    0.961   .     S
C125   H128    0.961   .     S
Cd129  N136    2.348   .     S
Cd129  N138    2.366   .     S
Cd129  N144    2.314   .     S
Cd129  N132    2.294   1_554 S
Cd129  N134    2.345   1_554 S
Cd129  N142    2.387   1_554 S
Cd130  C133    2.227   .     S
Cd130  C241    2.208   .     S
Cd131  C137    2.223   .     S
Cd131  C141    2.219   .     S
Cd131  C15     2.252   1_545 S
N132   C133    1.131   .     T
N132   Cd129   2.294   1_556 S
N134   C135    1.121   .     T
N134   Cd129   2.345   1_556 S
N136   C137    1.133   1_455 S
C137   N136    1.133   1_655 S
N138   C139    1.104   .     T
N140   C141    1.093   1_556 S
C141   N140    1.093   1_554 S
N142   C143    1.114   .     T
N142   Cd129   2.387   1_556 S
C143   Cd3     2.252   1_545 S
N144   C145    1.092   .     T
C145   Cd226   2.208   .     S
N147   C148    1.325   .     S
N147   C157    1.512   .     S
N147   C155    1.368   1_545 S
C148   H149    0.930   .     S
C148   C150    1.379   .     D
C150   H151    0.929   .     S
C150   C152    1.356   .     S
C152   C24     1.477   1_546 T
C152   C153    1.395   1_545 S
C153   H154    0.930   .     S
C153   C155    1.352   .     D
C153   C152    1.395   1_565 S
C155   H156    0.929   .     S
C155   N147    1.368   1_565 S
C157   H158    0.960   .     S
C157   H160    0.961   .     S
C157   H159    0.961   1_545 T
H159   C157    0.961   1_565 T
Cd161  N164    2.294   .     S
Cd161  N166    2.345   .     S
Cd161  N168    2.348   .     S
Cd161  N170    2.366   .     S
Cd161  N174    2.387   .     S
Cd161  N176    2.314   .     S
Cd162  C209    2.208   .     S
Cd162  C165    2.227   1_655 S
Cd163  C169    2.223   .     S
Cd163  C173    2.219   .     S
Cd163  C47     2.252   1_565 S
N164   C165    1.131   .     T
C165   Cd162   2.227   1_455 S
N166   C167    1.121   .     T
N168   C169    1.133   .     T
N170   C171    1.104   .     T
N172   C173    1.093   .     T
N174   C175    1.114   .     T
C175   Cd35    2.252   1_565 D
N176   C177    1.092   .     T
C177   Cd194   2.208   .     S
N179   C180    1.325   .     S
N179   C189    1.512   .     S
N179   C187    1.368   1_565 T
C180   H181    0.930   .     S
C180   C182    1.379   .     D
C182   H183    0.929   .     S
C182   C184    1.356   .     S
C184   C56     1.477   1_465 S
C184   C185    1.395   1_465 T
C185   H186    0.930   .     S
C185   C184    1.395   1_645 T
C185   C187    1.352   1_655 S
C187   N179    1.368   1_545 T
C187   C185    1.352   1_455 S
C187   H188    0.929   1_455 D
H188   C187    0.929   1_655 D
C189   H190    0.960   .     S
C189   H192    0.961   .     S
C189   H191    0.961   1_565 S
H191   C189    0.961   1_545 S
Cd193  N196    2.294   .     S
Cd193  N198    2.345   .     S
Cd193  N200    2.348   .     S
Cd193  N202    2.366   .     S
Cd193  N206    2.387   .     S
Cd193  N208    2.314   .     S
Cd194  C197    2.227   .     S
Cd195  C201    2.223   .     S
Cd195  C205    2.219   .     S
N196   C197    1.131   .     T
N198   C199    1.121   .     T
N200   C201    1.133   1_655 D
C201   N200    1.133   1_455 D
N202   C203    1.104   .     T
N204   C205    1.093   .     T
N206   C207    1.114   .     T
N208   C209    1.092   .     T
N211   C212    1.325   .     S
N211   C219    1.368   .     S
N211   C221    1.512   .     S
C212   H213    0.930   .     S
C212   C214    1.379   .     D
C214   H215    0.929   .     S
C214   C216    1.356   .     S
C216   C217    1.395   .     S
C217   H218    0.930   .     S
C217   C219    1.352   .     D
C219   H220    0.929   .     S
C221   H222    0.960   .     S
C221   H223    0.961   .     S
C221   H224    0.961   .     S
Cd225  N232    2.348   .     S
Cd225  N234    2.366   .     S
Cd225  N240    2.314   .     S
Cd225  N228    2.294   1_556 D
Cd225  N230    2.345   1_556 S
Cd225  N238    2.387   1_556 S
Cd226  C229    2.227   1_455 S
Cd227  C233    2.223   .     S
Cd227  C237    2.219   .     S
N228   C229    1.131   .     T
N228   Cd225   2.294   1_554 D
C229   Cd226   2.227   1_655 S
N230   C231    1.121   .     T
N230   Cd225   2.345   1_554 S
N232   C233    1.133   .     T
N234   C235    1.104   .     T
N236   C237    1.093   1_554 S
C237   N236    1.093   1_556 S
N238   C239    1.114   .     T
N238   Cd225   2.387   1_554 S
N240   C241    1.092   .     T
N243   C244    1.325   .     S
N243   C251    1.368   .     S
N243   C253    1.512   .     S
C244   H245    0.930   .     S
C244   C246    1.379   .     D
C246   H247    0.929   .     S
C246   C248    1.356   .     S
C248   C120    1.477   1_654 T
C248   C249    1.395   1_655 S
C249   H250    0.930   .     S
C249   C248    1.395   1_455 S
C249   C251    1.352   1_455 T
C251   C249    1.352   1_655 T
C251   H252    0.929   1_655 S
H252   C251    0.929   1_455 S
C253   H254    0.960   .     S
C253   H255    0.961   .     S
C253   H256    0.961   .     S
