data_MODPEA_charged
_audit_creation_date              2014-07-02
_audit_creation_method            'Materials Studio'
_symmetry_space_group_name_H-M    'P1'
_symmetry_Int_Tables_number       1
_symmetry_cell_setting            triclinic
loop_
_symmetry_equiv_pos_as_xyz
  x,y,z
_cell_length_a                    11.4002
_cell_length_b                    15.1863
_cell_length_c                    15.1863
_cell_angle_alpha                 62.0119
_cell_angle_beta                  67.9543
_cell_angle_gamma                 67.9542
loop_
_atom_site_label
_atom_site_type_symbol
_atom_site_fract_x
_atom_site_fract_y
_atom_site_fract_z
_atom_site_U_iso_or_equiv
_atom_site_adp_type
_atom_site_occupancy
Cd1    Cd    0.00000   0.00000   0.00000   0.01267  Uiso   1.00
Cd2    Cd    0.50000   0.50000   0.50000   0.01267  Uiso   1.00
Cd3    Cd    0.88090   0.61910   0.11910   0.01267  Uiso   1.00
Cd4    Cd    0.11910   0.88090   0.38090   0.01267  Uiso   1.00
Cd5    Cd    0.11910   0.38090   0.88090   0.01267  Uiso   1.00
Cd6    Cd    0.88090   0.11910   0.61910   0.01267  Uiso   1.00
Cd7    Cd    0.46147   0.13499   0.13499   0.01267  Uiso   1.00
Cd8    Cd    0.23145   0.36501   0.36501   0.01267  Uiso   1.00
Cd9    Cd    0.76855   0.63499   0.63499   0.01267  Uiso   1.00
Cd10   Cd    0.53853   0.86501   0.86501   0.01267  Uiso   1.00
C1     C     0.93471   0.76652   0.06866   0.01267  Uiso   1.00
C2     C     0.36424   0.24086   0.01146   0.01267  Uiso   1.00
C3     C     0.26989   0.73348   0.43134   0.01267  Uiso   1.00
C4     C     0.11656   0.25914   0.48854   0.01267  Uiso   1.00
C5     C     0.73011   0.56866   0.26652   0.01267  Uiso   1.00
C6     C     0.88344   0.51146   0.74086   0.01267  Uiso   1.00
C7     C     0.06529   0.93134   0.23348   0.01267  Uiso   1.00
C8     C     0.63576   0.98854   0.75914   0.01267  Uiso   1.00
C9     C     0.06529   0.23348   0.93134   0.01267  Uiso   1.00
C10    C     0.63576   0.75914   0.98854   0.01267  Uiso   1.00
C11    C     0.73011   0.26652   0.56866   0.01267  Uiso   1.00
C12    C     0.88344   0.74086   0.51146   0.01267  Uiso   1.00
C13    C     0.26989   0.43134   0.73348   0.01267  Uiso   1.00
C14    C     0.11656   0.48854   0.25914   0.01267  Uiso   1.00
C15    C     0.93471   0.06866   0.76652   0.01267  Uiso   1.00
C16    C     0.36424   0.01146   0.24086   0.01267  Uiso   1.00
C17    C     0.97587   0.52413   0.02413   0.01267  Uiso   1.00
C18    C     0.02413   0.97587   0.47587   0.01267  Uiso   1.00
C19    C     0.02413   0.47587   0.97587   0.01267  Uiso   1.00
C20    C     0.97587   0.02413   0.52413   0.01267  Uiso   1.00
C21    C     0.67278   0.08602   0.08602   0.01267  Uiso   1.00
C22    C     0.42280   0.22590   0.22590   0.01267  Uiso   1.00
C23    C     0.34482   0.41398   0.41398   0.01267  Uiso   1.00
C24    C     0.37460   0.27410   0.27410   0.01267  Uiso   1.00
C25    C     0.65518   0.58602   0.58602   0.01267  Uiso   1.00
C26    C     0.62540   0.72590   0.72590   0.01267  Uiso   1.00
C27    C     0.32722   0.91398   0.91398   0.01267  Uiso   1.00
C28    C     0.57720   0.77410   0.77410   0.01267  Uiso   1.00
N1     N     0.96363   0.83832   0.04942   0.01267  Uiso   1.00
N2     N     0.70065   0.70715   0.03895   0.01267  Uiso   1.00
N3     N     0.35137   0.66168   0.45058   0.01267  Uiso   1.00
N4     N     0.94675   0.79285   0.46105   0.01267  Uiso   1.00
N5     N     0.64863   0.54942   0.33832   0.01267  Uiso   1.00
N6     N     0.05325   0.53895   0.20715   0.01267  Uiso   1.00
N7     N     0.03637   0.95058   0.16168   0.01267  Uiso   1.00
N8     N     0.29935   0.96105   0.29285   0.01267  Uiso   1.00
N9     N     0.03637   0.16168   0.95058   0.01267  Uiso   1.00
N10    N     0.29935   0.29285   0.96105   0.01267  Uiso   1.00
N11    N     0.64863   0.33832   0.54942   0.01267  Uiso   1.00
N12    N     0.05325   0.20715   0.53895   0.01267  Uiso   1.00
N13    N     0.35137   0.45058   0.66168   0.01267  Uiso   1.00
N14    N     0.94675   0.46105   0.79285   0.01267  Uiso   1.00
N15    N     0.96363   0.04942   0.83832   0.01267  Uiso   1.00
N16    N     0.70065   0.03895   0.70715   0.01267  Uiso   1.00
N17    N     0.78132   0.06008   0.06008   0.01267  Uiso   1.00
N18    N     0.40148   0.43992   0.43992   0.01267  Uiso   1.00
N19    N     0.59852   0.56008   0.56008   0.01267  Uiso   1.00
N20    N     0.21868   0.93992   0.93992   0.01267  Uiso   1.00
H1     H     0.49770   0.57220   0.21060   0.01267  Uiso   1.00
H2     H     0.60320   0.47320   0.11340   0.01267  Uiso   1.00
H3     H     0.21950   0.71060   0.07220   0.01267  Uiso   1.00
H4     H     0.31020   0.61340   0.97320   0.01267  Uiso   1.00
H5     H     0.50230   0.42780   0.78940   0.01267  Uiso   1.00
H6     H     0.39680   0.52680   0.88660   0.01267  Uiso   1.00
H7     H     0.78050   0.28940   0.92780   0.01267  Uiso   1.00
H8     H     0.68980   0.38660   0.02680   0.01267  Uiso   1.00
C29    C     0.46085   0.58055   0.16115   0.01267  Uiso   1.00
C30    C     0.52416   0.52044   0.10364   0.01267  Uiso   1.00
C31    C     0.29745   0.66115   0.08055   0.01267  Uiso   1.00
C32    C     0.35176   0.60364   0.02044   0.01267  Uiso   1.00
C33    C     0.53915   0.41945   0.83885   0.01267  Uiso   1.00
C34    C     0.47584   0.47956   0.89636   0.01267  Uiso   1.00
C35    C     0.70255   0.33885   0.91945   0.01267  Uiso   1.00
C36    C     0.64824   0.39636   0.97956   0.01267  Uiso   1.00
C37    C     0.46882   0.53118   0.03118   0.01267  Uiso   1.00
C38    C     0.28840   0.71160   0.21160   0.01267  Uiso   1.00
C39    C     0.53118   0.46882   0.96882   0.01267  Uiso   1.00
C40    C     0.71160   0.28840   0.78840   0.01267  Uiso   1.00
N21    N     0.35166   0.64834   0.14834   0.01267  Uiso   1.00
N22    N     0.64834   0.35166   0.85166   0.01267  Uiso   1.00
H9     H     0.78050   0.92780   0.28940   0.01267  Uiso   1.00
H10    H     0.68980   0.02680   0.38660   0.01267  Uiso   1.00
H11    H     0.50230   0.78940   0.42780   0.01267  Uiso   1.00
H12    H     0.39680   0.88660   0.52680   0.01267  Uiso   1.00
H13    H     0.21950   0.07220   0.71060   0.01267  Uiso   1.00
H14    H     0.31020   0.97320   0.61340   0.01267  Uiso   1.00
H15    H     0.49770   0.21060   0.57220   0.01267  Uiso   1.00
H16    H     0.60320   0.11340   0.47320   0.01267  Uiso   1.00
C41    C     0.70255   0.91945   0.33885   0.01267  Uiso   1.00
C42    C     0.64824   0.97956   0.39636   0.01267  Uiso   1.00
C43    C     0.53915   0.83885   0.41945   0.01267  Uiso   1.00
C44    C     0.47584   0.89636   0.47956   0.01267  Uiso   1.00
C45    C     0.29745   0.08055   0.66115   0.01267  Uiso   1.00
C46    C     0.35176   0.02044   0.60364   0.01267  Uiso   1.00
C47    C     0.46085   0.16115   0.58055   0.01267  Uiso   1.00
C48    C     0.52416   0.10364   0.52044   0.01267  Uiso   1.00
C49    C     0.53118   0.96882   0.46882   0.01267  Uiso   1.00
C50    C     0.71160   0.78840   0.28840   0.01267  Uiso   1.00
C51    C     0.46882   0.03118   0.53118   0.01267  Uiso   1.00
C52    C     0.28840   0.21160   0.71160   0.01267  Uiso   1.00
N23    N     0.64834   0.85166   0.35166   0.01267  Uiso   1.00
N24    N     0.35166   0.14834   0.64834   0.01267  Uiso   1.00
