data_image0
_cell_length_a       10.145
_cell_length_b       10.8858
_cell_length_c       13.8515
_cell_angle_alpha    78.706
_cell_angle_beta     79.297
_cell_angle_gamma    86.253

_symmetry_space_group_name_H-M    "P 1"
_symmetry_int_tables_number       1

loop_
  _symmetry_equiv_pos_as_xyz
  'x, y, z'

loop_
  _atom_site_label
  _atom_site_occupancy
  _atom_site_fract_x
  _atom_site_fract_y
  _atom_site_fract_z
  _atom_site_thermal_displace_type
  _atom_site_B_iso_or_equiv
  _atom_site_type_symbol
  Tb1      1.0000 0.31989  0.92335  0.29664  Biso   1.000  Tb
  C1       1.0000 0.59530  0.90090  0.21420  Biso   1.000  C
  C2       1.0000 0.73780  0.88550  0.16690  Biso   1.000  C
  C3       1.0000 0.84370  0.89590  0.21430  Biso   1.000  C
  H1       1.0000 0.82680  0.91350  0.27860  Biso   1.000  H
  C4       1.0000 0.97250  0.88080  0.16790  Biso   1.000  C
  C5       1.0000 0.00030  0.85430  0.07200  Biso   1.000  C
  H2       1.0000 0.08850  0.84700  0.03950  Biso   1.000  H
  C6       1.0000 0.89390  0.83890  0.02530  Biso   1.000  C
  C7       1.0000 0.76420  0.85830  0.07050  Biso   1.000  C
  H3       1.0000 0.69380  0.85340  0.03710  Biso   1.000  H
  C8       1.0000 0.09210  0.89320  0.21570  Biso   1.000  C
  C9       1.0000 0.00390  0.70620  0.91100  Biso   1.000  C
  C10      1.0000 0.00890  0.66610  0.81340  Biso   1.000  C
  C11      1.0000 0.01490  0.74740  0.72220  Biso   1.000  C
  H4       1.0000 0.01210  0.83360  0.71880  Biso   1.000  H
  C12      1.0000 0.02520  0.69770  0.63610  Biso   1.000  C
  H5       1.0000 0.03460  0.75240  0.57480  Biso   1.000  H
  C13      1.0000 0.01610  0.49680  0.72580  Biso   1.000  C
  H6       1.0000 0.01540  0.41100  0.72750  Biso   1.000  H
  C14      1.0000 0.01090  0.53800  0.81530  Biso   1.000  C
  H7       1.0000 0.00870  0.48100  0.87510  Biso   1.000  H
  C15      1.0000 0.27180  0.60500  0.35310  Biso   1.000  C
  C16      1.0000 0.29980  0.52810  0.27320  Biso   1.000  C
  C17      1.0000 0.32310  0.58270  0.17190  Biso   1.000  C
  H8       1.0000 0.32960  0.66920  0.15330  Biso   1.000  H
  C18      1.0000 0.33660  0.51080  0.09860  Biso   1.000  C
  C19      1.0000 0.33540  0.38120  0.12590  Biso   1.000  C
  H9       1.0000 0.34690  0.33180  0.07710  Biso   1.000  H
  C20      1.0000 0.31690  0.32520  0.22740  Biso   1.000  C
  C21      1.0000 0.29880  0.39860  0.29970  Biso   1.000  C
  H10      1.0000 0.28570  0.36070  0.36690  Biso   1.000  H
  C22      1.0000 0.31260  0.18910  0.25250  Biso   1.000  C
  C23      1.0000 0.33370  0.51910  0.92080  Biso   1.000  C
  C24      1.0000 0.34820  0.60190  0.81890  Biso   1.000  C
  C25      1.0000 0.34800  0.73100  0.80080  Biso   1.000  C
  H11      1.0000 0.34440  0.77430  0.85280  Biso   1.000  H
  C26      1.0000 0.35350  0.79530  0.70240  Biso   1.000  C
  H12      1.0000 0.35310  0.88240  0.69050  Biso   1.000  H
  C27      1.0000 0.35910  0.61450  0.64270  Biso   1.000  C
  H13      1.0000 0.36210  0.57400  0.58910  Biso   1.000  H
  C28      1.0000 0.35500  0.54330  0.73670  Biso   1.000  C
  H14      1.0000 0.35660  0.45640  0.74570  Biso   1.000  H
  N1       1.0000 0.91800  0.80220  0.93020  Biso   1.000  N
  H15      1.0000 0.87690  0.84200  0.88390  Biso   1.000  H
  N2       1.0000 0.02230  0.57430  0.63740  Biso   1.000  N
  N3       1.0000 0.35420  0.57070  0.99700  Biso   1.000  N
  H16      1.0000 0.38030  0.64680  0.98290  Biso   1.000  H
  N4       1.0000 0.35910  0.73870  0.62530  Biso   1.000  N
  O1       1.0000 0.56210  0.90110  0.30790  Biso   1.000  O
  O2       1.0000 0.50560  0.91430  0.16210  Biso   1.000  O
  O3       1.0000 0.07250  0.90530  0.30780  Biso   1.000  O
  O4       1.0000 0.20530  0.88880  0.16630  Biso   1.000  O
  O5       1.0000 0.07630  0.65260  0.96870  Biso   1.000  O
  O6       1.0000 0.32150  0.71220  0.33340  Biso   1.000  O
  O7       1.0000 0.19930  0.56270  0.43340  Biso   1.000  O
  O8       1.0000 0.32580  0.13060  0.33900  Biso   1.000  O
  O9       1.0000 0.29560  0.12640  0.18900  Biso   1.000  O
  O10      1.0000 0.30550  0.41190  0.92870  Biso   1.000  O
  Tb2      1.0000 0.68011  0.07665  0.70336  Biso   1.000  Tb
  C29      1.0000 0.40470  0.09910  0.78580  Biso   1.000  C
  C30      1.0000 0.26220  0.11450  0.83310  Biso   1.000  C
  C31      1.0000 0.15630  0.10410  0.78570  Biso   1.000  C
  H17      1.0000 0.17320  0.08650  0.72140  Biso   1.000  H
  C32      1.0000 0.02750  0.11920  0.83210  Biso   1.000  C
  C33      1.0000 0.99970  0.14570  0.92800  Biso   1.000  C
  H18      1.0000 0.91150  0.15300  0.96050  Biso   1.000  H
  C34      1.0000 0.10610  0.16110  0.97470  Biso   1.000  C
  C35      1.0000 0.23580  0.14170  0.92950  Biso   1.000  C
  H19      1.0000 0.30620  0.14660  0.96290  Biso   1.000  H
  C36      1.0000 0.90790  0.10680  0.78430  Biso   1.000  C
  C37      1.0000 0.99610  0.29380  0.08900  Biso   1.000  C
  C38      1.0000 0.99110  0.33390  0.18660  Biso   1.000  C
  C39      1.0000 0.98510  0.25260  0.27780  Biso   1.000  C
  H20      1.0000 0.98790  0.16640  0.28120  Biso   1.000  H
  C40      1.0000 0.97480  0.30230  0.36390  Biso   1.000  C
  H21      1.0000 0.96540  0.24760  0.42520  Biso   1.000  H
  C41      1.0000 0.98390  0.50320  0.27420  Biso   1.000  C
  H22      1.0000 0.98460  0.58900  0.27250  Biso   1.000  H
  C42      1.0000 0.98910  0.46200  0.18470  Biso   1.000  C
  H23      1.0000 0.99130  0.51900  0.12490  Biso   1.000  H
  C43      1.0000 0.72820  0.39500  0.64690  Biso   1.000  C
  C44      1.0000 0.70020  0.47190  0.72680  Biso   1.000  C
  C45      1.0000 0.67690  0.41730  0.82810  Biso   1.000  C
  H24      1.0000 0.67040  0.33080  0.84670  Biso   1.000  H
  C46      1.0000 0.66340  0.48920  0.90140  Biso   1.000  C
  C47      1.0000 0.66460  0.61880  0.87410  Biso   1.000  C
  H25      1.0000 0.65310  0.66820  0.92290  Biso   1.000  H
  C48      1.0000 0.68310  0.67480  0.77260  Biso   1.000  C
  C49      1.0000 0.70120  0.60140  0.70030  Biso   1.000  C
  H26      1.0000 0.71430  0.63930  0.63310  Biso   1.000  H
  C50      1.0000 0.68740  0.81090  0.74750  Biso   1.000  C
  C51      1.0000 0.66630  0.48090  0.07920  Biso   1.000  C
  C52      1.0000 0.65180  0.39810  0.18110  Biso   1.000  C
  C53      1.0000 0.65200  0.26900  0.19920  Biso   1.000  C
  H27      1.0000 0.65560  0.22570  0.14720  Biso   1.000  H
  C54      1.0000 0.64650  0.20470  0.29760  Biso   1.000  C
  H28      1.0000 0.64690  0.11760  0.30950  Biso   1.000  H
  C55      1.0000 0.64090  0.38550  0.35730  Biso   1.000  C
  H29      1.0000 0.63790  0.42600  0.41090  Biso   1.000  H
  C56      1.0000 0.64500  0.45670  0.26330  Biso   1.000  C
  H30      1.0000 0.64340  0.54360  0.25430  Biso   1.000  H
  N5       1.0000 0.08200  0.19780  0.06980  Biso   1.000  N
  H31      1.0000 0.12310  0.15800  0.11610  Biso   1.000  H
  N6       1.0000 0.97770  0.42570  0.36260  Biso   1.000  N
  N7       1.0000 0.64580  0.42930  0.00300  Biso   1.000  N
  H32      1.0000 0.61970  0.35320  0.01710  Biso   1.000  H
  N8       1.0000 0.64090  0.26130  0.37470  Biso   1.000  N
  O11      1.0000 0.43790  0.09890  0.69210  Biso   1.000  O
  O12      1.0000 0.49440  0.08570  0.83790  Biso   1.000  O
  O13      1.0000 0.92750  0.09470  0.69220  Biso   1.000  O
  O14      1.0000 0.79470  0.11120  0.83370  Biso   1.000  O
  O15      1.0000 0.92370  0.34740  0.03130  Biso   1.000  O
  O16      1.0000 0.67850  0.28780  0.66660  Biso   1.000  O
  O17      1.0000 0.80070  0.43730  0.56660  Biso   1.000  O
  O18      1.0000 0.67420  0.86940  0.66100  Biso   1.000  O
  O19      1.0000 0.70440  0.87360  0.81100  Biso   1.000  O
  O20      1.0000 0.69450  0.58810  0.07130  Biso   1.000  O
  Mn1      1.0000 0.00000  0.50000  0.50000  Biso   1.000  Mn
