data_image0
_cell_length_a       9.7904
_cell_length_b       14.0287
_cell_length_c       11.8651
_cell_angle_alpha    90
_cell_angle_beta     104.69
_cell_angle_gamma    90

_symmetry_space_group_name_H-M    "P 1"
_symmetry_int_tables_number       1

loop_
  _symmetry_equiv_pos_as_xyz
  'x, y, z'

loop_
  _atom_site_label
  _atom_site_occupancy
  _atom_site_fract_x
  _atom_site_fract_y
  _atom_site_fract_z
  _atom_site_thermal_displace_type
  _atom_site_B_iso_or_equiv
  _atom_site_type_symbol
  Zn1      1.0000 0.37070  0.38779  0.14186  Biso   1.000  Zn
  Zn2      1.0000 0.58673  0.38501  0.45158  Biso   1.000  Zn
  Zn3      1.0000 0.99661  0.54473  0.82842  Biso   1.000  Zn
  P1       1.0000 0.09655  0.34971  0.92853  Biso   1.000  P
  P2       1.0000 0.70230  0.50289  0.66161  Biso   1.000  P
  P3       1.0000 0.69087  0.44587  0.21937  Biso   1.000  P
  O1       1.0000 0.69530  0.40110  0.61280  Biso   1.000  O
  O2       1.0000 0.85700  0.54160  0.67580  Biso   1.000  O
  O3       1.0000 0.00150  0.41760  0.88480  Biso   1.000  O
  O4       1.0000 0.67440  0.50060  0.78180  Biso   1.000  O
  O5       1.0000 0.25410  0.37690  0.98380  Biso   1.000  O
  O6       1.0000 0.60540  0.56890  0.57810  Biso   1.000  O
  O7       1.0000 0.06860  0.25070  0.91380  Biso   1.000  O
  O8       1.0000 0.68890  0.43590  0.34480  Biso   1.000  O
  O9       1.0000 0.56720  0.39660  0.13450  Biso   1.000  O
  O10      1.0000 0.68000  0.55550  0.19490  Biso   1.000  O
  O11      1.0000 0.82680  0.40940  0.19620  Biso   1.000  O
  O12      1.0000 0.06900  0.35170  0.08920  Biso   1.000  O
  H1       1.0000 0.69370  0.56820  0.12390  Biso   1.000  H
  Zn4      1.0000 0.12930  0.88779  0.35814  Biso   1.000  Zn
  Zn5      1.0000 0.91327  0.88501  0.04842  Biso   1.000  Zn
  Zn6      1.0000 0.50339  0.04473  0.67158  Biso   1.000  Zn
  P4       1.0000 0.40345  0.84971  0.57147  Biso   1.000  P
  P5       1.0000 0.79770  0.00289  0.83839  Biso   1.000  P
  P6       1.0000 0.80913  0.94587  0.28063  Biso   1.000  P
  O13      1.0000 0.80470  0.90110  0.88720  Biso   1.000  O
  O14      1.0000 0.64300  0.04160  0.82420  Biso   1.000  O
  O15      1.0000 0.49850  0.91760  0.61520  Biso   1.000  O
  O16      1.0000 0.82560  0.00060  0.71820  Biso   1.000  O
  O17      1.0000 0.24590  0.87690  0.51620  Biso   1.000  O
  O18      1.0000 0.89460  0.06890  0.92190  Biso   1.000  O
  O19      1.0000 0.43140  0.75070  0.58620  Biso   1.000  O
  O20      1.0000 0.81110  0.93590  0.15520  Biso   1.000  O
  O21      1.0000 0.93280  0.89660  0.36550  Biso   1.000  O
  O22      1.0000 0.82000  0.05550  0.30510  Biso   1.000  O
  O23      1.0000 0.67320  0.90940  0.30380  Biso   1.000  O
  O24      1.0000 0.43100  0.85170  0.41080  Biso   1.000  O
  H2       1.0000 0.80630  0.06820  0.37610  Biso   1.000  H
  Zn7      1.0000 0.62930  0.61221  0.85814  Biso   1.000  Zn
  Zn8      1.0000 0.41327  0.61499  0.54842  Biso   1.000  Zn
  Zn9      1.0000 0.00339  0.45527  0.17158  Biso   1.000  Zn
  P7       1.0000 0.90345  0.65029  0.07147  Biso   1.000  P
  P8       1.0000 0.29770  0.49711  0.33839  Biso   1.000  P
  P9       1.0000 0.30913  0.55413  0.78063  Biso   1.000  P
  O25      1.0000 0.30470  0.59890  0.38720  Biso   1.000  O
  O26      1.0000 0.14300  0.45840  0.32420  Biso   1.000  O
  O27      1.0000 0.99850  0.58240  0.11520  Biso   1.000  O
  O28      1.0000 0.32560  0.49940  0.21820  Biso   1.000  O
  O29      1.0000 0.74590  0.62310  0.01620  Biso   1.000  O
  O30      1.0000 0.39460  0.43110  0.42190  Biso   1.000  O
  O31      1.0000 0.93140  0.74930  0.08620  Biso   1.000  O
  O32      1.0000 0.31110  0.56410  0.65520  Biso   1.000  O
  O33      1.0000 0.43280  0.60340  0.86550  Biso   1.000  O
  O34      1.0000 0.32000  0.44450  0.80510  Biso   1.000  O
  O35      1.0000 0.17320  0.59060  0.80380  Biso   1.000  O
  O36      1.0000 0.93100  0.64830  0.91080  Biso   1.000  O
  H3       1.0000 0.30630  0.43180  0.87610  Biso   1.000  H
  Zn10     1.0000 0.87070  0.11221  0.64186  Biso   1.000  Zn
  Zn11     1.0000 0.08673  0.11499  0.95158  Biso   1.000  Zn
  Zn12     1.0000 0.49661  0.95527  0.32842  Biso   1.000  Zn
  P10      1.0000 0.59655  0.15029  0.42853  Biso   1.000  P
  P11      1.0000 0.20230  0.99711  0.16161  Biso   1.000  P
  P12      1.0000 0.19087  0.05413  0.71937  Biso   1.000  P
  O37      1.0000 0.19530  0.09890  0.11280  Biso   1.000  O
  O38      1.0000 0.35700  0.95840  0.17580  Biso   1.000  O
  O39      1.0000 0.50150  0.08240  0.38480  Biso   1.000  O
  O40      1.0000 0.17440  0.99940  0.28180  Biso   1.000  O
  O41      1.0000 0.75410  0.12310  0.48380  Biso   1.000  O
  O42      1.0000 0.10540  0.93110  0.07810  Biso   1.000  O
  O43      1.0000 0.56860  0.24930  0.41380  Biso   1.000  O
  O44      1.0000 0.18890  0.06410  0.84480  Biso   1.000  O
  O45      1.0000 0.06720  0.10340  0.63450  Biso   1.000  O
  O46      1.0000 0.18000  0.94450  0.69490  Biso   1.000  O
  O47      1.0000 0.32680  0.09060  0.69620  Biso   1.000  O
  O48      1.0000 0.56900  0.14830  0.58920  Biso   1.000  O
  H4       1.0000 0.19370  0.93180  0.62390  Biso   1.000  H
