data_MOGMIE_clean
_audit_creation_date              2014-07-02
_audit_creation_method            'Materials Studio'
_symmetry_space_group_name_H-M    'P1'
_symmetry_Int_Tables_number       1
_symmetry_cell_setting            triclinic
loop_
_symmetry_equiv_pos_as_xyz
  x,y,z
_cell_length_a                    10.2210
_cell_length_b                    10.4520
_cell_length_c                    15.2480
_cell_angle_alpha                 105.7660
_cell_angle_beta                  101.4310
_cell_angle_gamma                 101.2260
loop_
_atom_site_label
_atom_site_type_symbol
_atom_site_fract_x
_atom_site_fract_y
_atom_site_fract_z
_atom_site_U_iso_or_equiv
_atom_site_adp_type
_atom_site_occupancy
La1    La    0.21969   0.96560   0.80494   0.01267  Uiso   1.00
La2    La    0.70970   0.99205   0.77759   0.01267  Uiso   1.00
La3    La    0.78031   0.03440   0.19506   0.01267  Uiso   1.00
La4    La    0.29030   0.00795   0.22241   0.01267  Uiso   1.00
H1     H     0.03140   0.58860   0.70040   0.01267  Uiso   1.00
H2     H     0.68990   0.37110   0.41770   0.01267  Uiso   1.00
H3     H     0.91800   0.39190   0.83970   0.01267  Uiso   1.00
H4     H     0.34360   0.65310   0.03960   0.01267  Uiso   1.00
H5     H     0.29270   0.30730   0.79200   0.01267  Uiso   1.00
H6     H     0.61980   0.63470   0.74740   0.01267  Uiso   1.00
H7     H     0.96860   0.41140   0.29960   0.01267  Uiso   1.00
H8     H     0.31010   0.62890   0.58230   0.01267  Uiso   1.00
H9     H     0.08200   0.60810   0.16030   0.01267  Uiso   1.00
H10    H     0.65640   0.34690   0.96040   0.01267  Uiso   1.00
H11    H     0.70730   0.69270   0.20800   0.01267  Uiso   1.00
H12    H     0.38020   0.36530   0.25260   0.01267  Uiso   1.00
C1     C     0.87420   0.75050   0.68140   0.01267  Uiso   1.00
C2     C     0.86220   0.61110   0.61660   0.01267  Uiso   1.00
C3     C     0.96240   0.54450   0.64410   0.01267  Uiso   1.00
C4     C     0.96020   0.41240   0.58820   0.01267  Uiso   1.00
C5     C     0.85660   0.35160   0.50380   0.01267  Uiso   1.00
C6     C     0.75710   0.41480   0.47490   0.01267  Uiso   1.00
C7     C     0.75810   0.54610   0.53270   0.01267  Uiso   1.00
C8     C     0.85780   0.21260   0.43800   0.01267  Uiso   1.00
C9     C     0.05450   0.22190   0.88310   0.01267  Uiso   1.00
C10    C     0.09900   0.37800   0.91340   0.01267  Uiso   1.00
C11    C     0.00490   0.44440   0.87860   0.01267  Uiso   1.00
C12    C     0.03770   0.58720   0.90040   0.01267  Uiso   1.00
C13    C     0.16630   0.66530   0.96170   0.01267  Uiso   1.00
C14    C     0.25880   0.60000   0.99800   0.01267  Uiso   1.00
C15    C     0.22830   0.45480   0.97370   0.01267  Uiso   1.00
C16    C     0.20760   0.81970   0.98520   0.01267  Uiso   1.00
C17    C     0.50010   0.20350   0.76560   0.01267  Uiso   1.00
C18    C     0.47680   0.33910   0.76330   0.01267  Uiso   1.00
C19    C     0.35920   0.37280   0.78240   0.01267  Uiso   1.00
C20    C     0.33670   0.50000   0.78760   0.01267  Uiso   1.00
C21    C     0.43860   0.60100   0.77950   0.01267  Uiso   1.00
C22    C     0.55330   0.56780   0.75570   0.01267  Uiso   1.00
C23    C     0.57250   0.43590   0.74360   0.01267  Uiso   1.00
C24    C     0.42600   0.74580   0.80100   0.01267  Uiso   1.00
C25    C     0.12580   0.24950   0.31860   0.01267  Uiso   1.00
C26    C     0.13780   0.38890   0.38340   0.01267  Uiso   1.00
C27    C     0.03760   0.45550   0.35590   0.01267  Uiso   1.00
C28    C     0.03980   0.58760   0.41180   0.01267  Uiso   1.00
C29    C     0.14340   0.64840   0.49620   0.01267  Uiso   1.00
C30    C     0.24290   0.58520   0.52510   0.01267  Uiso   1.00
C31    C     0.24190   0.45390   0.46730   0.01267  Uiso   1.00
C32    C     0.14220   0.78740   0.56200   0.01267  Uiso   1.00
C33    C     0.94550   0.77810   0.11690   0.01267  Uiso   1.00
C34    C     0.90100   0.62200   0.08660   0.01267  Uiso   1.00
C35    C     0.99510   0.55560   0.12140   0.01267  Uiso   1.00
C36    C     0.96230   0.41280   0.09960   0.01267  Uiso   1.00
C37    C     0.83370   0.33470   0.03830   0.01267  Uiso   1.00
C38    C     0.74120   0.40000   0.00200   0.01267  Uiso   1.00
C39    C     0.77170   0.54520   0.02630   0.01267  Uiso   1.00
C40    C     0.79240   0.18030   0.01480   0.01267  Uiso   1.00
C41    C     0.49990   0.79650   0.23440   0.01267  Uiso   1.00
C42    C     0.52320   0.66090   0.23670   0.01267  Uiso   1.00
C43    C     0.64080   0.62720   0.21760   0.01267  Uiso   1.00
C44    C     0.66330   0.50000   0.21240   0.01267  Uiso   1.00
C45    C     0.56140   0.39900   0.22050   0.01267  Uiso   1.00
C46    C     0.44670   0.43220   0.24430   0.01267  Uiso   1.00
C47    C     0.42750   0.56410   0.25640   0.01267  Uiso   1.00
C48    C     0.57400   0.25420   0.19900   0.01267  Uiso   1.00
N1     N     0.65540   0.60490   0.50340   0.01267  Uiso   1.00
N2     N     0.33050   0.39870   0.00770   0.01267  Uiso   1.00
N3     N     0.68020   0.40310   0.70900   0.01267  Uiso   1.00
N4     N     0.34460   0.39510   0.49660   0.01267  Uiso   1.00
N5     N     0.66950   0.60130   0.99230   0.01267  Uiso   1.00
N6     N     0.31980   0.59690   0.29100   0.01267  Uiso   1.00
O1     O     0.76950   0.79660   0.67600   0.01267  Uiso   1.00
O2     O     0.98830   0.81670   0.73950   0.01267  Uiso   1.00
O3     O     0.76390   0.16050   0.35810   0.01267  Uiso   1.00
O4     O     0.94730   0.15560   0.46320   0.01267  Uiso   1.00
O5     O     0.14450   0.15840   0.89650   0.01267  Uiso   1.00
O6     O     0.92900   0.16300   0.84350   0.01267  Uiso   1.00
O7     O     0.30740   0.88850   0.05730   0.01267  Uiso   1.00
O8     O     0.14240   0.87490   0.93380   0.01267  Uiso   1.00
O9     O     0.41060   0.11980   0.78230   0.01267  Uiso   1.00
O10    O     0.61270   0.17940   0.75370   0.01267  Uiso   1.00
O11    O     0.31650   0.77020   0.81600   0.01267  Uiso   1.00
O12    O     0.52720   0.83880   0.80540   0.01267  Uiso   1.00
O13    O     0.23050   0.20340   0.32400   0.01267  Uiso   1.00
O14    O     0.01170   0.18330   0.26050   0.01267  Uiso   1.00
O15    O     0.23610   0.83950   0.64190   0.01267  Uiso   1.00
O16    O     0.05270   0.84440   0.53680   0.01267  Uiso   1.00
O17    O     0.85550   0.84160   0.10350   0.01267  Uiso   1.00
O18    O     0.07100   0.83700   0.15650   0.01267  Uiso   1.00
O19    O     0.69260   0.11150   0.94270   0.01267  Uiso   1.00
O20    O     0.85760   0.12510   0.06620   0.01267  Uiso   1.00
O21    O     0.58940   0.88020   0.21770   0.01267  Uiso   1.00
O22    O     0.38730   0.82060   0.24630   0.01267  Uiso   1.00
O23    O     0.68350   0.22980   0.18400   0.01267  Uiso   1.00
O24    O     0.47280   0.16120   0.19460   0.01267  Uiso   1.00
