data_MOGVAG_clean
_audit_creation_date              2014-07-02
_audit_creation_method            'Materials Studio'
_symmetry_space_group_name_H-M    'P1'
_symmetry_Int_Tables_number       1
_symmetry_cell_setting            triclinic
loop_
_symmetry_equiv_pos_as_xyz
  x,y,z
_cell_length_a                    7.4267
_cell_length_b                    12.9082
_cell_length_c                    12.9082
_cell_angle_alpha                 92.1451
_cell_angle_beta                  94.5344
_cell_angle_gamma                 85.4656
loop_
_atom_site_label
_atom_site_type_symbol
_atom_site_fract_x
_atom_site_fract_y
_atom_site_fract_z
_atom_site_U_iso_or_equiv
_atom_site_adp_type
_atom_site_occupancy
Zn1    Zn    0.72233   0.38986   0.78700   0.01267  Uiso   1.00
Zn2    Zn    0.27767   0.78700   0.38986   0.01267  Uiso   1.00
Zn3    Zn    0.27767   0.61014   0.21300   0.01267  Uiso   1.00
Zn4    Zn    0.72233   0.21300   0.61014   0.01267  Uiso   1.00
Zn5    Zn    0.50000   0.84553   0.84553   0.01267  Uiso   1.00
Zn6    Zn    0.50000   0.15447   0.15447   0.01267  Uiso   1.00
Zn7    Zn    0.00000   0.82075   0.82075   0.01267  Uiso   1.00
Zn8    Zn    0.00000   0.17925   0.17925   0.01267  Uiso   1.00
H1     H     0.05820   0.50400   0.73120   0.01267  Uiso   1.00
H2     H     0.11570   0.60840   0.73660   0.01267  Uiso   1.00
H3     H     0.93840   0.73820   0.13060   0.01267  Uiso   1.00
H4     H     0.86850   0.78880   0.03660   0.01267  Uiso   1.00
H5     H     0.50290   0.59350   0.83590   0.01267  Uiso   1.00
H6     H     0.51310   0.69220   0.04500   0.01267  Uiso   1.00
H7     H     0.94180   0.73120   0.50400   0.01267  Uiso   1.00
H8     H     0.88430   0.73660   0.60840   0.01267  Uiso   1.00
H9     H     0.06160   0.13060   0.73820   0.01267  Uiso   1.00
H10    H     0.13150   0.03660   0.78880   0.01267  Uiso   1.00
H11    H     0.49710   0.83590   0.59350   0.01267  Uiso   1.00
H12    H     0.48690   0.04500   0.69220   0.01267  Uiso   1.00
H13    H     0.94180   0.49600   0.26880   0.01267  Uiso   1.00
H14    H     0.88430   0.39160   0.26340   0.01267  Uiso   1.00
H15    H     0.06160   0.26180   0.86940   0.01267  Uiso   1.00
H16    H     0.13150   0.21120   0.96340   0.01267  Uiso   1.00
H17    H     0.49710   0.40650   0.16410   0.01267  Uiso   1.00
H18    H     0.48690   0.30780   0.95500   0.01267  Uiso   1.00
H19    H     0.05820   0.26880   0.49600   0.01267  Uiso   1.00
H20    H     0.11570   0.26340   0.39160   0.01267  Uiso   1.00
H21    H     0.93840   0.86940   0.26180   0.01267  Uiso   1.00
H22    H     0.86850   0.96340   0.21120   0.01267  Uiso   1.00
H23    H     0.50290   0.16410   0.40650   0.01267  Uiso   1.00
H24    H     0.51310   0.95500   0.30780   0.01267  Uiso   1.00
H25    H     0.89600   0.35470   0.64530   0.01267  Uiso   1.00
H26    H     0.10400   0.64530   0.35470   0.01267  Uiso   1.00
C1     C     0.61810   0.61127   0.82365   0.01267  Uiso   1.00
C2     C     0.89240   0.59974   0.78910   0.01267  Uiso   1.00
C3     C     0.39230   0.71360   0.02766   0.01267  Uiso   1.00
C4     C     0.10800   0.73909   0.03359   0.01267  Uiso   1.00
C5     C     0.38190   0.82365   0.61127   0.01267  Uiso   1.00
C6     C     0.10760   0.78910   0.59974   0.01267  Uiso   1.00
C7     C     0.60770   0.02766   0.71360   0.01267  Uiso   1.00
C8     C     0.89200   0.03359   0.73909   0.01267  Uiso   1.00
C9     C     0.38190   0.38873   0.17635   0.01267  Uiso   1.00
C10    C     0.10760   0.40026   0.21090   0.01267  Uiso   1.00
C11    C     0.60770   0.28640   0.97234   0.01267  Uiso   1.00
C12    C     0.89200   0.26091   0.96641   0.01267  Uiso   1.00
C13    C     0.61810   0.17635   0.38873   0.01267  Uiso   1.00
C14    C     0.89240   0.21090   0.40026   0.01267  Uiso   1.00
C15    C     0.39230   0.97234   0.28640   0.01267  Uiso   1.00
C16    C     0.10800   0.96641   0.26091   0.01267  Uiso   1.00
C17    C     0.59020   0.97403   0.02597   0.01267  Uiso   1.00
C18    C     0.40980   0.02597   0.97403   0.01267  Uiso   1.00
S1     S     0.35188   0.31489   0.68511   0.01267  Uiso   1.00
S2     S     0.64812   0.68511   0.31489   0.01267  Uiso   1.00
N1     N     0.66300   0.70691   0.82481   0.01267  Uiso   1.00
N2     N     0.84290   0.70033   0.80161   0.01267  Uiso   1.00
N3     N     0.75600   0.54016   0.80288   0.01267  Uiso   1.00
N4     N     0.06400   0.56165   0.77005   0.01267  Uiso   1.00
N5     N     0.33770   0.76565   0.94479   0.01267  Uiso   1.00
N6     N     0.15050   0.78357   0.94843   0.01267  Uiso   1.00
N7     N     0.25630   0.69393   0.08557   0.01267  Uiso   1.00
N8     N     0.93660   0.73532   0.06216   0.01267  Uiso   1.00
N9     N     0.33700   0.82481   0.70691   0.01267  Uiso   1.00
N10    N     0.15710   0.80161   0.70033   0.01267  Uiso   1.00
N11    N     0.24400   0.80288   0.54016   0.01267  Uiso   1.00
N12    N     0.93600   0.77005   0.56165   0.01267  Uiso   1.00
N13    N     0.66230   0.94479   0.76565   0.01267  Uiso   1.00
N14    N     0.84950   0.94843   0.78357   0.01267  Uiso   1.00
N15    N     0.74370   0.08557   0.69393   0.01267  Uiso   1.00
N16    N     0.06340   0.06216   0.73532   0.01267  Uiso   1.00
N17    N     0.33700   0.29309   0.17519   0.01267  Uiso   1.00
N18    N     0.15710   0.29967   0.19839   0.01267  Uiso   1.00
N19    N     0.24400   0.45984   0.19712   0.01267  Uiso   1.00
N20    N     0.93600   0.43835   0.22995   0.01267  Uiso   1.00
N21    N     0.66230   0.23435   0.05521   0.01267  Uiso   1.00
N22    N     0.84950   0.21643   0.05157   0.01267  Uiso   1.00
N23    N     0.74370   0.30607   0.91443   0.01267  Uiso   1.00
N24    N     0.06340   0.26468   0.93784   0.01267  Uiso   1.00
N25    N     0.66300   0.17519   0.29309   0.01267  Uiso   1.00
N26    N     0.84290   0.19839   0.29967   0.01267  Uiso   1.00
N27    N     0.75600   0.19712   0.45984   0.01267  Uiso   1.00
N28    N     0.06400   0.22995   0.43835   0.01267  Uiso   1.00
N29    N     0.33770   0.05521   0.23435   0.01267  Uiso   1.00
N30    N     0.15050   0.05157   0.21643   0.01267  Uiso   1.00
N31    N     0.25630   0.91443   0.30607   0.01267  Uiso   1.00
N32    N     0.93660   0.93784   0.26468   0.01267  Uiso   1.00
O1     O     0.46180   0.39453   0.74027   0.01267  Uiso   1.00
O2     O     0.65610   0.89261   0.98257   0.01267  Uiso   1.00
O3     O     0.53820   0.74027   0.39453   0.01267  Uiso   1.00
O4     O     0.34390   0.98257   0.89261   0.01267  Uiso   1.00
O5     O     0.53820   0.60547   0.25973   0.01267  Uiso   1.00
O6     O     0.34390   0.10739   0.01743   0.01267  Uiso   1.00
O7     O     0.46180   0.25973   0.60547   0.01267  Uiso   1.00
O8     O     0.65610   0.01743   0.10739   0.01267  Uiso   1.00
O9     O     0.19200   0.36848   0.63152   0.01267  Uiso   1.00
O10    O     0.30200   0.24176   0.75824   0.01267  Uiso   1.00
O11    O     0.86010   0.31291   0.68709   0.01267  Uiso   1.00
O12    O     0.80800   0.63152   0.36848   0.01267  Uiso   1.00
O13    O     0.69800   0.75824   0.24176   0.01267  Uiso   1.00
O14    O     0.13990   0.68709   0.31291   0.01267  Uiso   1.00
