data_image0
_cell_length_a       12.6974
_cell_length_b       16.7309
_cell_length_c       14.8076
_cell_angle_alpha    90
_cell_angle_beta     91.452
_cell_angle_gamma    90

_symmetry_space_group_name_H-M    "P 1"
_symmetry_int_tables_number       1

loop_
  _symmetry_equiv_pos_as_xyz
  'x, y, z'

loop_
  _atom_site_label
  _atom_site_occupancy
  _atom_site_fract_x
  _atom_site_fract_y
  _atom_site_fract_z
  _atom_site_thermal_displace_type
  _atom_site_B_iso_or_equiv
  _atom_site_type_symbol
  Sm1      1.0000 0.37690  0.19836  0.05535  Biso   1.000  Sm
  O1       1.0000 0.32690  0.07150  0.13620  Biso   1.000  O
  O2       1.0000 0.37860  0.17290  0.21940  Biso   1.000  O
  O3       1.0000 0.52250  0.73280  0.06450  Biso   1.000  O
  O4       1.0000 0.69290  0.71690  0.07970  Biso   1.000  O
  O5       1.0000 0.29130  0.88560  0.44380  Biso   1.000  O
  O6       1.0000 0.14430  0.83010  0.38550  Biso   1.000  O
  N1       1.0000 0.32690  0.96900  0.28730  Biso   1.000  N
  N2       1.0000 0.40870  0.84700  0.26790  Biso   1.000  N
  C1       1.0000 0.34740  0.10060  0.21290  Biso   1.000  C
  C2       1.0000 0.33320  0.05450  0.29900  Biso   1.000  C
  H1       1.0000 0.39170  0.06650  0.34010  Biso   1.000  H
  H2       1.0000 0.26930  0.07280  0.32700  Biso   1.000  H
  C3       1.0000 0.60180  0.71380  0.11260  Biso   1.000  C
  C4       1.0000 0.58860  0.68880  0.21030  Biso   1.000  C
  H3       1.0000 0.57770  0.63150  0.21310  Biso   1.000  H
  H4       1.0000 0.65240  0.70140  0.24480  Biso   1.000  H
  C5       1.0000 0.22170  0.87690  0.38400  Biso   1.000  C
  C6       1.0000 0.22820  0.92710  0.29770  Biso   1.000  C
  H5       1.0000 0.21690  0.89230  0.24600  Biso   1.000  H
  H6       1.0000 0.17150  0.96600  0.29720  Biso   1.000  H
  C7       1.0000 0.41480  0.92680  0.26800  Biso   1.000  C
  Sm2      1.0000 0.87690  0.69836  0.05535  Biso   1.000  Sm
  O7       1.0000 0.82690  0.57150  0.13620  Biso   1.000  O
  O8       1.0000 0.87860  0.67290  0.21940  Biso   1.000  O
  O9       1.0000 0.02250  0.23280  0.06450  Biso   1.000  O
  O10      1.0000 0.19290  0.21690  0.07970  Biso   1.000  O
  O11      1.0000 0.79130  0.38560  0.44380  Biso   1.000  O
  O12      1.0000 0.64430  0.33010  0.38550  Biso   1.000  O
  N3       1.0000 0.82690  0.46900  0.28730  Biso   1.000  N
  N4       1.0000 0.90870  0.34700  0.26790  Biso   1.000  N
  C8       1.0000 0.84740  0.60060  0.21290  Biso   1.000  C
  C9       1.0000 0.83320  0.55450  0.29900  Biso   1.000  C
  H7       1.0000 0.89170  0.56650  0.34010  Biso   1.000  H
  H8       1.0000 0.76930  0.57280  0.32700  Biso   1.000  H
  C10      1.0000 0.10180  0.21380  0.11260  Biso   1.000  C
  C11      1.0000 0.08860  0.18880  0.21030  Biso   1.000  C
  H9       1.0000 0.07770  0.13150  0.21310  Biso   1.000  H
  H10      1.0000 0.15240  0.20140  0.24480  Biso   1.000  H
  C12      1.0000 0.72170  0.37690  0.38400  Biso   1.000  C
  C13      1.0000 0.72820  0.42710  0.29770  Biso   1.000  C
  H11      1.0000 0.71690  0.39230  0.24600  Biso   1.000  H
  H12      1.0000 0.67150  0.46600  0.29720  Biso   1.000  H
  C14      1.0000 0.91480  0.42680  0.26800  Biso   1.000  C
  Sm3      1.0000 0.62310  0.19836  0.44465  Biso   1.000  Sm
  O13      1.0000 0.67310  0.07150  0.36380  Biso   1.000  O
  O14      1.0000 0.62140  0.17290  0.28060  Biso   1.000  O
  O15      1.0000 0.47750  0.73280  0.43550  Biso   1.000  O
  O16      1.0000 0.30710  0.71690  0.42030  Biso   1.000  O
  O17      1.0000 0.70870  0.88560  0.05620  Biso   1.000  O
  O18      1.0000 0.85570  0.83010  0.11450  Biso   1.000  O
  N5       1.0000 0.67310  0.96900  0.21270  Biso   1.000  N
  N6       1.0000 0.59130  0.84700  0.23210  Biso   1.000  N
  C15      1.0000 0.65260  0.10060  0.28710  Biso   1.000  C
  C16      1.0000 0.66680  0.05450  0.20100  Biso   1.000  C
  H13      1.0000 0.60830  0.06650  0.15990  Biso   1.000  H
  H14      1.0000 0.73070  0.07280  0.17300  Biso   1.000  H
  C17      1.0000 0.39820  0.71380  0.38740  Biso   1.000  C
  C18      1.0000 0.41140  0.68880  0.28970  Biso   1.000  C
  H15      1.0000 0.42230  0.63150  0.28690  Biso   1.000  H
  H16      1.0000 0.34760  0.70140  0.25520  Biso   1.000  H
  C19      1.0000 0.77830  0.87690  0.11600  Biso   1.000  C
  C20      1.0000 0.77180  0.92710  0.20230  Biso   1.000  C
  H17      1.0000 0.78310  0.89230  0.25400  Biso   1.000  H
  H18      1.0000 0.82850  0.96600  0.20280  Biso   1.000  H
  C21      1.0000 0.58520  0.92680  0.23200  Biso   1.000  C
  Sm4      1.0000 0.12310  0.69836  0.44465  Biso   1.000  Sm
  O19      1.0000 0.17310  0.57150  0.36380  Biso   1.000  O
  O20      1.0000 0.12140  0.67290  0.28060  Biso   1.000  O
  O21      1.0000 0.97750  0.23280  0.43550  Biso   1.000  O
  O22      1.0000 0.80710  0.21690  0.42030  Biso   1.000  O
  O23      1.0000 0.20870  0.38560  0.05620  Biso   1.000  O
  O24      1.0000 0.35570  0.33010  0.11450  Biso   1.000  O
  N7       1.0000 0.17310  0.46900  0.21270  Biso   1.000  N
  N8       1.0000 0.09130  0.34700  0.23210  Biso   1.000  N
  C22      1.0000 0.15260  0.60060  0.28710  Biso   1.000  C
  C23      1.0000 0.16680  0.55450  0.20100  Biso   1.000  C
  H19      1.0000 0.10830  0.56650  0.15990  Biso   1.000  H
  H20      1.0000 0.23070  0.57280  0.17300  Biso   1.000  H
  C24      1.0000 0.89820  0.21380  0.38740  Biso   1.000  C
  C25      1.0000 0.91140  0.18880  0.28970  Biso   1.000  C
  H21      1.0000 0.92230  0.13150  0.28690  Biso   1.000  H
  H22      1.0000 0.84760  0.20140  0.25520  Biso   1.000  H
  C26      1.0000 0.27830  0.37690  0.11600  Biso   1.000  C
  C27      1.0000 0.27180  0.42710  0.20230  Biso   1.000  C
  H23      1.0000 0.28310  0.39230  0.25400  Biso   1.000  H
  H24      1.0000 0.32850  0.46600  0.20280  Biso   1.000  H
  C28      1.0000 0.08520  0.42680  0.23200  Biso   1.000  C
  Sm5      1.0000 0.62310  0.80165  0.94465  Biso   1.000  Sm
  O25      1.0000 0.67310  0.92850  0.86380  Biso   1.000  O
  O26      1.0000 0.62140  0.82710  0.78060  Biso   1.000  O
  O27      1.0000 0.47750  0.26720  0.93550  Biso   1.000  O
  O28      1.0000 0.30710  0.28310  0.92030  Biso   1.000  O
  O29      1.0000 0.70870  0.11440  0.55620  Biso   1.000  O
  O30      1.0000 0.85570  0.16990  0.61450  Biso   1.000  O
  N9       1.0000 0.67310  0.03100  0.71270  Biso   1.000  N
  N10      1.0000 0.59130  0.15300  0.73210  Biso   1.000  N
  C29      1.0000 0.65260  0.89940  0.78710  Biso   1.000  C
  C30      1.0000 0.66680  0.94550  0.70100  Biso   1.000  C
  H25      1.0000 0.60830  0.93350  0.65990  Biso   1.000  H
  H26      1.0000 0.73070  0.92720  0.67300  Biso   1.000  H
  C31      1.0000 0.39820  0.28620  0.88740  Biso   1.000  C
  C32      1.0000 0.41140  0.31120  0.78970  Biso   1.000  C
  H27      1.0000 0.42230  0.36850  0.78690  Biso   1.000  H
  H28      1.0000 0.34760  0.29860  0.75520  Biso   1.000  H
  C33      1.0000 0.77830  0.12310  0.61600  Biso   1.000  C
  C34      1.0000 0.77180  0.07290  0.70230  Biso   1.000  C
  H29      1.0000 0.78310  0.10770  0.75400  Biso   1.000  H
  H30      1.0000 0.82850  0.03400  0.70280  Biso   1.000  H
  C35      1.0000 0.58520  0.07320  0.73200  Biso   1.000  C
  Sm6      1.0000 0.12310  0.30165  0.94465  Biso   1.000  Sm
  O31      1.0000 0.17310  0.42850  0.86380  Biso   1.000  O
  O32      1.0000 0.12140  0.32710  0.78060  Biso   1.000  O
  O33      1.0000 0.97750  0.76720  0.93550  Biso   1.000  O
  O34      1.0000 0.80710  0.78310  0.92030  Biso   1.000  O
  O35      1.0000 0.20870  0.61440  0.55620  Biso   1.000  O
  O36      1.0000 0.35570  0.66990  0.61450  Biso   1.000  O
  N11      1.0000 0.17310  0.53100  0.71270  Biso   1.000  N
  N12      1.0000 0.09130  0.65300  0.73210  Biso   1.000  N
  C36      1.0000 0.15260  0.39940  0.78710  Biso   1.000  C
  C37      1.0000 0.16680  0.44550  0.70100  Biso   1.000  C
  H31      1.0000 0.10830  0.43350  0.65990  Biso   1.000  H
  H32      1.0000 0.23070  0.42720  0.67300  Biso   1.000  H
  C38      1.0000 0.89820  0.78620  0.88740  Biso   1.000  C
  C39      1.0000 0.91140  0.81120  0.78970  Biso   1.000  C
  H33      1.0000 0.92230  0.86850  0.78690  Biso   1.000  H
  H34      1.0000 0.84760  0.79860  0.75520  Biso   1.000  H
  C40      1.0000 0.27830  0.62310  0.61600  Biso   1.000  C
  C41      1.0000 0.27180  0.57290  0.70230  Biso   1.000  C
  H35      1.0000 0.28310  0.60770  0.75400  Biso   1.000  H
  H36      1.0000 0.32850  0.53400  0.70280  Biso   1.000  H
  C42      1.0000 0.08520  0.57320  0.73200  Biso   1.000  C
  Sm7      1.0000 0.37690  0.80165  0.55535  Biso   1.000  Sm
  O37      1.0000 0.32690  0.92850  0.63620  Biso   1.000  O
  O38      1.0000 0.37860  0.82710  0.71940  Biso   1.000  O
  O39      1.0000 0.52250  0.26720  0.56450  Biso   1.000  O
  O40      1.0000 0.69290  0.28310  0.57970  Biso   1.000  O
  O41      1.0000 0.29130  0.11440  0.94380  Biso   1.000  O
  O42      1.0000 0.14430  0.16990  0.88550  Biso   1.000  O
  N13      1.0000 0.32690  0.03100  0.78730  Biso   1.000  N
  N14      1.0000 0.40870  0.15300  0.76790  Biso   1.000  N
  C43      1.0000 0.34740  0.89940  0.71290  Biso   1.000  C
  C44      1.0000 0.33320  0.94550  0.79900  Biso   1.000  C
  H37      1.0000 0.39170  0.93350  0.84010  Biso   1.000  H
  H38      1.0000 0.26930  0.92720  0.82700  Biso   1.000  H
  C45      1.0000 0.60180  0.28620  0.61260  Biso   1.000  C
  C46      1.0000 0.58860  0.31120  0.71030  Biso   1.000  C
  H39      1.0000 0.57770  0.36850  0.71310  Biso   1.000  H
  H40      1.0000 0.65240  0.29860  0.74480  Biso   1.000  H
  C47      1.0000 0.22170  0.12310  0.88400  Biso   1.000  C
  C48      1.0000 0.22820  0.07290  0.79770  Biso   1.000  C
  H41      1.0000 0.21690  0.10770  0.74600  Biso   1.000  H
  H42      1.0000 0.17150  0.03400  0.79720  Biso   1.000  H
  C49      1.0000 0.41480  0.07320  0.76800  Biso   1.000  C
  Sm8      1.0000 0.87690  0.30165  0.55535  Biso   1.000  Sm
  O43      1.0000 0.82690  0.42850  0.63620  Biso   1.000  O
  O44      1.0000 0.87860  0.32710  0.71940  Biso   1.000  O
  O45      1.0000 0.02250  0.76720  0.56450  Biso   1.000  O
  O46      1.0000 0.19290  0.78310  0.57970  Biso   1.000  O
  O47      1.0000 0.79130  0.61440  0.94380  Biso   1.000  O
  O48      1.0000 0.64430  0.66990  0.88550  Biso   1.000  O
  N15      1.0000 0.82690  0.53100  0.78730  Biso   1.000  N
  N16      1.0000 0.90870  0.65300  0.76790  Biso   1.000  N
  C50      1.0000 0.84740  0.39940  0.71290  Biso   1.000  C
  C51      1.0000 0.83320  0.44550  0.79900  Biso   1.000  C
  H43      1.0000 0.89170  0.43350  0.84010  Biso   1.000  H
  H44      1.0000 0.76930  0.42720  0.82700  Biso   1.000  H
  C52      1.0000 0.10180  0.78620  0.61260  Biso   1.000  C
  C53      1.0000 0.08860  0.81120  0.71030  Biso   1.000  C
  H45      1.0000 0.07770  0.86850  0.71310  Biso   1.000  H
  H46      1.0000 0.15240  0.79860  0.74480  Biso   1.000  H
  C54      1.0000 0.72170  0.62310  0.88400  Biso   1.000  C
  C55      1.0000 0.72820  0.57290  0.79770  Biso   1.000  C
  H47      1.0000 0.71690  0.60770  0.74600  Biso   1.000  H
  H48      1.0000 0.67150  0.53400  0.79720  Biso   1.000  H
  C56      1.0000 0.91480  0.57320  0.76800  Biso   1.000  C
  N17      1.0000 0.50000  0.72930  0.25000  Biso   1.000  N
  N18      1.0000 0.50000  0.97100  0.25000  Biso   1.000  N
  C57      1.0000 0.50000  0.81110  0.25000  Biso   1.000  C
  N19      1.0000 0.00000  0.22930  0.25000  Biso   1.000  N
  N20      1.0000 0.00000  0.47100  0.25000  Biso   1.000  N
  C58      1.0000 0.00000  0.31110  0.25000  Biso   1.000  C
  N21      1.0000 0.50000  0.27070  0.75000  Biso   1.000  N
  N22      1.0000 0.50000  0.02900  0.75000  Biso   1.000  N
  C59      1.0000 0.50000  0.18890  0.75000  Biso   1.000  C
  N23      1.0000 0.00000  0.77070  0.75000  Biso   1.000  N
  N24      1.0000 0.00000  0.52900  0.75000  Biso   1.000  N
  C60      1.0000 0.00000  0.68890  0.75000  Biso   1.000  C
