data_image0
_cell_length_a       12.815
_cell_length_b       15.979
_cell_length_c       6.7705
_cell_angle_alpha    90
_cell_angle_beta     90
_cell_angle_gamma    90

_symmetry_space_group_name_H-M    "P 1"
_symmetry_int_tables_number       1

loop_
  _symmetry_equiv_pos_as_xyz
  'x, y, z'

loop_
  _atom_site_label
  _atom_site_occupancy
  _atom_site_fract_x
  _atom_site_fract_y
  _atom_site_fract_z
  _atom_site_thermal_displace_type
  _atom_site_B_iso_or_equiv
  _atom_site_type_symbol
  N1       1.0000 0.50000  0.29050  0.95800  Biso   1.000  N
  C1       1.0000 0.50000  0.36000  0.85170  Biso   1.000  C
  C2       1.0000 0.50000  0.21900  0.85220  Biso   1.000  C
  N2       1.0000 0.00000  0.79050  0.95800  Biso   1.000  N
  C3       1.0000 0.00000  0.86000  0.85170  Biso   1.000  C
  C4       1.0000 0.00000  0.71900  0.85220  Biso   1.000  C
  N3       1.0000 0.50000  0.29050  0.54200  Biso   1.000  N
  C5       1.0000 0.50000  0.36000  0.64830  Biso   1.000  C
  C6       1.0000 0.50000  0.21900  0.64780  Biso   1.000  C
  N4       1.0000 0.00000  0.79050  0.54200  Biso   1.000  N
  C7       1.0000 0.00000  0.86000  0.64830  Biso   1.000  C
  C8       1.0000 0.00000  0.71900  0.64780  Biso   1.000  C
  Fe1      1.0000 0.50000  0.28920  0.25000  Biso   1.000  Fe
  Fe2      1.0000 0.00000  0.78920  0.25000  Biso   1.000  Fe
  Ag1      1.0000 0.25260  0.03819  0.25000  Biso   1.000  Ag
  N5       1.0000 0.39550  0.20430  0.25000  Biso   1.000  N
  N6       1.0000 0.10900  0.87700  0.25000  Biso   1.000  N
  C9       1.0000 0.33600  0.15000  0.25000  Biso   1.000  C
  C10      1.0000 0.16200  0.93400  0.25000  Biso   1.000  C
  Ag2      1.0000 0.75260  0.53819  0.25000  Biso   1.000  Ag
  N7       1.0000 0.89550  0.70430  0.25000  Biso   1.000  N
  N8       1.0000 0.60900  0.37700  0.25000  Biso   1.000  N
  C11      1.0000 0.83600  0.65000  0.25000  Biso   1.000  C
  C12      1.0000 0.66200  0.43400  0.25000  Biso   1.000  C
  Ag3      1.0000 0.74740  0.03819  0.25000  Biso   1.000  Ag
  N9       1.0000 0.60450  0.20430  0.25000  Biso   1.000  N
  N10      1.0000 0.89100  0.87700  0.25000  Biso   1.000  N
  C13      1.0000 0.66400  0.15000  0.25000  Biso   1.000  C
  C14      1.0000 0.83800  0.93400  0.25000  Biso   1.000  C
  Ag4      1.0000 0.24740  0.53819  0.25000  Biso   1.000  Ag
  N11      1.0000 0.10450  0.70430  0.25000  Biso   1.000  N
  N12      1.0000 0.39100  0.37700  0.25000  Biso   1.000  N
  C15      1.0000 0.16400  0.65000  0.25000  Biso   1.000  C
  C16      1.0000 0.33800  0.43400  0.25000  Biso   1.000  C
  N13      1.0000 0.50000  0.70950  0.45800  Biso   1.000  N
  C17      1.0000 0.50000  0.64000  0.35170  Biso   1.000  C
  C18      1.0000 0.50000  0.78100  0.35220  Biso   1.000  C
  N14      1.0000 0.00000  0.20950  0.45800  Biso   1.000  N
  C19      1.0000 0.00000  0.14000  0.35170  Biso   1.000  C
  C20      1.0000 0.00000  0.28100  0.35220  Biso   1.000  C
  N15      1.0000 0.50000  0.70950  0.04200  Biso   1.000  N
  C21      1.0000 0.50000  0.64000  0.14830  Biso   1.000  C
  C22      1.0000 0.50000  0.78100  0.14780  Biso   1.000  C
  N16      1.0000 0.00000  0.20950  0.04200  Biso   1.000  N
  C23      1.0000 0.00000  0.14000  0.14830  Biso   1.000  C
  C24      1.0000 0.00000  0.28100  0.14780  Biso   1.000  C
  Fe3      1.0000 0.50000  0.71080  0.75000  Biso   1.000  Fe
  Fe4      1.0000 0.00000  0.21080  0.75000  Biso   1.000  Fe
  Ag5      1.0000 0.74740  0.96181  0.75000  Biso   1.000  Ag
  N17      1.0000 0.60450  0.79570  0.75000  Biso   1.000  N
  N18      1.0000 0.89100  0.12300  0.75000  Biso   1.000  N
  C25      1.0000 0.66400  0.85000  0.75000  Biso   1.000  C
  C26      1.0000 0.83800  0.06600  0.75000  Biso   1.000  C
  Ag6      1.0000 0.24740  0.46181  0.75000  Biso   1.000  Ag
  N19      1.0000 0.10450  0.29570  0.75000  Biso   1.000  N
  N20      1.0000 0.39100  0.62300  0.75000  Biso   1.000  N
  C27      1.0000 0.16400  0.35000  0.75000  Biso   1.000  C
  C28      1.0000 0.33800  0.56600  0.75000  Biso   1.000  C
  Ag7      1.0000 0.25260  0.96181  0.75000  Biso   1.000  Ag
  N21      1.0000 0.39550  0.79570  0.75000  Biso   1.000  N
  N22      1.0000 0.10900  0.12300  0.75000  Biso   1.000  N
  C29      1.0000 0.33600  0.85000  0.75000  Biso   1.000  C
  C30      1.0000 0.16200  0.06600  0.75000  Biso   1.000  C
  Ag8      1.0000 0.75260  0.46181  0.75000  Biso   1.000  Ag
  N23      1.0000 0.89550  0.29570  0.75000  Biso   1.000  N
  N24      1.0000 0.60900  0.62300  0.75000  Biso   1.000  N
  C31      1.0000 0.83600  0.35000  0.75000  Biso   1.000  C
  C32      1.0000 0.66200  0.56600  0.75000  Biso   1.000  C
