data_MOLRIP_clean
_audit_creation_date              2014-07-02
_audit_creation_method            'Materials Studio'
_symmetry_space_group_name_H-M    'P1'
_symmetry_Int_Tables_number       1
_symmetry_cell_setting            triclinic
loop_
_symmetry_equiv_pos_as_xyz
  x,y,z
_cell_length_a                    14.5650
_cell_length_b                    14.5650
_cell_length_c                    18.0450
_cell_angle_alpha                 69.8347
_cell_angle_beta                  69.8347
_cell_angle_gamma                 87.8664
loop_
_atom_site_label
_atom_site_type_symbol
_atom_site_fract_x
_atom_site_fract_y
_atom_site_fract_z
_atom_site_U_iso_or_equiv
_atom_site_adp_type
_atom_site_occupancy
Eu1    Eu    0.40698   0.05624   0.23300   0.01267  Uiso   1.00
Eu2    Eu    0.94376   0.59302   0.26700   0.01267  Uiso   1.00
Eu3    Eu    0.59302   0.94376   0.76700   0.01267  Uiso   1.00
Eu4    Eu    0.05624   0.40698   0.73300   0.01267  Uiso   1.00
Eu5    Eu    0.02444   0.97556   0.25000   0.01267  Uiso   1.00
Eu6    Eu    0.97556   0.02444   0.75000   0.01267  Uiso   1.00
Eu7    Eu    0.31333   0.68667   0.75000   0.01267  Uiso   1.00
Eu8    Eu    0.68667   0.31333   0.25000   0.01267  Uiso   1.00
Co1    Co    0.70979   0.00445   0.24399   0.01267  Uiso   1.00
Co2    Co    0.99555   0.29021   0.25601   0.01267  Uiso   1.00
Co3    Co    0.29021   0.99555   0.75601   0.01267  Uiso   1.00
Co4    Co    0.00445   0.70979   0.74399   0.01267  Uiso   1.00
Co5    Co    0.66620   0.33380   0.75000   0.01267  Uiso   1.00
Co6    Co    0.33380   0.66620   0.25000   0.01267  Uiso   1.00
H1     H     0.45270   0.86230   0.52420   0.01267  Uiso   1.00
H2     H     0.72540   0.89420   0.53110   0.01267  Uiso   1.00
H3     H     0.09020   0.74560   0.02520   0.01267  Uiso   1.00
H4     H     0.09480   0.02100   0.02970   0.01267  Uiso   1.00
H5     H     0.40490   0.14070   0.97880   0.01267  Uiso   1.00
H6     H     0.28750   0.86190   0.06840   0.01267  Uiso   1.00
H7     H     0.13770   0.54730   0.97580   0.01267  Uiso   1.00
H8     H     0.10580   0.27460   0.96890   0.01267  Uiso   1.00
H9     H     0.25440   0.90980   0.47480   0.01267  Uiso   1.00
H10    H     0.97900   0.90520   0.47030   0.01267  Uiso   1.00
H11    H     0.85930   0.59510   0.52120   0.01267  Uiso   1.00
H12    H     0.13810   0.71250   0.43160   0.01267  Uiso   1.00
H13    H     0.54730   0.13770   0.47580   0.01267  Uiso   1.00
H14    H     0.27460   0.10580   0.46890   0.01267  Uiso   1.00
H15    H     0.90980   0.25440   0.97480   0.01267  Uiso   1.00
H16    H     0.90520   0.97900   0.97030   0.01267  Uiso   1.00
H17    H     0.59510   0.85930   0.02120   0.01267  Uiso   1.00
H18    H     0.71250   0.13810   0.93160   0.01267  Uiso   1.00
H19    H     0.86230   0.45270   0.02420   0.01267  Uiso   1.00
H20    H     0.89420   0.72540   0.03110   0.01267  Uiso   1.00
H21    H     0.74560   0.09020   0.52520   0.01267  Uiso   1.00
H22    H     0.02100   0.09480   0.52970   0.01267  Uiso   1.00
H23    H     0.14070   0.40490   0.47880   0.01267  Uiso   1.00
H24    H     0.86190   0.28750   0.56840   0.01267  Uiso   1.00
C1     C     0.56120   0.92300   0.41060   0.01267  Uiso   1.00
C2     C     0.51950   0.88230   0.49740   0.01267  Uiso   1.00
C3     C     0.58190   0.87190   0.54410   0.01267  Uiso   1.00
C4     C     0.68280   0.89920   0.50180   0.01267  Uiso   1.00
C5     C     0.71670   0.93410   0.41360   0.01267  Uiso   1.00
C6     C     0.50420   0.94880   0.34900   0.01267  Uiso   1.00
C7     C     0.53860   0.83440   0.63970   0.01267  Uiso   1.00
C8     C     0.82370   0.95990   0.35780   0.01267  Uiso   1.00
C9     C     0.17210   0.84950   0.91670   0.01267  Uiso   1.00
C10    C     0.11170   0.81210   0.99900   0.01267  Uiso   1.00
C11    C     0.08280   0.87760   0.04300   0.01267  Uiso   1.00
C12    C     0.11480   0.97660   0.00190   0.01267  Uiso   1.00
C13    C     0.17750   0.00770   0.91850   0.01267  Uiso   1.00
C14    C     0.21160   0.79300   0.85830   0.01267  Uiso   1.00
C15    C     0.02140   0.83860   0.13550   0.01267  Uiso   1.00
C16    C     0.22340   0.11160   0.86430   0.01267  Uiso   1.00
C17    C     0.46690   0.06290   0.90430   0.01267  Uiso   1.00
C18    C     0.40330   0.07910   0.97420   0.01267  Uiso   1.00
C19    C     0.33610   0.00270   0.03820   0.01267  Uiso   1.00
C20    C     0.33330   0.91330   0.02790   0.01267  Uiso   1.00
C21    C     0.40070   0.90150   0.95560   0.01267  Uiso   1.00
C22    C     0.54530   0.13830   0.83270   0.01267  Uiso   1.00
C23    C     0.27230   0.01490   0.12010   0.01267  Uiso   1.00
C24    C     0.41090   0.80570   0.93930   0.01267  Uiso   1.00
C25    C     0.07700   0.43880   0.08940   0.01267  Uiso   1.00
C26    C     0.11770   0.48050   0.00260   0.01267  Uiso   1.00
C27    C     0.12810   0.41810   0.95590   0.01267  Uiso   1.00
C28    C     0.10080   0.31720   0.99820   0.01267  Uiso   1.00
C29    C     0.06590   0.28330   0.08640   0.01267  Uiso   1.00
C30    C     0.05120   0.49580   0.15100   0.01267  Uiso   1.00
C31    C     0.16560   0.46140   0.86030   0.01267  Uiso   1.00
C32    C     0.04010   0.17630   0.14220   0.01267  Uiso   1.00
C33    C     0.15050   0.82790   0.58330   0.01267  Uiso   1.00
C34    C     0.18790   0.88830   0.50100   0.01267  Uiso   1.00
C35    C     0.12240   0.91720   0.45700   0.01267  Uiso   1.00
C36    C     0.02340   0.88520   0.49810   0.01267  Uiso   1.00
C37    C     0.99230   0.82250   0.58150   0.01267  Uiso   1.00
C38    C     0.20700   0.78840   0.64170   0.01267  Uiso   1.00
C39    C     0.16140   0.97860   0.36450   0.01267  Uiso   1.00
C40    C     0.88840   0.77660   0.63570   0.01267  Uiso   1.00
C41    C     0.93710   0.53310   0.59570   0.01267  Uiso   1.00
C42    C     0.92090   0.59670   0.52580   0.01267  Uiso   1.00
C43    C     0.99730   0.66390   0.46180   0.01267  Uiso   1.00
C44    C     0.08670   0.66670   0.47210   0.01267  Uiso   1.00
C45    C     0.09850   0.59930   0.54440   0.01267  Uiso   1.00
C46    C     0.86170   0.45470   0.66730   0.01267  Uiso   1.00
C47    C     0.98510   0.72770   0.37990   0.01267  Uiso   1.00
C48    C     0.19430   0.58910   0.56070   0.01267  Uiso   1.00
C49    C     0.43880   0.07700   0.58940   0.01267  Uiso   1.00
C50    C     0.48050   0.11770   0.50260   0.01267  Uiso   1.00
C51    C     0.41810   0.12810   0.45590   0.01267  Uiso   1.00
C52    C     0.31720   0.10080   0.49820   0.01267  Uiso   1.00
C53    C     0.28330   0.06590   0.58640   0.01267  Uiso   1.00
C54    C     0.49580   0.05120   0.65100   0.01267  Uiso   1.00
C55    C     0.46140   0.16560   0.36030   0.01267  Uiso   1.00
C56    C     0.17630   0.04010   0.64220   0.01267  Uiso   1.00
C57    C     0.82790   0.15050   0.08330   0.01267  Uiso   1.00
C58    C     0.88830   0.18790   0.00100   0.01267  Uiso   1.00
C59    C     0.91720   0.12240   0.95700   0.01267  Uiso   1.00
C60    C     0.88520   0.02340   0.99810   0.01267  Uiso   1.00
C61    C     0.82250   0.99230   0.08150   0.01267  Uiso   1.00
C62    C     0.78840   0.20700   0.14170   0.01267  Uiso   1.00
C63    C     0.97860   0.16140   0.86450   0.01267  Uiso   1.00
C64    C     0.77660   0.88840   0.13570   0.01267  Uiso   1.00
C65    C     0.53310   0.93710   0.09570   0.01267  Uiso   1.00
C66    C     0.59670   0.92090   0.02580   0.01267  Uiso   1.00
C67    C     0.66390   0.99730   0.96180   0.01267  Uiso   1.00
C68    C     0.66670   0.08670   0.97210   0.01267  Uiso   1.00
C69    C     0.59930   0.09850   0.04440   0.01267  Uiso   1.00
C70    C     0.45470   0.86170   0.16730   0.01267  Uiso   1.00
C71    C     0.72770   0.98510   0.87990   0.01267  Uiso   1.00
C72    C     0.58910   0.19430   0.06070   0.01267  Uiso   1.00
C73    C     0.92300   0.56120   0.91060   0.01267  Uiso   1.00
C74    C     0.88230   0.51950   0.99740   0.01267  Uiso   1.00
C75    C     0.87190   0.58190   0.04410   0.01267  Uiso   1.00
C76    C     0.89920   0.68280   0.00180   0.01267  Uiso   1.00
C77    C     0.93410   0.71670   0.91360   0.01267  Uiso   1.00
C78    C     0.94880   0.50420   0.84900   0.01267  Uiso   1.00
C79    C     0.83440   0.53860   0.13970   0.01267  Uiso   1.00
C80    C     0.95990   0.82370   0.85780   0.01267  Uiso   1.00
C81    C     0.84950   0.17210   0.41670   0.01267  Uiso   1.00
C82    C     0.81210   0.11170   0.49900   0.01267  Uiso   1.00
C83    C     0.87760   0.08280   0.54300   0.01267  Uiso   1.00
C84    C     0.97660   0.11480   0.50190   0.01267  Uiso   1.00
C85    C     0.00770   0.17750   0.41850   0.01267  Uiso   1.00
C86    C     0.79300   0.21160   0.35830   0.01267  Uiso   1.00
C87    C     0.83860   0.02140   0.63550   0.01267  Uiso   1.00
C88    C     0.11160   0.22340   0.36430   0.01267  Uiso   1.00
C89    C     0.06290   0.46690   0.40430   0.01267  Uiso   1.00
C90    C     0.07910   0.40330   0.47420   0.01267  Uiso   1.00
C91    C     0.00270   0.33610   0.53820   0.01267  Uiso   1.00
C92    C     0.91330   0.33330   0.52790   0.01267  Uiso   1.00
C93    C     0.90150   0.40070   0.45560   0.01267  Uiso   1.00
C94    C     0.13830   0.54530   0.33270   0.01267  Uiso   1.00
C95    C     0.01490   0.27230   0.62010   0.01267  Uiso   1.00
C96    C     0.80570   0.41090   0.43930   0.01267  Uiso   1.00
N1     N     0.65770   0.94870   0.37040   0.01267  Uiso   1.00
N2     N     0.20530   0.94490   0.87860   0.01267  Uiso   1.00
N3     N     0.46700   0.97480   0.89460   0.01267  Uiso   1.00
N4     N     0.05130   0.34230   0.12960   0.01267  Uiso   1.00
N5     N     0.05510   0.79470   0.62140   0.01267  Uiso   1.00
N6     N     0.02520   0.53300   0.60540   0.01267  Uiso   1.00
N7     N     0.34230   0.05130   0.62960   0.01267  Uiso   1.00
N8     N     0.79470   0.05510   0.12140   0.01267  Uiso   1.00
N9     N     0.53300   0.02520   0.10540   0.01267  Uiso   1.00
N10    N     0.94870   0.65770   0.87040   0.01267  Uiso   1.00
N11    N     0.94490   0.20530   0.37860   0.01267  Uiso   1.00
N12    N     0.97480   0.46700   0.39460   0.01267  Uiso   1.00
O1     O     0.55660   0.99680   0.27350   0.01267  Uiso   1.00
O2     O     0.41670   0.92750   0.37530   0.01267  Uiso   1.00
O3     O     0.46320   0.77860   0.67450   0.01267  Uiso   1.00
O4     O     0.58510   0.86030   0.67630   0.01267  Uiso   1.00
O5     O     0.88870   0.95110   0.38750   0.01267  Uiso   1.00
O6     O     0.84200   0.99020   0.27750   0.01267  Uiso   1.00
O7     O     0.27930   0.83790   0.78650   0.01267  Uiso   1.00
O8     O     0.17970   0.70670   0.87950   0.01267  Uiso   1.00
O9     O     0.00690   0.74910   0.16890   0.01267  Uiso   1.00
O10    O     0.98880   0.89700   0.17180   0.01267  Uiso   1.00
O11    O     0.20620   0.17640   0.89350   0.01267  Uiso   1.00
O12    O     0.28240   0.12100   0.78960   0.01267  Uiso   1.00
O13    O     0.60130   0.10610   0.77540   0.01267  Uiso   1.00
O14    O     0.55220   0.22200   0.83360   0.01267  Uiso   1.00
O15    O     0.19050   0.96650   0.15930   0.01267  Uiso   1.00
O16    O     0.31150   0.07030   0.14260   0.01267  Uiso   1.00
O17    O     0.35380   0.73360   0.98840   0.01267  Uiso   1.00
O18    O     0.48140   0.80680   0.87170   0.01267  Uiso   1.00
O19    O     0.00320   0.44340   0.22650   0.01267  Uiso   1.00
O20    O     0.07250   0.58330   0.12470   0.01267  Uiso   1.00
O21    O     0.22140   0.53680   0.82550   0.01267  Uiso   1.00
O22    O     0.13970   0.41490   0.82370   0.01267  Uiso   1.00
O23    O     0.04890   0.11130   0.11250   0.01267  Uiso   1.00
O24    O     0.00980   0.15800   0.22250   0.01267  Uiso   1.00
O25    O     0.16210   0.72070   0.71350   0.01267  Uiso   1.00
O26    O     0.29330   0.82030   0.62050   0.01267  Uiso   1.00
O27    O     0.25090   0.99310   0.33110   0.01267  Uiso   1.00
O28    O     0.10300   0.01120   0.32820   0.01267  Uiso   1.00
O29    O     0.82360   0.79380   0.60650   0.01267  Uiso   1.00
O30    O     0.87900   0.71760   0.71040   0.01267  Uiso   1.00
O31    O     0.89390   0.39870   0.72460   0.01267  Uiso   1.00
O32    O     0.77800   0.44780   0.66640   0.01267  Uiso   1.00
O33    O     0.03350   0.80950   0.34070   0.01267  Uiso   1.00
O34    O     0.92970   0.68850   0.35740   0.01267  Uiso   1.00
O35    O     0.26640   0.64620   0.51160   0.01267  Uiso   1.00
O36    O     0.19320   0.51860   0.62830   0.01267  Uiso   1.00
O37    O     0.44340   0.00320   0.72650   0.01267  Uiso   1.00
O38    O     0.58330   0.07250   0.62470   0.01267  Uiso   1.00
O39    O     0.53680   0.22140   0.32550   0.01267  Uiso   1.00
O40    O     0.41490   0.13970   0.32370   0.01267  Uiso   1.00
O41    O     0.11130   0.04890   0.61250   0.01267  Uiso   1.00
O42    O     0.15800   0.00980   0.72250   0.01267  Uiso   1.00
O43    O     0.72070   0.16210   0.21350   0.01267  Uiso   1.00
O44    O     0.82030   0.29330   0.12050   0.01267  Uiso   1.00
O45    O     0.99310   0.25090   0.83110   0.01267  Uiso   1.00
O46    O     0.01120   0.10300   0.82820   0.01267  Uiso   1.00
O47    O     0.79380   0.82360   0.10650   0.01267  Uiso   1.00
O48    O     0.71760   0.87900   0.21040   0.01267  Uiso   1.00
O49    O     0.39870   0.89390   0.22460   0.01267  Uiso   1.00
O50    O     0.44780   0.77800   0.16640   0.01267  Uiso   1.00
O51    O     0.80950   0.03350   0.84070   0.01267  Uiso   1.00
O52    O     0.68850   0.92970   0.85740   0.01267  Uiso   1.00
O53    O     0.64620   0.26640   0.01160   0.01267  Uiso   1.00
O54    O     0.51860   0.19320   0.12830   0.01267  Uiso   1.00
O55    O     0.99680   0.55660   0.77350   0.01267  Uiso   1.00
O56    O     0.92750   0.41670   0.87530   0.01267  Uiso   1.00
O57    O     0.77860   0.46320   0.17450   0.01267  Uiso   1.00
O58    O     0.86030   0.58510   0.17630   0.01267  Uiso   1.00
O59    O     0.95110   0.88870   0.88750   0.01267  Uiso   1.00
O60    O     0.99020   0.84200   0.77750   0.01267  Uiso   1.00
O61    O     0.83790   0.27930   0.28650   0.01267  Uiso   1.00
O62    O     0.70670   0.17970   0.37950   0.01267  Uiso   1.00
O63    O     0.74910   0.00690   0.66890   0.01267  Uiso   1.00
O64    O     0.89700   0.98880   0.67180   0.01267  Uiso   1.00
O65    O     0.17640   0.20620   0.39350   0.01267  Uiso   1.00
O66    O     0.12100   0.28240   0.28960   0.01267  Uiso   1.00
O67    O     0.10610   0.60130   0.27540   0.01267  Uiso   1.00
O68    O     0.22200   0.55220   0.33360   0.01267  Uiso   1.00
O69    O     0.96650   0.19050   0.65930   0.01267  Uiso   1.00
O70    O     0.07030   0.31150   0.64260   0.01267  Uiso   1.00
O71    O     0.73360   0.35380   0.48840   0.01267  Uiso   1.00
O72    O     0.80680   0.48140   0.37170   0.01267  Uiso   1.00
