data_image0
_cell_length_a       6.3773
_cell_length_b       6.9719
_cell_length_c       15.5118
_cell_angle_alpha    78.963
_cell_angle_beta     87.657
_cell_angle_gamma    71.99

_symmetry_space_group_name_H-M    "P 1"
_symmetry_int_tables_number       1

loop_
  _symmetry_equiv_pos_as_xyz
  'x, y, z'

loop_
  _atom_site_label
  _atom_site_occupancy
  _atom_site_fract_x
  _atom_site_fract_y
  _atom_site_fract_z
  _atom_site_thermal_displace_type
  _atom_site_B_iso_or_equiv
  _atom_site_type_symbol
  La1      1.0000 0.29202  0.93712  0.25822  Biso   1.000  La
  O1       1.0000 0.66130  0.99030  0.27630  Biso   1.000  O
  O2       1.0000 0.95320  0.98640  0.35296  Biso   1.000  O
  O3       1.0000 0.51830  0.79620  0.13646  Biso   1.000  O
  O4       1.0000 0.71080  0.46680  0.18490  Biso   1.000  O
  O5       1.0000 0.84640  0.36160  0.75144  Biso   1.000  O
  O6       1.0000 0.80710  0.69690  0.71572  Biso   1.000  O
  N1       1.0000 0.42830  0.95830  0.42366  Biso   1.000  N
  N2       1.0000 0.78470  0.40620  0.01686  Biso   1.000  N
  N3       1.0000 0.70770  0.74730  0.88117  Biso   1.000  N
  C1       1.0000 0.75680  0.99190  0.34523  Biso   1.000  C
  C2       1.0000 0.61870  0.99860  0.42729  Biso   1.000  C
  C3       1.0000 0.31050  0.95820  0.49720  Biso   1.000  C
  C4       1.0000 0.64210  0.62070  0.12670  Biso   1.000  C
  C5       1.0000 0.70210  0.59730  0.03238  Biso   1.000  C
  C6       1.0000 0.82190  0.38640  0.93320  Biso   1.000  C
  C7       1.0000 0.81390  0.53520  0.76960  Biso   1.000  C
  C8       1.0000 0.77790  0.55590  0.86486  Biso   1.000  C
  C9       1.0000 0.67030  0.76700  0.96460  Biso   1.000  C
  H1       1.0000 0.18200  0.91800  0.49600  Biso   1.000  H
  H2       1.0000 0.87890  0.25560  0.92010  Biso   1.000  H
  H3       1.0000 0.62140  0.89800  0.97790  Biso   1.000  H
  La2      1.0000 0.70798  0.06288  0.74178  Biso   1.000  La
  O7       1.0000 0.33870  0.00970  0.72370  Biso   1.000  O
  O8       1.0000 0.04680  0.01360  0.64704  Biso   1.000  O
  O9       1.0000 0.48170  0.20380  0.86354  Biso   1.000  O
  O10      1.0000 0.28920  0.53320  0.81510  Biso   1.000  O
  O11      1.0000 0.15360  0.63840  0.24856  Biso   1.000  O
  O12      1.0000 0.19290  0.30310  0.28428  Biso   1.000  O
  N4       1.0000 0.57170  0.04170  0.57634  Biso   1.000  N
  N5       1.0000 0.21530  0.59380  0.98314  Biso   1.000  N
  N6       1.0000 0.29230  0.25270  0.11883  Biso   1.000  N
  C10      1.0000 0.24320  0.00810  0.65477  Biso   1.000  C
  C11      1.0000 0.38130  0.00140  0.57271  Biso   1.000  C
  C12      1.0000 0.68950  0.04180  0.50280  Biso   1.000  C
  C13      1.0000 0.35790  0.37930  0.87330  Biso   1.000  C
  C14      1.0000 0.29790  0.40270  0.96762  Biso   1.000  C
  C15      1.0000 0.17810  0.61360  0.06680  Biso   1.000  C
  C16      1.0000 0.18610  0.46480  0.23040  Biso   1.000  C
  C17      1.0000 0.22210  0.44410  0.13514  Biso   1.000  C
  C18      1.0000 0.32970  0.23300  0.03540  Biso   1.000  C
  H4       1.0000 0.81800  0.08200  0.50400  Biso   1.000  H
  H5       1.0000 0.12110  0.74440  0.07990  Biso   1.000  H
  H6       1.0000 0.37860  0.10200  0.02210  Biso   1.000  H
