data_image0
_cell_length_a       20.57
_cell_length_b       35.815
_cell_length_c       10.106
_cell_angle_alpha    90
_cell_angle_beta     114.694
_cell_angle_gamma    90

_symmetry_space_group_name_H-M    "P 1"
_symmetry_int_tables_number       1

loop_
  _symmetry_equiv_pos_as_xyz
  'x, y, z'

loop_
  _atom_site_label
  _atom_site_occupancy
  _atom_site_fract_x
  _atom_site_fract_y
  _atom_site_fract_z
  _atom_site_thermal_displace_type
  _atom_site_B_iso_or_equiv
  _atom_site_type_symbol
  Nd1      1.0000 0.75752  0.19259  0.50891  Biso   1.000  Nd
  Nd2      1.0000 0.63752  0.03095  0.47923  Biso   1.000  Nd
  S1       1.0000 0.75292  0.97379  0.37190  Biso   1.000  S
  S2       1.0000 0.55838  0.03571  0.13810  Biso   1.000  S
  S3       1.0000 0.70632  0.11088  0.51640  Biso   1.000  S
  S4       1.0000 0.90493  0.15756  0.53790  Biso   1.000  S
  S5       1.0000 0.86778  0.26784  0.44287  Biso   1.000  S
  S6       1.0000 0.84407  0.25263  0.82236  Biso   1.000  S
  O1       1.0000 0.77500  0.93680  0.40500  Biso   1.000  O
  O2       1.0000 0.71410  0.97990  0.22220  Biso   1.000  O
  O3       1.0000 0.82070  0.99550  0.42090  Biso   1.000  O
  O4       1.0000 0.71590  0.98730  0.45460  Biso   1.000  O
  O5       1.0000 0.58670  0.02752  0.03040  Biso   1.000  O
  O6       1.0000 0.56530  0.00294  0.22910  Biso   1.000  O
  O7       1.0000 0.48430  0.04825  0.06070  Biso   1.000  O
  O8       1.0000 0.59990  0.06512  0.23910  Biso   1.000  O
  O9       1.0000 0.73870  0.07541  0.50170  Biso   1.000  O
  O10      1.0000 0.64090  0.10047  0.53230  Biso   1.000  O
  O11      1.0000 0.69040  0.13518  0.38980  Biso   1.000  O
  O12      1.0000 0.75680  0.13249  0.64300  Biso   1.000  O
  O13      1.0000 0.91870  0.11812  0.56580  Biso   1.000  O
  O14      1.0000 0.96630  0.17704  0.53340  Biso   1.000  O
  O15      1.0000 0.83840  0.16375  0.40780  Biso   1.000  O
  O16      1.0000 0.89340  0.17602  0.65980  Biso   1.000  O
  O17      1.0000 0.81650  0.24802  0.48840  Biso   1.000  O
  O18      1.0000 0.86060  0.25577  0.30250  Biso   1.000  O
  O19      1.0000 0.84990  0.30760  0.44400  Biso   1.000  O
  O20      1.0000 0.94040  0.26143  0.55370  Biso   1.000  O
  O21      1.0000 0.79960  0.21945  0.75240  Biso   1.000  O
  O22      1.0000 0.91650  0.24664  0.83160  Biso   1.000  O
  O23      1.0000 0.81300  0.28661  0.73680  Biso   1.000  O
  O24      1.0000 0.84730  0.25660  0.96770  Biso   1.000  O
  Nd3      1.0000 0.25752  0.69259  0.50891  Biso   1.000  Nd
  Nd4      1.0000 0.13752  0.53095  0.47923  Biso   1.000  Nd
  S7       1.0000 0.25292  0.47379  0.37190  Biso   1.000  S
  S8       1.0000 0.05838  0.53571  0.13810  Biso   1.000  S
  S9       1.0000 0.20632  0.61088  0.51640  Biso   1.000  S
  S10      1.0000 0.40493  0.65756  0.53790  Biso   1.000  S
  S11      1.0000 0.36778  0.76784  0.44287  Biso   1.000  S
  S12      1.0000 0.34407  0.75263  0.82236  Biso   1.000  S
  O25      1.0000 0.27500  0.43680  0.40500  Biso   1.000  O
  O26      1.0000 0.21410  0.47990  0.22220  Biso   1.000  O
  O27      1.0000 0.32070  0.49550  0.42090  Biso   1.000  O
  O28      1.0000 0.21590  0.48730  0.45460  Biso   1.000  O
  O29      1.0000 0.08670  0.52752  0.03040  Biso   1.000  O
  O30      1.0000 0.06530  0.50294  0.22910  Biso   1.000  O
  O31      1.0000 0.98430  0.54825  0.06070  Biso   1.000  O
  O32      1.0000 0.09990  0.56512  0.23910  Biso   1.000  O
  O33      1.0000 0.23870  0.57541  0.50170  Biso   1.000  O
  O34      1.0000 0.14090  0.60047  0.53230  Biso   1.000  O
  O35      1.0000 0.19040  0.63518  0.38980  Biso   1.000  O
  O36      1.0000 0.25680  0.63249  0.64300  Biso   1.000  O
  O37      1.0000 0.41870  0.61812  0.56580  Biso   1.000  O
  O38      1.0000 0.46630  0.67704  0.53340  Biso   1.000  O
  O39      1.0000 0.33840  0.66375  0.40780  Biso   1.000  O
  O40      1.0000 0.39340  0.67602  0.65980  Biso   1.000  O
  O41      1.0000 0.31650  0.74802  0.48840  Biso   1.000  O
  O42      1.0000 0.36060  0.75577  0.30250  Biso   1.000  O
  O43      1.0000 0.34990  0.80760  0.44400  Biso   1.000  O
  O44      1.0000 0.44040  0.76143  0.55370  Biso   1.000  O
  O45      1.0000 0.29960  0.71945  0.75240  Biso   1.000  O
  O46      1.0000 0.41650  0.74664  0.83160  Biso   1.000  O
  O47      1.0000 0.31300  0.78661  0.73680  Biso   1.000  O
  O48      1.0000 0.34730  0.75660  0.96770  Biso   1.000  O
  Nd5      1.0000 0.24248  0.19259  0.99109  Biso   1.000  Nd
  Nd6      1.0000 0.36248  0.03095  0.02077  Biso   1.000  Nd
  S13      1.0000 0.24708  0.97379  0.12810  Biso   1.000  S
  S14      1.0000 0.44162  0.03571  0.36190  Biso   1.000  S
  S15      1.0000 0.29368  0.11088  0.98360  Biso   1.000  S
  S16      1.0000 0.09507  0.15756  0.96210  Biso   1.000  S
  S17      1.0000 0.13222  0.26784  0.05713  Biso   1.000  S
  S18      1.0000 0.15593  0.25263  0.67764  Biso   1.000  S
  O49      1.0000 0.22500  0.93680  0.09500  Biso   1.000  O
  O50      1.0000 0.28590  0.97990  0.27780  Biso   1.000  O
  O51      1.0000 0.17930  0.99550  0.07910  Biso   1.000  O
  O52      1.0000 0.28410  0.98730  0.04540  Biso   1.000  O
  O53      1.0000 0.41330  0.02752  0.46960  Biso   1.000  O
  O54      1.0000 0.43470  0.00294  0.27090  Biso   1.000  O
  O55      1.0000 0.51570  0.04825  0.43930  Biso   1.000  O
  O56      1.0000 0.40010  0.06512  0.26090  Biso   1.000  O
  O57      1.0000 0.26130  0.07541  0.99830  Biso   1.000  O
  O58      1.0000 0.35910  0.10047  0.96770  Biso   1.000  O
  O59      1.0000 0.30960  0.13518  0.11020  Biso   1.000  O
  O60      1.0000 0.24320  0.13249  0.85700  Biso   1.000  O
  O61      1.0000 0.08130  0.11812  0.93420  Biso   1.000  O
  O62      1.0000 0.03370  0.17704  0.96660  Biso   1.000  O
  O63      1.0000 0.16160  0.16375  0.09220  Biso   1.000  O
  O64      1.0000 0.10660  0.17602  0.84020  Biso   1.000  O
  O65      1.0000 0.18350  0.24802  0.01160  Biso   1.000  O
  O66      1.0000 0.13940  0.25577  0.19750  Biso   1.000  O
  O67      1.0000 0.15010  0.30760  0.05600  Biso   1.000  O
  O68      1.0000 0.05960  0.26143  0.94630  Biso   1.000  O
  O69      1.0000 0.20040  0.21945  0.74760  Biso   1.000  O
  O70      1.0000 0.08350  0.24664  0.66840  Biso   1.000  O
  O71      1.0000 0.18700  0.28661  0.76320  Biso   1.000  O
  O72      1.0000 0.15270  0.25660  0.53230  Biso   1.000  O
  Nd7      1.0000 0.74248  0.69259  0.99109  Biso   1.000  Nd
  Nd8      1.0000 0.86248  0.53095  0.02077  Biso   1.000  Nd
  S19      1.0000 0.74708  0.47379  0.12810  Biso   1.000  S
  S20      1.0000 0.94162  0.53571  0.36190  Biso   1.000  S
  S21      1.0000 0.79368  0.61088  0.98360  Biso   1.000  S
  S22      1.0000 0.59507  0.65756  0.96210  Biso   1.000  S
  S23      1.0000 0.63222  0.76784  0.05713  Biso   1.000  S
  S24      1.0000 0.65593  0.75263  0.67764  Biso   1.000  S
  O73      1.0000 0.72500  0.43680  0.09500  Biso   1.000  O
  O74      1.0000 0.78590  0.47990  0.27780  Biso   1.000  O
  O75      1.0000 0.67930  0.49550  0.07910  Biso   1.000  O
  O76      1.0000 0.78410  0.48730  0.04540  Biso   1.000  O
  O77      1.0000 0.91330  0.52752  0.46960  Biso   1.000  O
  O78      1.0000 0.93470  0.50294  0.27090  Biso   1.000  O
  O79      1.0000 0.01570  0.54825  0.43930  Biso   1.000  O
  O80      1.0000 0.90010  0.56512  0.26090  Biso   1.000  O
  O81      1.0000 0.76130  0.57541  0.99830  Biso   1.000  O
  O82      1.0000 0.85910  0.60047  0.96770  Biso   1.000  O
  O83      1.0000 0.80960  0.63518  0.11020  Biso   1.000  O
  O84      1.0000 0.74320  0.63249  0.85700  Biso   1.000  O
  O85      1.0000 0.58130  0.61812  0.93420  Biso   1.000  O
  O86      1.0000 0.53370  0.67704  0.96660  Biso   1.000  O
  O87      1.0000 0.66160  0.66375  0.09220  Biso   1.000  O
  O88      1.0000 0.60660  0.67602  0.84020  Biso   1.000  O
  O89      1.0000 0.68350  0.74802  0.01160  Biso   1.000  O
  O90      1.0000 0.63940  0.75577  0.19750  Biso   1.000  O
  O91      1.0000 0.65010  0.80760  0.05600  Biso   1.000  O
  O92      1.0000 0.55960  0.76143  0.94630  Biso   1.000  O
  O93      1.0000 0.70040  0.71945  0.74760  Biso   1.000  O
  O94      1.0000 0.58350  0.74664  0.66840  Biso   1.000  O
  O95      1.0000 0.68700  0.78661  0.76320  Biso   1.000  O
  O96      1.0000 0.65270  0.75660  0.53230  Biso   1.000  O
  Nd9      1.0000 0.24248  0.80741  0.49109  Biso   1.000  Nd
  Nd10     1.0000 0.36248  0.96905  0.52077  Biso   1.000  Nd
  S25      1.0000 0.24708  0.02621  0.62810  Biso   1.000  S
  S26      1.0000 0.44162  0.96429  0.86190  Biso   1.000  S
  S27      1.0000 0.29368  0.88912  0.48360  Biso   1.000  S
  S28      1.0000 0.09507  0.84244  0.46210  Biso   1.000  S
  S29      1.0000 0.13222  0.73216  0.55713  Biso   1.000  S
  S30      1.0000 0.15593  0.74737  0.17764  Biso   1.000  S
  O97      1.0000 0.22500  0.06320  0.59500  Biso   1.000  O
  O98      1.0000 0.28590  0.02010  0.77780  Biso   1.000  O
  O99      1.0000 0.17930  0.00450  0.57910  Biso   1.000  O
  O100     1.0000 0.28410  0.01270  0.54540  Biso   1.000  O
  O101     1.0000 0.41330  0.97248  0.96960  Biso   1.000  O
  O102     1.0000 0.43470  0.99706  0.77090  Biso   1.000  O
  O103     1.0000 0.51570  0.95175  0.93930  Biso   1.000  O
  O104     1.0000 0.40010  0.93488  0.76090  Biso   1.000  O
  O105     1.0000 0.26130  0.92459  0.49830  Biso   1.000  O
  O106     1.0000 0.35910  0.89953  0.46770  Biso   1.000  O
  O107     1.0000 0.30960  0.86482  0.61020  Biso   1.000  O
  O108     1.0000 0.24320  0.86751  0.35700  Biso   1.000  O
  O109     1.0000 0.08130  0.88188  0.43420  Biso   1.000  O
  O110     1.0000 0.03370  0.82296  0.46660  Biso   1.000  O
  O111     1.0000 0.16160  0.83625  0.59220  Biso   1.000  O
  O112     1.0000 0.10660  0.82398  0.34020  Biso   1.000  O
  O113     1.0000 0.18350  0.75198  0.51160  Biso   1.000  O
  O114     1.0000 0.13940  0.74423  0.69750  Biso   1.000  O
  O115     1.0000 0.15010  0.69240  0.55600  Biso   1.000  O
  O116     1.0000 0.05960  0.73857  0.44630  Biso   1.000  O
  O117     1.0000 0.20040  0.78055  0.24760  Biso   1.000  O
  O118     1.0000 0.08350  0.75336  0.16840  Biso   1.000  O
  O119     1.0000 0.18700  0.71339  0.26320  Biso   1.000  O
  O120     1.0000 0.15270  0.74340  0.03230  Biso   1.000  O
  Nd11     1.0000 0.74248  0.30741  0.49109  Biso   1.000  Nd
  Nd12     1.0000 0.86248  0.46905  0.52077  Biso   1.000  Nd
  S31      1.0000 0.74708  0.52621  0.62810  Biso   1.000  S
  S32      1.0000 0.94162  0.46429  0.86190  Biso   1.000  S
  S33      1.0000 0.79368  0.38912  0.48360  Biso   1.000  S
  S34      1.0000 0.59507  0.34244  0.46210  Biso   1.000  S
  S35      1.0000 0.63222  0.23216  0.55713  Biso   1.000  S
  S36      1.0000 0.65593  0.24737  0.17764  Biso   1.000  S
  O121     1.0000 0.72500  0.56320  0.59500  Biso   1.000  O
  O122     1.0000 0.78590  0.52010  0.77780  Biso   1.000  O
  O123     1.0000 0.67930  0.50450  0.57910  Biso   1.000  O
  O124     1.0000 0.78410  0.51270  0.54540  Biso   1.000  O
  O125     1.0000 0.91330  0.47248  0.96960  Biso   1.000  O
  O126     1.0000 0.93470  0.49706  0.77090  Biso   1.000  O
  O127     1.0000 0.01570  0.45175  0.93930  Biso   1.000  O
  O128     1.0000 0.90010  0.43488  0.76090  Biso   1.000  O
  O129     1.0000 0.76130  0.42459  0.49830  Biso   1.000  O
  O130     1.0000 0.85910  0.39953  0.46770  Biso   1.000  O
  O131     1.0000 0.80960  0.36482  0.61020  Biso   1.000  O
  O132     1.0000 0.74320  0.36751  0.35700  Biso   1.000  O
  O133     1.0000 0.58130  0.38188  0.43420  Biso   1.000  O
  O134     1.0000 0.53370  0.32296  0.46660  Biso   1.000  O
  O135     1.0000 0.66160  0.33625  0.59220  Biso   1.000  O
  O136     1.0000 0.60660  0.32398  0.34020  Biso   1.000  O
  O137     1.0000 0.68350  0.25198  0.51160  Biso   1.000  O
  O138     1.0000 0.63940  0.24423  0.69750  Biso   1.000  O
  O139     1.0000 0.65010  0.19240  0.55600  Biso   1.000  O
  O140     1.0000 0.55960  0.23857  0.44630  Biso   1.000  O
  O141     1.0000 0.70040  0.28055  0.24760  Biso   1.000  O
  O142     1.0000 0.58350  0.25336  0.16840  Biso   1.000  O
  O143     1.0000 0.68700  0.21339  0.26320  Biso   1.000  O
  O144     1.0000 0.65270  0.24340  0.03230  Biso   1.000  O
  Nd13     1.0000 0.75752  0.80741  0.00891  Biso   1.000  Nd
  Nd14     1.0000 0.63752  0.96905  0.97923  Biso   1.000  Nd
  S37      1.0000 0.75292  0.02621  0.87190  Biso   1.000  S
  S38      1.0000 0.55838  0.96429  0.63810  Biso   1.000  S
  S39      1.0000 0.70632  0.88912  0.01640  Biso   1.000  S
  S40      1.0000 0.90493  0.84244  0.03790  Biso   1.000  S
  S41      1.0000 0.86778  0.73216  0.94287  Biso   1.000  S
  S42      1.0000 0.84407  0.74737  0.32236  Biso   1.000  S
  O145     1.0000 0.77500  0.06320  0.90500  Biso   1.000  O
  O146     1.0000 0.71410  0.02010  0.72220  Biso   1.000  O
  O147     1.0000 0.82070  0.00450  0.92090  Biso   1.000  O
  O148     1.0000 0.71590  0.01270  0.95460  Biso   1.000  O
  O149     1.0000 0.58670  0.97248  0.53040  Biso   1.000  O
  O150     1.0000 0.56530  0.99706  0.72910  Biso   1.000  O
  O151     1.0000 0.48430  0.95175  0.56070  Biso   1.000  O
  O152     1.0000 0.59990  0.93488  0.73910  Biso   1.000  O
  O153     1.0000 0.73870  0.92459  0.00170  Biso   1.000  O
  O154     1.0000 0.64090  0.89953  0.03230  Biso   1.000  O
  O155     1.0000 0.69040  0.86482  0.88980  Biso   1.000  O
  O156     1.0000 0.75680  0.86751  0.14300  Biso   1.000  O
  O157     1.0000 0.91870  0.88188  0.06580  Biso   1.000  O
  O158     1.0000 0.96630  0.82296  0.03340  Biso   1.000  O
  O159     1.0000 0.83840  0.83625  0.90780  Biso   1.000  O
  O160     1.0000 0.89340  0.82398  0.15980  Biso   1.000  O
  O161     1.0000 0.81650  0.75198  0.98840  Biso   1.000  O
  O162     1.0000 0.86060  0.74423  0.80250  Biso   1.000  O
  O163     1.0000 0.84990  0.69240  0.94400  Biso   1.000  O
  O164     1.0000 0.94040  0.73857  0.05370  Biso   1.000  O
  O165     1.0000 0.79960  0.78055  0.25240  Biso   1.000  O
  O166     1.0000 0.91650  0.75336  0.33160  Biso   1.000  O
  O167     1.0000 0.81300  0.71339  0.23680  Biso   1.000  O
  O168     1.0000 0.84730  0.74340  0.46770  Biso   1.000  O
  Nd15     1.0000 0.25752  0.30741  0.00891  Biso   1.000  Nd
  Nd16     1.0000 0.13752  0.46905  0.97923  Biso   1.000  Nd
  S43      1.0000 0.25292  0.52621  0.87190  Biso   1.000  S
  S44      1.0000 0.05838  0.46429  0.63810  Biso   1.000  S
  S45      1.0000 0.20632  0.38912  0.01640  Biso   1.000  S
  S46      1.0000 0.40493  0.34244  0.03790  Biso   1.000  S
  S47      1.0000 0.36778  0.23216  0.94287  Biso   1.000  S
  S48      1.0000 0.34407  0.24737  0.32236  Biso   1.000  S
  O169     1.0000 0.27500  0.56320  0.90500  Biso   1.000  O
  O170     1.0000 0.21410  0.52010  0.72220  Biso   1.000  O
  O171     1.0000 0.32070  0.50450  0.92090  Biso   1.000  O
  O172     1.0000 0.21590  0.51270  0.95460  Biso   1.000  O
  O173     1.0000 0.08670  0.47248  0.53040  Biso   1.000  O
  O174     1.0000 0.06530  0.49706  0.72910  Biso   1.000  O
  O175     1.0000 0.98430  0.45175  0.56070  Biso   1.000  O
  O176     1.0000 0.09990  0.43488  0.73910  Biso   1.000  O
  O177     1.0000 0.23870  0.42459  0.00170  Biso   1.000  O
  O178     1.0000 0.14090  0.39953  0.03230  Biso   1.000  O
  O179     1.0000 0.19040  0.36482  0.88980  Biso   1.000  O
  O180     1.0000 0.25680  0.36751  0.14300  Biso   1.000  O
  O181     1.0000 0.41870  0.38188  0.06580  Biso   1.000  O
  O182     1.0000 0.46630  0.32296  0.03340  Biso   1.000  O
  O183     1.0000 0.33840  0.33625  0.90780  Biso   1.000  O
  O184     1.0000 0.39340  0.32398  0.15980  Biso   1.000  O
  O185     1.0000 0.31650  0.25198  0.98840  Biso   1.000  O
  O186     1.0000 0.36060  0.24423  0.80250  Biso   1.000  O
  O187     1.0000 0.34990  0.19240  0.94400  Biso   1.000  O
  O188     1.0000 0.44040  0.23857  0.05370  Biso   1.000  O
  O189     1.0000 0.29960  0.28055  0.25240  Biso   1.000  O
  O190     1.0000 0.41650  0.25336  0.33160  Biso   1.000  O
  O191     1.0000 0.31300  0.21339  0.23680  Biso   1.000  O
  O192     1.0000 0.34730  0.24340  0.46770  Biso   1.000  O
  Nd17     1.0000 0.00000  0.22002  0.75000  Biso   1.000  Nd
  Nd18     1.0000 0.50000  0.72002  0.75000  Biso   1.000  Nd
  Nd19     1.0000 0.00000  0.77998  0.25000  Biso   1.000  Nd
  Nd20     1.0000 0.50000  0.27998  0.25000  Biso   1.000  Nd
