data_image0
_cell_length_a       12.8585
_cell_length_b       11.9873
_cell_length_c       7.6685
_cell_angle_alpha    90
_cell_angle_beta     98.896
_cell_angle_gamma    90

_symmetry_space_group_name_H-M    "P 1"
_symmetry_int_tables_number       1

loop_
  _symmetry_equiv_pos_as_xyz
  'x, y, z'

loop_
  _atom_site_label
  _atom_site_occupancy
  _atom_site_fract_x
  _atom_site_fract_y
  _atom_site_fract_z
  _atom_site_thermal_displace_type
  _atom_site_B_iso_or_equiv
  _atom_site_type_symbol
  Co1      1.0000 0.26570  0.48850  0.59428  Biso   1.000  Co
  O1       1.0000 0.13750  0.58550  0.47720  Biso   1.000  O
  O2       1.0000 0.10620  0.74750  0.33110  Biso   1.000  O
  O3       1.0000 0.22020  0.98810  0.33640  Biso   1.000  O
  O4       1.0000 0.15070  0.94000  0.57110  Biso   1.000  O
  O5       1.0000 0.59680  0.91440  0.78750  Biso   1.000  O
  O6       1.0000 0.64340  0.73480  0.79000  Biso   1.000  O
  N1       1.0000 0.33650  0.64640  0.58590  Biso   1.000  N
  C1       1.0000 0.16070  0.68440  0.43560  Biso   1.000  C
  C2       1.0000 0.26890  0.72630  0.51790  Biso   1.000  C
  C3       1.0000 0.29740  0.83770  0.51970  Biso   1.000  C
  C4       1.0000 0.39880  0.86700  0.59340  Biso   1.000  C
  H1       1.0000 0.41990  0.94120  0.59590  Biso   1.000  H
  C5       1.0000 0.46880  0.78440  0.66360  Biso   1.000  C
  C6       1.0000 0.43460  0.67460  0.65490  Biso   1.000  C
  H2       1.0000 0.48160  0.61870  0.69860  Biso   1.000  H
  C7       1.0000 0.21600  0.92850  0.46630  Biso   1.000  C
  C8       1.0000 0.57870  0.81300  0.75260  Biso   1.000  C
  Co2      1.0000 0.73430  0.98850  0.90572  Biso   1.000  Co
  O7       1.0000 0.86250  0.08550  0.02280  Biso   1.000  O
  O8       1.0000 0.89380  0.24750  0.16890  Biso   1.000  O
  O9       1.0000 0.77980  0.48810  0.16360  Biso   1.000  O
  O10      1.0000 0.84930  0.44000  0.92890  Biso   1.000  O
  O11      1.0000 0.40320  0.41440  0.71250  Biso   1.000  O
  O12      1.0000 0.35660  0.23480  0.71000  Biso   1.000  O
  N2       1.0000 0.66350  0.14640  0.91410  Biso   1.000  N
  C9       1.0000 0.83930  0.18440  0.06440  Biso   1.000  C
  C10      1.0000 0.73110  0.22630  0.98210  Biso   1.000  C
  C11      1.0000 0.70260  0.33770  0.98030  Biso   1.000  C
  C12      1.0000 0.60120  0.36700  0.90660  Biso   1.000  C
  H3       1.0000 0.58010  0.44120  0.90410  Biso   1.000  H
  C13      1.0000 0.53120  0.28440  0.83640  Biso   1.000  C
  C14      1.0000 0.56540  0.17460  0.84510  Biso   1.000  C
  H4       1.0000 0.51840  0.11870  0.80140  Biso   1.000  H
  C15      1.0000 0.78400  0.42850  0.03370  Biso   1.000  C
  C16      1.0000 0.42130  0.31300  0.74740  Biso   1.000  C
  Co3      1.0000 0.73430  0.51150  0.40572  Biso   1.000  Co
  O13      1.0000 0.86250  0.41450  0.52280  Biso   1.000  O
  O14      1.0000 0.89380  0.25250  0.66890  Biso   1.000  O
  O15      1.0000 0.77980  0.01190  0.66360  Biso   1.000  O
  O16      1.0000 0.84930  0.06000  0.42890  Biso   1.000  O
  O17      1.0000 0.40320  0.08560  0.21250  Biso   1.000  O
  O18      1.0000 0.35660  0.26520  0.21000  Biso   1.000  O
  N3       1.0000 0.66350  0.35360  0.41410  Biso   1.000  N
  C17      1.0000 0.83930  0.31560  0.56440  Biso   1.000  C
  C18      1.0000 0.73110  0.27370  0.48210  Biso   1.000  C
  C19      1.0000 0.70260  0.16230  0.48030  Biso   1.000  C
  C20      1.0000 0.60120  0.13300  0.40660  Biso   1.000  C
  H5       1.0000 0.58010  0.05880  0.40410  Biso   1.000  H
  C21      1.0000 0.53120  0.21560  0.33640  Biso   1.000  C
  C22      1.0000 0.56540  0.32540  0.34510  Biso   1.000  C
  H6       1.0000 0.51840  0.38130  0.30140  Biso   1.000  H
  C23      1.0000 0.78400  0.07150  0.53370  Biso   1.000  C
  C24      1.0000 0.42130  0.18700  0.24740  Biso   1.000  C
  Co4      1.0000 0.26570  0.01150  0.09428  Biso   1.000  Co
  O19      1.0000 0.13750  0.91450  0.97720  Biso   1.000  O
  O20      1.0000 0.10620  0.75250  0.83110  Biso   1.000  O
  O21      1.0000 0.22020  0.51190  0.83640  Biso   1.000  O
  O22      1.0000 0.15070  0.56000  0.07110  Biso   1.000  O
  O23      1.0000 0.59680  0.58560  0.28750  Biso   1.000  O
  O24      1.0000 0.64340  0.76520  0.29000  Biso   1.000  O
  N4       1.0000 0.33650  0.85360  0.08590  Biso   1.000  N
  C25      1.0000 0.16070  0.81560  0.93560  Biso   1.000  C
  C26      1.0000 0.26890  0.77370  0.01790  Biso   1.000  C
  C27      1.0000 0.29740  0.66230  0.01970  Biso   1.000  C
  C28      1.0000 0.39880  0.63300  0.09340  Biso   1.000  C
  H7       1.0000 0.41990  0.55880  0.09590  Biso   1.000  H
  C29      1.0000 0.46880  0.71560  0.16360  Biso   1.000  C
  C30      1.0000 0.43460  0.82540  0.15490  Biso   1.000  C
  H8       1.0000 0.48160  0.88130  0.19860  Biso   1.000  H
  C31      1.0000 0.21600  0.57150  0.96630  Biso   1.000  C
  C32      1.0000 0.57870  0.68700  0.25260  Biso   1.000  C
  Co5      1.0000 0.00000  0.00000  0.50000  Biso   1.000  Co
  Co6      1.0000 0.00000  0.50000  0.00000  Biso   1.000  Co
