data_image0
_cell_length_a       13.1317
_cell_length_b       12.1256
_cell_length_c       7.8119
_cell_angle_alpha    90
_cell_angle_beta     99.734
_cell_angle_gamma    90

_symmetry_space_group_name_H-M    "P 1"
_symmetry_int_tables_number       1

loop_
  _symmetry_equiv_pos_as_xyz
  'x, y, z'

loop_
  _atom_site_label
  _atom_site_occupancy
  _atom_site_fract_x
  _atom_site_fract_y
  _atom_site_fract_z
  _atom_site_thermal_displace_type
  _atom_site_B_iso_or_equiv
  _atom_site_type_symbol
  Mn1      1.0000 0.73682  0.48229  0.90140  Biso   1.000  Mn
  O1       1.0000 0.13662  0.09007  0.48080  Biso   1.000  O
  N1       1.0000 0.33549  0.14880  0.58390  Biso   1.000  N
  C1       1.0000 0.16100  0.18730  0.43790  Biso   1.000  C
  O2       1.0000 0.10638  0.24991  0.33490  Biso   1.000  O
  C2       1.0000 0.26820  0.22810  0.51900  Biso   1.000  C
  O3       1.0000 0.15329  0.44222  0.57720  Biso   1.000  O
  C3       1.0000 0.29490  0.33910  0.52340  Biso   1.000  C
  O4       1.0000 0.21979  0.48848  0.34470  Biso   1.000  O
  C4       1.0000 0.39580  0.36750  0.59570  Biso   1.000  C
  H1       1.0000 0.41400  0.44000  0.60600  Biso   1.000  H
  O5       1.0000 0.59326  0.41408  0.77980  Biso   1.000  O
  C5       1.0000 0.46610  0.28590  0.66070  Biso   1.000  C
  O6       1.0000 0.63734  0.23609  0.78610  Biso   1.000  O
  C6       1.0000 0.43240  0.17700  0.65100  Biso   1.000  C
  H2       1.0000 0.47500  0.11800  0.68700  Biso   1.000  H
  C7       1.0000 0.21610  0.42890  0.47240  Biso   1.000  C
  C8       1.0000 0.57470  0.31330  0.74810  Biso   1.000  C
  Mn2      1.0000 0.26318  0.98229  0.59860  Biso   1.000  Mn
  O7       1.0000 0.86338  0.59007  0.01920  Biso   1.000  O
  N2       1.0000 0.66451  0.64880  0.91610  Biso   1.000  N
  C9       1.0000 0.83900  0.68730  0.06210  Biso   1.000  C
  O8       1.0000 0.89362  0.74991  0.16510  Biso   1.000  O
  C10      1.0000 0.73180  0.72810  0.98100  Biso   1.000  C
  O9       1.0000 0.84671  0.94222  0.92280  Biso   1.000  O
  C11      1.0000 0.70510  0.83910  0.97660  Biso   1.000  C
  O10      1.0000 0.78021  0.98848  0.15530  Biso   1.000  O
  C12      1.0000 0.60420  0.86750  0.90430  Biso   1.000  C
  H3       1.0000 0.58600  0.94000  0.89400  Biso   1.000  H
  O11      1.0000 0.40674  0.91408  0.72020  Biso   1.000  O
  C13      1.0000 0.53390  0.78590  0.83930  Biso   1.000  C
  O12      1.0000 0.36266  0.73609  0.71390  Biso   1.000  O
  C14      1.0000 0.56760  0.67700  0.84900  Biso   1.000  C
  H4       1.0000 0.52500  0.61800  0.81300  Biso   1.000  H
  C15      1.0000 0.78390  0.92890  0.02760  Biso   1.000  C
  C16      1.0000 0.42530  0.81330  0.75190  Biso   1.000  C
  Mn3      1.0000 0.26318  0.51771  0.09860  Biso   1.000  Mn
  O13      1.0000 0.86338  0.90993  0.51920  Biso   1.000  O
  N3       1.0000 0.66451  0.85120  0.41610  Biso   1.000  N
  C17      1.0000 0.83900  0.81270  0.56210  Biso   1.000  C
  O14      1.0000 0.89362  0.75009  0.66510  Biso   1.000  O
  C18      1.0000 0.73180  0.77190  0.48100  Biso   1.000  C
  O15      1.0000 0.84671  0.55778  0.42280  Biso   1.000  O
  C19      1.0000 0.70510  0.66090  0.47660  Biso   1.000  C
  O16      1.0000 0.78021  0.51152  0.65530  Biso   1.000  O
  C20      1.0000 0.60420  0.63250  0.40430  Biso   1.000  C
  H5       1.0000 0.58600  0.56000  0.39400  Biso   1.000  H
  O17      1.0000 0.40674  0.58592  0.22020  Biso   1.000  O
  C21      1.0000 0.53390  0.71410  0.33930  Biso   1.000  C
  O18      1.0000 0.36266  0.76391  0.21390  Biso   1.000  O
  C22      1.0000 0.56760  0.82300  0.34900  Biso   1.000  C
  H6       1.0000 0.52500  0.88200  0.31300  Biso   1.000  H
  C23      1.0000 0.78390  0.57110  0.52760  Biso   1.000  C
  C24      1.0000 0.42530  0.68670  0.25190  Biso   1.000  C
  Mn4      1.0000 0.73682  0.01771  0.40140  Biso   1.000  Mn
  O19      1.0000 0.13662  0.40993  0.98080  Biso   1.000  O
  N4       1.0000 0.33549  0.35120  0.08390  Biso   1.000  N
  C25      1.0000 0.16100  0.31270  0.93790  Biso   1.000  C
  O20      1.0000 0.10638  0.25009  0.83490  Biso   1.000  O
  C26      1.0000 0.26820  0.27190  0.01900  Biso   1.000  C
  O21      1.0000 0.15329  0.05778  0.07720  Biso   1.000  O
  C27      1.0000 0.29490  0.16090  0.02340  Biso   1.000  C
  O22      1.0000 0.21979  0.01152  0.84470  Biso   1.000  O
  C28      1.0000 0.39580  0.13250  0.09570  Biso   1.000  C
  H7       1.0000 0.41400  0.06000  0.10600  Biso   1.000  H
  O23      1.0000 0.59326  0.08592  0.27980  Biso   1.000  O
  C29      1.0000 0.46610  0.21410  0.16070  Biso   1.000  C
  O24      1.0000 0.63734  0.26391  0.28610  Biso   1.000  O
  C30      1.0000 0.43240  0.32300  0.15100  Biso   1.000  C
  H8       1.0000 0.47500  0.38200  0.18700  Biso   1.000  H
  C31      1.0000 0.21610  0.07110  0.97240  Biso   1.000  C
  C32      1.0000 0.57470  0.18670  0.24810  Biso   1.000  C
  Mn5      1.0000 0.00000  0.50000  0.50000  Biso   1.000  Mn
  Mn6      1.0000 0.00000  0.00000  0.00000  Biso   1.000  Mn
