data_image0
_cell_length_a       9.151
_cell_length_b       9.1671
_cell_length_c       9.3136
_cell_angle_alpha    77.93
_cell_angle_beta     86.22
_cell_angle_gamma    88.36

_symmetry_space_group_name_H-M    "P 1"
_symmetry_int_tables_number       1

loop_
  _symmetry_equiv_pos_as_xyz
  'x, y, z'

loop_
  _atom_site_label
  _atom_site_occupancy
  _atom_site_fract_x
  _atom_site_fract_y
  _atom_site_fract_z
  _atom_site_thermal_displace_type
  _atom_site_B_iso_or_equiv
  _atom_site_type_symbol
  P1       1.0000 0.35335  0.83150  0.85617  Biso   1.000  P
  P2       1.0000 0.18703  0.38304  0.89947  Biso   1.000  P
  P3       1.0000 0.61876  0.37193  0.67852  Biso   1.000  P
  Al1      1.0000 0.43784  0.13294  0.91199  Biso   1.000  Al
  Al2      1.0000 0.62582  0.39652  0.34237  Biso   1.000  Al
  Al3      1.0000 0.84159  0.36783  0.92376  Biso   1.000  Al
  F1       1.0000 0.39170  0.98880  0.08020  Biso   1.000  F
  O1       1.0000 0.20260  0.77840  0.92950  Biso   1.000  O
  O2       1.0000 0.37490  0.77120  0.71360  Biso   1.000  O
  O3       1.0000 0.47020  0.76580  0.96080  Biso   1.000  O
  O4       1.0000 0.35440  0.00040  0.81130  Biso   1.000  O
  O5       1.0000 0.26520  0.23560  0.92910  Biso   1.000  O
  O6       1.0000 0.02680  0.35870  0.88180  Biso   1.000  O
  O7       1.0000 0.20060  0.46100  0.02850  Biso   1.000  O
  O8       1.0000 0.24570  0.48460  0.75790  Biso   1.000  O
  O9       1.0000 0.50670  0.25590  0.74010  Biso   1.000  O
  O10      1.0000 0.55080  0.52830  0.66900  Biso   1.000  O
  O11      1.0000 0.75330  0.36000  0.76740  Biso   1.000  O
  O12      1.0000 0.67240  0.35670  0.52380  Biso   1.000  O
  O13      1.0000 0.38700  0.99100  0.09700  Biso   1.000  O
  P4       1.0000 0.64665  0.16850  0.14383  Biso   1.000  P
  P5       1.0000 0.81297  0.61696  0.10053  Biso   1.000  P
  P6       1.0000 0.38124  0.62807  0.32148  Biso   1.000  P
  Al4      1.0000 0.56216  0.86706  0.08801  Biso   1.000  Al
  Al5      1.0000 0.37418  0.60348  0.65763  Biso   1.000  Al
  Al6      1.0000 0.15841  0.63217  0.07624  Biso   1.000  Al
  F2       1.0000 0.60830  0.01120  0.91980  Biso   1.000  F
  O14      1.0000 0.79740  0.22160  0.07050  Biso   1.000  O
  O15      1.0000 0.62510  0.22880  0.28640  Biso   1.000  O
  O16      1.0000 0.52980  0.23420  0.03920  Biso   1.000  O
  O17      1.0000 0.64560  0.99960  0.18870  Biso   1.000  O
  O18      1.0000 0.73480  0.76440  0.07090  Biso   1.000  O
  O19      1.0000 0.97320  0.64130  0.11820  Biso   1.000  O
  O20      1.0000 0.79940  0.53900  0.97150  Biso   1.000  O
  O21      1.0000 0.75430  0.51540  0.24210  Biso   1.000  O
  O22      1.0000 0.49330  0.74410  0.25990  Biso   1.000  O
  O23      1.0000 0.44920  0.47170  0.33100  Biso   1.000  O
  O24      1.0000 0.24670  0.64000  0.23260  Biso   1.000  O
  O25      1.0000 0.32760  0.64330  0.47620  Biso   1.000  O
  O26      1.0000 0.61300  0.00900  0.90300  Biso   1.000  O
