data_image0
_cell_length_a       20.9098
_cell_length_b       17.8855
_cell_length_c       14.7913
_cell_angle_alpha    90
_cell_angle_beta     134.842
_cell_angle_gamma    90

_symmetry_space_group_name_H-M    "P 1"
_symmetry_int_tables_number       1

loop_
  _symmetry_equiv_pos_as_xyz
  'x, y, z'

loop_
  _atom_site_label
  _atom_site_occupancy
  _atom_site_fract_x
  _atom_site_fract_y
  _atom_site_fract_z
  _atom_site_thermal_displace_type
  _atom_site_B_iso_or_equiv
  _atom_site_type_symbol
  Mg1      1.0000 0.63370  0.57910  0.86970  Biso   1.000  Mg
  Mg2      1.0000 0.86610  0.41720  0.12020  Biso   1.000  Mg
  Mg3      1.0000 0.48660  0.66860  0.10620  Biso   1.000  Mg
  Mg4      1.0000 0.50110  0.82990  0.88460  Biso   1.000  Mg
  P1       1.0000 0.51200  0.64500  0.91410  Biso   1.000  P
  P2       1.0000 0.85030  0.60020  0.11410  Biso   1.000  P
  P3       1.0000 0.64960  0.39550  0.89640  Biso   1.000  P
  P4       1.0000 0.00440  0.34960  0.40390  Biso   1.000  P
  O1       1.0000 0.57870  0.59650  0.92990  Biso   1.000  O
  O2       1.0000 0.53690  0.72650  0.92530  Biso   1.000  O
  O3       1.0000 0.41490  0.62790  0.78570  Biso   1.000  O
  O4       1.0000 0.51970  0.62320  0.02290  Biso   1.000  O
  O5       1.0000 0.91120  0.61260  0.09340  Biso   1.000  O
  O6       1.0000 0.87920  0.65100  0.22220  Biso   1.000  O
  O7       1.0000 0.85160  0.51920  0.14780  Biso   1.000  O
  O8       1.0000 0.75280  0.62330  0.98980  Biso   1.000  O
  O9       1.0000 0.63870  0.47450  0.84980  Biso   1.000  O
  O10      1.0000 0.59180  0.34030  0.78500  Biso   1.000  O
  O11      1.0000 0.74910  0.37070  0.98480  Biso   1.000  O
  O12      1.0000 0.62270  0.38940  0.97090  Biso   1.000  O
  O13      1.0000 0.91480  0.35260  0.26290  Biso   1.000  O
  O14      1.0000 0.04630  0.27170  0.44460  Biso   1.000  O
  O15      1.0000 0.07030  0.40790  0.42900  Biso   1.000  O
  O16      1.0000 0.98600  0.37460  0.48390  Biso   1.000  O
  Mg5      1.0000 0.13370  0.07910  0.86970  Biso   1.000  Mg
  Mg6      1.0000 0.36610  0.91720  0.12020  Biso   1.000  Mg
  Mg7      1.0000 0.98660  0.16860  0.10620  Biso   1.000  Mg
  Mg8      1.0000 0.00110  0.32990  0.88460  Biso   1.000  Mg
  P5       1.0000 0.01200  0.14500  0.91410  Biso   1.000  P
  P6       1.0000 0.35030  0.10020  0.11410  Biso   1.000  P
  P7       1.0000 0.14960  0.89550  0.89640  Biso   1.000  P
  P8       1.0000 0.50440  0.84960  0.40390  Biso   1.000  P
  O17      1.0000 0.07870  0.09650  0.92990  Biso   1.000  O
  O18      1.0000 0.03690  0.22650  0.92530  Biso   1.000  O
  O19      1.0000 0.91490  0.12790  0.78570  Biso   1.000  O
  O20      1.0000 0.01970  0.12320  0.02290  Biso   1.000  O
  O21      1.0000 0.41120  0.11260  0.09340  Biso   1.000  O
  O22      1.0000 0.37920  0.15100  0.22220  Biso   1.000  O
  O23      1.0000 0.35160  0.01920  0.14780  Biso   1.000  O
  O24      1.0000 0.25280  0.12330  0.98980  Biso   1.000  O
  O25      1.0000 0.13870  0.97450  0.84980  Biso   1.000  O
  O26      1.0000 0.09180  0.84030  0.78500  Biso   1.000  O
  O27      1.0000 0.24910  0.87070  0.98480  Biso   1.000  O
  O28      1.0000 0.12270  0.88940  0.97090  Biso   1.000  O
  O29      1.0000 0.41480  0.85260  0.26290  Biso   1.000  O
  O30      1.0000 0.54630  0.77170  0.44460  Biso   1.000  O
  O31      1.0000 0.57030  0.90790  0.42900  Biso   1.000  O
  O32      1.0000 0.48600  0.87460  0.48390  Biso   1.000  O
  Mg9      1.0000 0.36630  0.57910  0.63030  Biso   1.000  Mg
  Mg10     1.0000 0.13390  0.41720  0.37980  Biso   1.000  Mg
  Mg11     1.0000 0.51340  0.66860  0.39380  Biso   1.000  Mg
  Mg12     1.0000 0.49890  0.82990  0.61540  Biso   1.000  Mg
  P9       1.0000 0.48800  0.64500  0.58590  Biso   1.000  P
  P10      1.0000 0.14970  0.60020  0.38590  Biso   1.000  P
  P11      1.0000 0.35040  0.39550  0.60360  Biso   1.000  P
  P12      1.0000 0.99560  0.34960  0.09610  Biso   1.000  P
  O33      1.0000 0.42130  0.59650  0.57010  Biso   1.000  O
  O34      1.0000 0.46310  0.72650  0.57470  Biso   1.000  O
  O35      1.0000 0.58510  0.62790  0.71430  Biso   1.000  O
  O36      1.0000 0.48030  0.62320  0.47710  Biso   1.000  O
  O37      1.0000 0.08880  0.61260  0.40660  Biso   1.000  O
  O38      1.0000 0.12080  0.65100  0.27780  Biso   1.000  O
  O39      1.0000 0.14840  0.51920  0.35220  Biso   1.000  O
  O40      1.0000 0.24720  0.62330  0.51020  Biso   1.000  O
  O41      1.0000 0.36130  0.47450  0.65020  Biso   1.000  O
  O42      1.0000 0.40820  0.34030  0.71500  Biso   1.000  O
  O43      1.0000 0.25090  0.37070  0.51520  Biso   1.000  O
  O44      1.0000 0.37730  0.38940  0.52910  Biso   1.000  O
  O45      1.0000 0.08520  0.35260  0.23710  Biso   1.000  O
  O46      1.0000 0.95370  0.27170  0.05540  Biso   1.000  O
  O47      1.0000 0.92970  0.40790  0.07100  Biso   1.000  O
  O48      1.0000 0.01400  0.37460  0.01610  Biso   1.000  O
  Mg13     1.0000 0.86630  0.07910  0.63030  Biso   1.000  Mg
  Mg14     1.0000 0.63390  0.91720  0.37980  Biso   1.000  Mg
  Mg15     1.0000 0.01340  0.16860  0.39380  Biso   1.000  Mg
  Mg16     1.0000 0.99890  0.32990  0.61540  Biso   1.000  Mg
  P13      1.0000 0.98800  0.14500  0.58590  Biso   1.000  P
  P14      1.0000 0.64970  0.10020  0.38590  Biso   1.000  P
  P15      1.0000 0.85040  0.89550  0.60360  Biso   1.000  P
  P16      1.0000 0.49560  0.84960  0.09610  Biso   1.000  P
  O49      1.0000 0.92130  0.09650  0.57010  Biso   1.000  O
  O50      1.0000 0.96310  0.22650  0.57470  Biso   1.000  O
  O51      1.0000 0.08510  0.12790  0.71430  Biso   1.000  O
  O52      1.0000 0.98030  0.12320  0.47710  Biso   1.000  O
  O53      1.0000 0.58880  0.11260  0.40660  Biso   1.000  O
  O54      1.0000 0.62080  0.15100  0.27780  Biso   1.000  O
  O55      1.0000 0.64840  0.01920  0.35220  Biso   1.000  O
  O56      1.0000 0.74720  0.12330  0.51020  Biso   1.000  O
  O57      1.0000 0.86130  0.97450  0.65020  Biso   1.000  O
  O58      1.0000 0.90820  0.84030  0.71500  Biso   1.000  O
  O59      1.0000 0.75090  0.87070  0.51520  Biso   1.000  O
  O60      1.0000 0.87730  0.88940  0.52910  Biso   1.000  O
  O61      1.0000 0.58520  0.85260  0.23710  Biso   1.000  O
  O62      1.0000 0.45370  0.77170  0.05540  Biso   1.000  O
  O63      1.0000 0.42970  0.90790  0.07100  Biso   1.000  O
  O64      1.0000 0.51400  0.87460  0.01610  Biso   1.000  O
  Mg17     1.0000 0.36630  0.42090  0.13030  Biso   1.000  Mg
  Mg18     1.0000 0.13390  0.58280  0.87980  Biso   1.000  Mg
  Mg19     1.0000 0.51340  0.33140  0.89380  Biso   1.000  Mg
  Mg20     1.0000 0.49890  0.17010  0.11540  Biso   1.000  Mg
  P17      1.0000 0.48800  0.35500  0.08590  Biso   1.000  P
  P18      1.0000 0.14970  0.39980  0.88590  Biso   1.000  P
  P19      1.0000 0.35040  0.60450  0.10360  Biso   1.000  P
  P20      1.0000 0.99560  0.65040  0.59610  Biso   1.000  P
  O65      1.0000 0.42130  0.40350  0.07010  Biso   1.000  O
  O66      1.0000 0.46310  0.27350  0.07470  Biso   1.000  O
  O67      1.0000 0.58510  0.37210  0.21430  Biso   1.000  O
  O68      1.0000 0.48030  0.37680  0.97710  Biso   1.000  O
  O69      1.0000 0.08880  0.38740  0.90660  Biso   1.000  O
  O70      1.0000 0.12080  0.34900  0.77780  Biso   1.000  O
  O71      1.0000 0.14840  0.48080  0.85220  Biso   1.000  O
  O72      1.0000 0.24720  0.37670  0.01020  Biso   1.000  O
  O73      1.0000 0.36130  0.52550  0.15020  Biso   1.000  O
  O74      1.0000 0.40820  0.65970  0.21500  Biso   1.000  O
  O75      1.0000 0.25090  0.62930  0.01520  Biso   1.000  O
  O76      1.0000 0.37730  0.61060  0.02910  Biso   1.000  O
  O77      1.0000 0.08520  0.64740  0.73710  Biso   1.000  O
  O78      1.0000 0.95370  0.72830  0.55540  Biso   1.000  O
  O79      1.0000 0.92970  0.59210  0.57100  Biso   1.000  O
  O80      1.0000 0.01400  0.62540  0.51610  Biso   1.000  O
  Mg21     1.0000 0.86630  0.92090  0.13030  Biso   1.000  Mg
  Mg22     1.0000 0.63390  0.08280  0.87980  Biso   1.000  Mg
  Mg23     1.0000 0.01340  0.83140  0.89380  Biso   1.000  Mg
  Mg24     1.0000 0.99890  0.67010  0.11540  Biso   1.000  Mg
  P21      1.0000 0.98800  0.85500  0.08590  Biso   1.000  P
  P22      1.0000 0.64970  0.89980  0.88590  Biso   1.000  P
  P23      1.0000 0.85040  0.10450  0.10360  Biso   1.000  P
  P24      1.0000 0.49560  0.15040  0.59610  Biso   1.000  P
  O81      1.0000 0.92130  0.90350  0.07010  Biso   1.000  O
  O82      1.0000 0.96310  0.77350  0.07470  Biso   1.000  O
  O83      1.0000 0.08510  0.87210  0.21430  Biso   1.000  O
  O84      1.0000 0.98030  0.87680  0.97710  Biso   1.000  O
  O85      1.0000 0.58880  0.88740  0.90660  Biso   1.000  O
  O86      1.0000 0.62080  0.84900  0.77780  Biso   1.000  O
  O87      1.0000 0.64840  0.98080  0.85220  Biso   1.000  O
  O88      1.0000 0.74720  0.87670  0.01020  Biso   1.000  O
  O89      1.0000 0.86130  0.02550  0.15020  Biso   1.000  O
  O90      1.0000 0.90820  0.15970  0.21500  Biso   1.000  O
  O91      1.0000 0.75090  0.12930  0.01520  Biso   1.000  O
  O92      1.0000 0.87730  0.11060  0.02910  Biso   1.000  O
  O93      1.0000 0.58520  0.14740  0.73710  Biso   1.000  O
  O94      1.0000 0.45370  0.22830  0.55540  Biso   1.000  O
  O95      1.0000 0.42970  0.09210  0.57100  Biso   1.000  O
  O96      1.0000 0.51400  0.12540  0.51610  Biso   1.000  O
  Mg25     1.0000 0.63370  0.42090  0.36970  Biso   1.000  Mg
  Mg26     1.0000 0.86610  0.58280  0.62020  Biso   1.000  Mg
  Mg27     1.0000 0.48660  0.33140  0.60620  Biso   1.000  Mg
  Mg28     1.0000 0.50110  0.17010  0.38460  Biso   1.000  Mg
  P25      1.0000 0.51200  0.35500  0.41410  Biso   1.000  P
  P26      1.0000 0.85030  0.39980  0.61410  Biso   1.000  P
  P27      1.0000 0.64960  0.60450  0.39640  Biso   1.000  P
  P28      1.0000 0.00440  0.65040  0.90390  Biso   1.000  P
  O97      1.0000 0.57870  0.40350  0.42990  Biso   1.000  O
  O98      1.0000 0.53690  0.27350  0.42530  Biso   1.000  O
  O99      1.0000 0.41490  0.37210  0.28570  Biso   1.000  O
  O100     1.0000 0.51970  0.37680  0.52290  Biso   1.000  O
  O101     1.0000 0.91120  0.38740  0.59340  Biso   1.000  O
  O102     1.0000 0.87920  0.34900  0.72220  Biso   1.000  O
  O103     1.0000 0.85160  0.48080  0.64780  Biso   1.000  O
  O104     1.0000 0.75280  0.37670  0.48980  Biso   1.000  O
  O105     1.0000 0.63870  0.52550  0.34980  Biso   1.000  O
  O106     1.0000 0.59180  0.65970  0.28500  Biso   1.000  O
  O107     1.0000 0.74910  0.62930  0.48480  Biso   1.000  O
  O108     1.0000 0.62270  0.61060  0.47090  Biso   1.000  O
  O109     1.0000 0.91480  0.64740  0.76290  Biso   1.000  O
  O110     1.0000 0.04630  0.72830  0.94460  Biso   1.000  O
  O111     1.0000 0.07030  0.59210  0.92900  Biso   1.000  O
  O112     1.0000 0.98600  0.62540  0.98390  Biso   1.000  O
  Mg29     1.0000 0.13370  0.92090  0.36970  Biso   1.000  Mg
  Mg30     1.0000 0.36610  0.08280  0.62020  Biso   1.000  Mg
  Mg31     1.0000 0.98660  0.83140  0.60620  Biso   1.000  Mg
  Mg32     1.0000 0.00110  0.67010  0.38460  Biso   1.000  Mg
  P29      1.0000 0.01200  0.85500  0.41410  Biso   1.000  P
  P30      1.0000 0.35030  0.89980  0.61410  Biso   1.000  P
  P31      1.0000 0.14960  0.10450  0.39640  Biso   1.000  P
  P32      1.0000 0.50440  0.15040  0.90390  Biso   1.000  P
  O113     1.0000 0.07870  0.90350  0.42990  Biso   1.000  O
  O114     1.0000 0.03690  0.77350  0.42530  Biso   1.000  O
  O115     1.0000 0.91490  0.87210  0.28570  Biso   1.000  O
  O116     1.0000 0.01970  0.87680  0.52290  Biso   1.000  O
  O117     1.0000 0.41120  0.88740  0.59340  Biso   1.000  O
  O118     1.0000 0.37920  0.84900  0.72220  Biso   1.000  O
  O119     1.0000 0.35160  0.98080  0.64780  Biso   1.000  O
  O120     1.0000 0.25280  0.87670  0.48980  Biso   1.000  O
  O121     1.0000 0.13870  0.02550  0.34980  Biso   1.000  O
  O122     1.0000 0.09180  0.15970  0.28500  Biso   1.000  O
  O123     1.0000 0.24910  0.12930  0.48480  Biso   1.000  O
  O124     1.0000 0.12270  0.11060  0.47090  Biso   1.000  O
  O125     1.0000 0.41480  0.14740  0.76290  Biso   1.000  O
  O126     1.0000 0.54630  0.22830  0.94460  Biso   1.000  O
  O127     1.0000 0.57030  0.09210  0.92900  Biso   1.000  O
  O128     1.0000 0.48600  0.12540  0.98390  Biso   1.000  O
