data_MOQSIV_clean
_audit_creation_date              2014-07-02
_audit_creation_method            'Materials Studio'
_symmetry_space_group_name_H-M    'P1'
_symmetry_Int_Tables_number       1
_symmetry_cell_setting            triclinic
loop_
_symmetry_equiv_pos_as_xyz
  x,y,z
_cell_length_a                    10.5903
_cell_length_b                    13.3620
_cell_length_c                    20.9070
_cell_angle_alpha                 90.0000
_cell_angle_beta                  90.0000
_cell_angle_gamma                 113.3460
loop_
_atom_site_label
_atom_site_type_symbol
_atom_site_fract_x
_atom_site_fract_y
_atom_site_fract_z
_atom_site_U_iso_or_equiv
_atom_site_adp_type
_atom_site_occupancy
Cd1    Cd    0.40392   0.53520   0.43566   0.01267  Uiso   1.00
Cd2    Cd    0.59608   0.46480   0.93566   0.01267  Uiso   1.00
Cd3    Cd    0.13128   0.53520   0.06434   0.01267  Uiso   1.00
Cd4    Cd    0.86872   0.46480   0.56434   0.01267  Uiso   1.00
H1     H     0.21910   0.46320   0.64620   0.01267  Uiso   1.00
H2     H     0.36270   0.37420   0.80220   0.01267  Uiso   1.00
H3     H     0.55460   0.38600   0.74760   0.01267  Uiso   1.00
H4     H     0.56010   0.37840   0.47610   0.01267  Uiso   1.00
H5     H     0.42070   0.37720   0.30440   0.01267  Uiso   1.00
H6     H     0.52510   0.24600   0.30590   0.01267  Uiso   1.00
H7     H     0.72260   0.27140   0.45180   0.01267  Uiso   1.00
H8     H     0.58210   0.16980   0.45560   0.01267  Uiso   1.00
H9     H     0.51050   0.03720   0.36810   0.01267  Uiso   1.00
H10    H     0.57800   0.95840   0.28310   0.01267  Uiso   1.00
H11    H     0.95140   0.19680   0.28850   0.01267  Uiso   1.00
H12    H     0.88560   0.28360   0.36960   0.01267  Uiso   1.00
H13    H     0.91700   0.65680   0.04700   0.01267  Uiso   1.00
H14    H     0.29520   0.81220   0.10660   0.01267  Uiso   1.00
H15    H     0.18950   0.94700   0.10270   0.01267  Uiso   1.00
H16    H     0.95290   0.91460   0.02560   0.01267  Uiso   1.00
H17    H     0.83370   0.80360   0.04370   0.01267  Uiso   1.00
H18    H     0.75450   0.77700   0.15990   0.01267  Uiso   1.00
H19    H     0.71410   0.86160   0.24980   0.01267  Uiso   1.00
H20    H     0.94250   0.15100   0.17890   0.01267  Uiso   1.00
H21    H     0.00040   0.07040   0.09290   0.01267  Uiso   1.00
H22    H     0.78090   0.53680   0.14620   0.01267  Uiso   1.00
H23    H     0.63730   0.62580   0.30220   0.01267  Uiso   1.00
H24    H     0.44540   0.61400   0.24760   0.01267  Uiso   1.00
H25    H     0.43990   0.62160   0.97610   0.01267  Uiso   1.00
H26    H     0.57930   0.62280   0.80440   0.01267  Uiso   1.00
H27    H     0.47490   0.75400   0.80590   0.01267  Uiso   1.00
H28    H     0.27740   0.72860   0.95180   0.01267  Uiso   1.00
H29    H     0.41790   0.83020   0.95560   0.01267  Uiso   1.00
H30    H     0.48950   0.96280   0.86810   0.01267  Uiso   1.00
H31    H     0.42200   0.04160   0.78310   0.01267  Uiso   1.00
H32    H     0.04860   0.80320   0.78850   0.01267  Uiso   1.00
H33    H     0.11440   0.71640   0.86960   0.01267  Uiso   1.00
H34    H     0.08300   0.34320   0.54700   0.01267  Uiso   1.00
H35    H     0.70480   0.18780   0.60660   0.01267  Uiso   1.00
H36    H     0.81050   0.05300   0.60270   0.01267  Uiso   1.00
H37    H     0.04710   0.08540   0.52560   0.01267  Uiso   1.00
H38    H     0.16630   0.19640   0.54370   0.01267  Uiso   1.00
H39    H     0.24550   0.22300   0.65990   0.01267  Uiso   1.00
H40    H     0.28590   0.13840   0.74980   0.01267  Uiso   1.00
H41    H     0.05750   0.84900   0.67890   0.01267  Uiso   1.00
H42    H     0.99960   0.92960   0.59290   0.01267  Uiso   1.00
H43    H     0.24410   0.46320   0.85380   0.01267  Uiso   1.00
H44    H     0.01150   0.37420   0.69780   0.01267  Uiso   1.00
H45    H     0.83140   0.38600   0.75240   0.01267  Uiso   1.00
H46    H     0.81830   0.37840   0.02390   0.01267  Uiso   1.00
H47    H     0.95650   0.37720   0.19560   0.01267  Uiso   1.00
H48    H     0.72090   0.24600   0.19410   0.01267  Uiso   1.00
H49    H     0.54880   0.27140   0.04820   0.01267  Uiso   1.00
H50    H     0.58770   0.16980   0.04440   0.01267  Uiso   1.00
H51    H     0.52670   0.03720   0.13190   0.01267  Uiso   1.00
H52    H     0.38040   0.95840   0.21690   0.01267  Uiso   1.00
H53    H     0.24540   0.19680   0.21150   0.01267  Uiso   1.00
H54    H     0.39800   0.28360   0.13040   0.01267  Uiso   1.00
H55    H     0.73980   0.65680   0.45300   0.01267  Uiso   1.00
H56    H     0.51700   0.81220   0.39340   0.01267  Uiso   1.00
H57    H     0.75750   0.94700   0.39730   0.01267  Uiso   1.00
H58    H     0.96170   0.91460   0.47440   0.01267  Uiso   1.00
H59    H     0.96990   0.80360   0.45630   0.01267  Uiso   1.00
H60    H     0.02250   0.77700   0.34010   0.01267  Uiso   1.00
H61    H     0.14750   0.86160   0.25020   0.01267  Uiso   1.00
H62    H     0.20850   0.15100   0.32110   0.01267  Uiso   1.00
H63    H     0.07000   0.07040   0.40710   0.01267  Uiso   1.00
H64    H     0.75590   0.53680   0.35380   0.01267  Uiso   1.00
H65    H     0.98850   0.62580   0.19780   0.01267  Uiso   1.00
H66    H     0.16860   0.61400   0.25240   0.01267  Uiso   1.00
H67    H     0.18170   0.62160   0.52390   0.01267  Uiso   1.00
H68    H     0.04350   0.62280   0.69560   0.01267  Uiso   1.00
H69    H     0.27910   0.75400   0.69410   0.01267  Uiso   1.00
H70    H     0.45120   0.72860   0.54820   0.01267  Uiso   1.00
H71    H     0.41230   0.83020   0.54440   0.01267  Uiso   1.00
H72    H     0.47330   0.96280   0.63190   0.01267  Uiso   1.00
H73    H     0.61960   0.04160   0.71690   0.01267  Uiso   1.00
H74    H     0.75460   0.80320   0.71150   0.01267  Uiso   1.00
H75    H     0.60200   0.71640   0.63040   0.01267  Uiso   1.00
H76    H     0.26020   0.34320   0.95300   0.01267  Uiso   1.00
H77    H     0.48300   0.18780   0.89340   0.01267  Uiso   1.00
H78    H     0.24250   0.05300   0.89730   0.01267  Uiso   1.00
H79    H     0.03830   0.08540   0.97440   0.01267  Uiso   1.00
H80    H     0.03010   0.19640   0.95630   0.01267  Uiso   1.00
H81    H     0.97750   0.22300   0.84010   0.01267  Uiso   1.00
H82    H     0.85250   0.13840   0.75020   0.01267  Uiso   1.00
H83    H     0.79150   0.84900   0.82110   0.01267  Uiso   1.00
H84    H     0.93000   0.92960   0.90710   0.01267  Uiso   1.00
C1     C     0.41690   0.48920   0.56270   0.01267  Uiso   1.00
C2     C     0.40180   0.45520   0.63180   0.01267  Uiso   1.00
C3     C     0.28800   0.44900   0.66690   0.01267  Uiso   1.00
C4     C     0.27150   0.42240   0.73180   0.01267  Uiso   1.00
C5     C     0.37250   0.39620   0.75970   0.01267  Uiso   1.00
C6     C     0.48740   0.40180   0.72660   0.01267  Uiso   1.00
C7     C     0.50510   0.43060   0.66260   0.01267  Uiso   1.00
C8     C     0.63210   0.43320   0.62770   0.01267  Uiso   1.00
C9     C     0.53840   0.36200   0.43320   0.01267  Uiso   1.00
C10    C     0.46210   0.36120   0.34000   0.01267  Uiso   1.00
C11    C     0.52050   0.28900   0.34010   0.01267  Uiso   1.00
C12    C     0.64390   0.22460   0.42700   0.01267  Uiso   1.00
C13    C     0.69090   0.17040   0.37610   0.01267  Uiso   1.00
C14    C     0.59870   0.07080   0.35130   0.01267  Uiso   1.00
C15    C     0.64120   0.02260   0.30080   0.01267  Uiso   1.00
C16    C     0.77480   0.06680   0.27580   0.01267  Uiso   1.00
C17    C     0.86160   0.16460   0.30370   0.01267  Uiso   1.00
C18    C     0.82340   0.21800   0.35300   0.01267  Uiso   1.00
C19    C     0.99820   0.71100   0.06160   0.01267  Uiso   1.00
C20    C     0.20510   0.79720   0.09440   0.01267  Uiso   1.00
C21    C     0.14890   0.87340   0.09230   0.01267  Uiso   1.00
C22    C     0.91810   0.86040   0.05920   0.01267  Uiso   1.00
C23    C     0.88360   0.91500   0.11900   0.01267  Uiso   1.00
C24    C     0.79560   0.85240   0.16420   0.01267  Uiso   1.00
C25    C     0.76850   0.90400   0.21700   0.01267  Uiso   1.00
C26    C     0.81930   0.01500   0.22220   0.01267  Uiso   1.00
C27    C     0.90570   0.07540   0.17570   0.01267  Uiso   1.00
C28    C     0.94020   0.02780   0.12400   0.01267  Uiso   1.00
C29    C     0.58310   0.51080   0.06270   0.01267  Uiso   1.00
C30    C     0.59820   0.54480   0.13180   0.01267  Uiso   1.00
C31    C     0.71200   0.55100   0.16690   0.01267  Uiso   1.00
C32    C     0.72850   0.57760   0.23180   0.01267  Uiso   1.00
C33    C     0.62750   0.60380   0.25970   0.01267  Uiso   1.00
C34    C     0.51260   0.59820   0.22660   0.01267  Uiso   1.00
C35    C     0.49490   0.56940   0.16260   0.01267  Uiso   1.00
C36    C     0.36790   0.56680   0.12770   0.01267  Uiso   1.00
C37    C     0.46160   0.63800   0.93320   0.01267  Uiso   1.00
C38    C     0.53790   0.63880   0.84000   0.01267  Uiso   1.00
C39    C     0.47950   0.71100   0.84010   0.01267  Uiso   1.00
C40    C     0.35610   0.77540   0.92700   0.01267  Uiso   1.00
C41    C     0.30910   0.82960   0.87610   0.01267  Uiso   1.00
C42    C     0.40130   0.92920   0.85130   0.01267  Uiso   1.00
C43    C     0.35880   0.97740   0.80080   0.01267  Uiso   1.00
C44    C     0.22520   0.93320   0.77580   0.01267  Uiso   1.00
C45    C     0.13840   0.83540   0.80370   0.01267  Uiso   1.00
C46    C     0.17660   0.78200   0.85300   0.01267  Uiso   1.00
C47    C     0.00180   0.28900   0.56160   0.01267  Uiso   1.00
C48    C     0.79490   0.20280   0.59440   0.01267  Uiso   1.00
C49    C     0.85110   0.12660   0.59230   0.01267  Uiso   1.00
C50    C     0.08190   0.13960   0.55920   0.01267  Uiso   1.00
C51    C     0.11640   0.08500   0.61900   0.01267  Uiso   1.00
C52    C     0.20440   0.14760   0.66420   0.01267  Uiso   1.00
C53    C     0.23150   0.09600   0.71700   0.01267  Uiso   1.00
C54    C     0.18070   0.98500   0.72220   0.01267  Uiso   1.00
C55    C     0.09430   0.92460   0.67570   0.01267  Uiso   1.00
C56    C     0.05980   0.97220   0.62400   0.01267  Uiso   1.00
C57    C     0.07230   0.48920   0.93730   0.01267  Uiso   1.00
C58    C     0.05340   0.45520   0.86820   0.01267  Uiso   1.00
C59    C     0.16100   0.44900   0.83310   0.01267  Uiso   1.00
C60    C     0.15090   0.42240   0.76820   0.01267  Uiso   1.00
C61    C     0.02370   0.39620   0.74030   0.01267  Uiso   1.00
C62    C     0.91440   0.40180   0.77340   0.01267  Uiso   1.00
C63    C     0.92550   0.43060   0.83740   0.01267  Uiso   1.00
C64    C     0.80110   0.43320   0.87230   0.01267  Uiso   1.00
C65    C     0.82360   0.36200   0.06680   0.01267  Uiso   1.00
C66    C     0.89910   0.36120   0.16000   0.01267  Uiso   1.00
C67    C     0.76850   0.28900   0.15990   0.01267  Uiso   1.00
C68    C     0.58070   0.22460   0.07300   0.01267  Uiso   1.00
C69    C     0.47950   0.17040   0.12390   0.01267  Uiso   1.00
C70    C     0.47210   0.07080   0.14870   0.01267  Uiso   1.00
C71    C     0.38140   0.02260   0.19920   0.01267  Uiso   1.00
C72    C     0.29200   0.06680   0.22420   0.01267  Uiso   1.00
C73    C     0.30300   0.16460   0.19630   0.01267  Uiso   1.00
C74    C     0.39460   0.21800   0.14700   0.01267  Uiso   1.00
C75    C     0.71280   0.71100   0.43840   0.01267  Uiso   1.00
C76    C     0.59210   0.79720   0.40560   0.01267  Uiso   1.00
C77    C     0.72450   0.87340   0.40770   0.01267  Uiso   1.00
C78    C     0.94230   0.86040   0.44080   0.01267  Uiso   1.00
C79    C     0.03140   0.91500   0.38100   0.01267  Uiso   1.00
C80    C     0.05680   0.85240   0.33580   0.01267  Uiso   1.00
C81    C     0.13550   0.90400   0.28300   0.01267  Uiso   1.00
C82    C     0.19570   0.01500   0.27780   0.01267  Uiso   1.00
C83    C     0.16970   0.07540   0.32430   0.01267  Uiso   1.00
C84    C     0.08760   0.02780   0.37600   0.01267  Uiso   1.00
C85    C     0.92770   0.51080   0.43730   0.01267  Uiso   1.00
C86    C     0.94660   0.54480   0.36820   0.01267  Uiso   1.00
C87    C     0.83900   0.55100   0.33310   0.01267  Uiso   1.00
C88    C     0.84910   0.57760   0.26820   0.01267  Uiso   1.00
C89    C     0.97630   0.60380   0.24030   0.01267  Uiso   1.00
C90    C     0.08560   0.59820   0.27340   0.01267  Uiso   1.00
C91    C     0.07450   0.56940   0.33740   0.01267  Uiso   1.00
C92    C     0.19890   0.56680   0.37230   0.01267  Uiso   1.00
C93    C     0.17640   0.63800   0.56680   0.01267  Uiso   1.00
C94    C     0.10090   0.63880   0.66000   0.01267  Uiso   1.00
C95    C     0.23150   0.71100   0.65990   0.01267  Uiso   1.00
C96    C     0.41930   0.77540   0.57300   0.01267  Uiso   1.00
C97    C     0.52050   0.82960   0.62390   0.01267  Uiso   1.00
C98    C     0.52790   0.92920   0.64870   0.01267  Uiso   1.00
C99    C     0.61860   0.97740   0.69920   0.01267  Uiso   1.00
C100   C     0.70800   0.93320   0.72420   0.01267  Uiso   1.00
C101   C     0.69700   0.83540   0.69630   0.01267  Uiso   1.00
C102   C     0.60540   0.78200   0.64700   0.01267  Uiso   1.00
C103   C     0.28720   0.28900   0.93840   0.01267  Uiso   1.00
C104   C     0.40790   0.20280   0.90560   0.01267  Uiso   1.00
C105   C     0.27550   0.12660   0.90770   0.01267  Uiso   1.00
C106   C     0.05770   0.13960   0.94080   0.01267  Uiso   1.00
C107   C     0.96860   0.08500   0.88100   0.01267  Uiso   1.00
C108   C     0.94320   0.14760   0.83580   0.01267  Uiso   1.00
C109   C     0.86450   0.09600   0.78300   0.01267  Uiso   1.00
C110   C     0.80430   0.98500   0.77780   0.01267  Uiso   1.00
C111   C     0.83030   0.92460   0.82430   0.01267  Uiso   1.00
C112   C     0.91240   0.97220   0.87600   0.01267  Uiso   1.00
N1     N     0.47060   0.40780   0.39830   0.01267  Uiso   1.00
N2     N     0.57260   0.29020   0.40060   0.01267  Uiso   1.00
N3     N     0.11140   0.69500   0.07630   0.01267  Uiso   1.00
N4     N     0.01650   0.81360   0.07060   0.01267  Uiso   1.00
N5     N     0.52940   0.59220   0.89830   0.01267  Uiso   1.00
N6     N     0.42740   0.70980   0.90060   0.01267  Uiso   1.00
N7     N     0.88860   0.30500   0.57630   0.01267  Uiso   1.00
N8     N     0.98350   0.18640   0.57060   0.01267  Uiso   1.00
N9     N     0.93720   0.40780   0.10170   0.01267  Uiso   1.00
N10    N     0.71760   0.29020   0.09940   0.01267  Uiso   1.00
N11    N     0.58360   0.69500   0.42370   0.01267  Uiso   1.00
N12    N     0.79710   0.81360   0.42940   0.01267  Uiso   1.00
N13    N     0.06280   0.59220   0.60170   0.01267  Uiso   1.00
N14    N     0.28240   0.70980   0.59940   0.01267  Uiso   1.00
N15    N     0.41640   0.30500   0.92370   0.01267  Uiso   1.00
N16    N     0.20290   0.18640   0.92940   0.01267  Uiso   1.00
O1     O     0.30800   0.45920   0.52960   0.01267  Uiso   1.00
O2     O     0.53130   0.54480   0.54118   0.01267  Uiso   1.00
O3     O     0.61950   0.36900   0.58250   0.01267  Uiso   1.00
O4     O     0.74600   0.50060   0.64600   0.01267  Uiso   1.00
O5     O     0.69200   0.54080   0.02960   0.01267  Uiso   1.00
O6     O     0.46870   0.45520   0.04118   0.01267  Uiso   1.00
O7     O     0.38050   0.63100   0.08250   0.01267  Uiso   1.00
O8     O     0.25400   0.49940   0.14600   0.01267  Uiso   1.00
O9     O     0.15120   0.45920   0.97040   0.01267  Uiso   1.00
O10    O     0.01350   0.54480   0.95882   0.01267  Uiso   1.00
O11    O     0.74950   0.36900   0.91750   0.01267  Uiso   1.00
O12    O     0.75460   0.50060   0.85400   0.01267  Uiso   1.00
O13    O     0.84880   0.54080   0.47040   0.01267  Uiso   1.00
O14    O     0.98650   0.45520   0.45882   0.01267  Uiso   1.00
O15    O     0.25050   0.63100   0.41750   0.01267  Uiso   1.00
O16    O     0.24540   0.49940   0.35400   0.01267  Uiso   1.00
