data_image0
_cell_length_a       8.2319
_cell_length_b       9.165
_cell_length_c       17.58
_cell_angle_alpha    90
_cell_angle_beta     90
_cell_angle_gamma    90

_symmetry_space_group_name_H-M    "P 1"
_symmetry_int_tables_number       1

loop_
  _symmetry_equiv_pos_as_xyz
  'x, y, z'

loop_
  _atom_site_label
  _atom_site_occupancy
  _atom_site_fract_x
  _atom_site_fract_y
  _atom_site_fract_z
  _atom_site_thermal_displace_type
  _atom_site_B_iso_or_equiv
  _atom_site_type_symbol
  Al1      1.0000 0.86130  0.86880  0.56605  Biso   1.000  Al
  Al2      1.0000 0.93970  0.41220  0.46845  Biso   1.000  Al
  Al3      1.0000 0.44260  0.58530  0.66700  Biso   1.000  Al
  P1       1.0000 0.13350  0.63110  0.57117  Biso   1.000  P
  P2       1.0000 0.07070  0.09050  0.47317  Biso   1.000  P
  P3       1.0000 0.56410  0.91540  0.67268  Biso   1.000  P
  O1       1.0000 0.96430  0.03310  0.53600  Biso   1.000  O
  O2       1.0000 0.01430  0.24200  0.45050  Biso   1.000  O
  O3       1.0000 0.24460  0.09790  0.50110  Biso   1.000  O
  O4       1.0000 0.45140  0.98770  0.61460  Biso   1.000  O
  O5       1.0000 0.50750  0.75870  0.68260  Biso   1.000  O
  O6       1.0000 0.73840  0.92110  0.64590  Biso   1.000  O
  O7       1.0000 0.54810  0.98920  0.74830  Biso   1.000  O
  O8       1.0000 0.06620  0.99490  0.40240  Biso   1.000  O
  O9       1.0000 0.23480  0.58700  0.64020  Biso   1.000  O
  O10      1.0000 0.05550  0.49430  0.53860  Biso   1.000  O
  O11      1.0000 0.23850  0.70500  0.51120  Biso   1.000  O
  O12      1.0000 0.00180  0.73320  0.59990  Biso   1.000  O
  Al4      1.0000 0.63870  0.13120  0.06605  Biso   1.000  Al
  Al5      1.0000 0.56030  0.58780  0.96845  Biso   1.000  Al
  Al6      1.0000 0.05740  0.41470  0.16700  Biso   1.000  Al
  P4       1.0000 0.36650  0.36890  0.07117  Biso   1.000  P
  P5       1.0000 0.42930  0.90950  0.97317  Biso   1.000  P
  P6       1.0000 0.93590  0.08460  0.17268  Biso   1.000  P
  O13      1.0000 0.53570  0.96690  0.03600  Biso   1.000  O
  O14      1.0000 0.48570  0.75800  0.95050  Biso   1.000  O
  O15      1.0000 0.25540  0.90210  0.00110  Biso   1.000  O
  O16      1.0000 0.04860  0.01230  0.11460  Biso   1.000  O
  O17      1.0000 0.99250  0.24130  0.18260  Biso   1.000  O
  O18      1.0000 0.76160  0.07890  0.14590  Biso   1.000  O
  O19      1.0000 0.95190  0.01080  0.24830  Biso   1.000  O
  O20      1.0000 0.43380  0.00510  0.90240  Biso   1.000  O
  O21      1.0000 0.26520  0.41300  0.14020  Biso   1.000  O
  O22      1.0000 0.44450  0.50570  0.03860  Biso   1.000  O
  O23      1.0000 0.26150  0.29500  0.01120  Biso   1.000  O
  O24      1.0000 0.49820  0.26680  0.09990  Biso   1.000  O
  Al7      1.0000 0.13870  0.36880  0.93395  Biso   1.000  Al
  Al8      1.0000 0.06030  0.91220  0.03155  Biso   1.000  Al
  Al9      1.0000 0.55740  0.08530  0.83300  Biso   1.000  Al
  P7       1.0000 0.86650  0.13110  0.92883  Biso   1.000  P
  P8       1.0000 0.92930  0.59050  0.02683  Biso   1.000  P
  P9       1.0000 0.43590  0.41540  0.82732  Biso   1.000  P
  O25      1.0000 0.03570  0.53310  0.96400  Biso   1.000  O
  O26      1.0000 0.98570  0.74200  0.04950  Biso   1.000  O
  O27      1.0000 0.75540  0.59790  0.99890  Biso   1.000  O
  O28      1.0000 0.54860  0.48770  0.88540  Biso   1.000  O
  O29      1.0000 0.49250  0.25870  0.81740  Biso   1.000  O
  O30      1.0000 0.26160  0.42110  0.85410  Biso   1.000  O
  O31      1.0000 0.45190  0.48920  0.75170  Biso   1.000  O
  O32      1.0000 0.93380  0.49490  0.09760  Biso   1.000  O
  O33      1.0000 0.76520  0.08700  0.85980  Biso   1.000  O
  O34      1.0000 0.94450  0.99430  0.96140  Biso   1.000  O
  O35      1.0000 0.76150  0.20500  0.98880  Biso   1.000  O
  O36      1.0000 0.99820  0.23320  0.90010  Biso   1.000  O
  Al10     1.0000 0.36130  0.63120  0.43395  Biso   1.000  Al
  Al11     1.0000 0.43970  0.08780  0.53155  Biso   1.000  Al
  Al12     1.0000 0.94260  0.91470  0.33300  Biso   1.000  Al
  P10      1.0000 0.63350  0.86890  0.42883  Biso   1.000  P
  P11      1.0000 0.57070  0.40950  0.52683  Biso   1.000  P
  P12      1.0000 0.06410  0.58460  0.32732  Biso   1.000  P
  O37      1.0000 0.46430  0.46690  0.46400  Biso   1.000  O
  O38      1.0000 0.51430  0.25800  0.54950  Biso   1.000  O
  O39      1.0000 0.74460  0.40210  0.49890  Biso   1.000  O
  O40      1.0000 0.95140  0.51230  0.38540  Biso   1.000  O
  O41      1.0000 0.00750  0.74130  0.31740  Biso   1.000  O
  O42      1.0000 0.23840  0.57890  0.35410  Biso   1.000  O
  O43      1.0000 0.04810  0.51080  0.25170  Biso   1.000  O
  O44      1.0000 0.56620  0.50510  0.59760  Biso   1.000  O
  O45      1.0000 0.73480  0.91300  0.35980  Biso   1.000  O
  O46      1.0000 0.55550  0.00570  0.46140  Biso   1.000  O
  O47      1.0000 0.73850  0.79500  0.48880  Biso   1.000  O
  O48      1.0000 0.50180  0.76680  0.40010  Biso   1.000  O
