data_image0
_cell_length_a       8.0154
_cell_length_b       30.175
_cell_length_c       15.322
_cell_angle_alpha    90
_cell_angle_beta     90
_cell_angle_gamma    90

_symmetry_space_group_name_H-M    "P 1"
_symmetry_int_tables_number       1

loop_
  _symmetry_equiv_pos_as_xyz
  'x, y, z'

loop_
  _atom_site_label
  _atom_site_occupancy
  _atom_site_fract_x
  _atom_site_fract_y
  _atom_site_fract_z
  _atom_site_thermal_displace_type
  _atom_site_B_iso_or_equiv
  _atom_site_type_symbol
  Eu1      1.0000 0.43541  0.90717  0.70442  Biso   1.000  Eu
  O1       1.0000 0.25420  0.95990  0.65000  Biso   1.000  O
  O2       1.0000 0.00120  0.96990  0.70880  Biso   1.000  O
  O3       1.0000 0.39190  0.04200  0.38500  Biso   1.000  O
  O4       1.0000 0.23600  0.09690  0.33720  Biso   1.000  O
  O5       1.0000 0.15680  0.86920  0.68310  Biso   1.000  O
  O6       1.0000 0.98770  0.83050  0.76950  Biso   1.000  O
  N1       1.0000 0.92700  0.08240  0.56030  Biso   1.000  N
  C1       1.0000 0.11710  0.98000  0.65820  Biso   1.000  C
  C2       1.0000 0.09260  0.01950  0.60020  Biso   1.000  C
  C3       1.0000 0.95860  0.04840  0.61140  Biso   1.000  C
  H1       1.0000 0.88540  0.04320  0.65900  Biso   1.000  H
  C4       1.0000 0.02520  0.08740  0.49080  Biso   1.000  C
  H2       1.0000 0.00000  0.11060  0.45110  Biso   1.000  H
  C5       1.0000 0.16220  0.06060  0.47270  Biso   1.000  C
  C6       1.0000 0.19750  0.02680  0.52980  Biso   1.000  C
  H3       1.0000 0.29290  0.00860  0.52110  Biso   1.000  H
  C7       1.0000 0.26820  0.06620  0.39410  Biso   1.000  C
  C8       1.0000 0.09430  0.83200  0.71000  Biso   1.000  C
  C9       1.0000 0.14800  0.78960  0.66860  Biso   1.000  C
  C10      1.0000 0.24200  0.78770  0.59170  Biso   1.000  C
  H4       1.0000 0.27300  0.81490  0.56500  Biso   1.000  H
  Eu2      1.0000 0.06459  0.09283  0.20442  Biso   1.000  Eu
  O7       1.0000 0.24580  0.04010  0.15000  Biso   1.000  O
  O8       1.0000 0.49880  0.03010  0.20880  Biso   1.000  O
  O9       1.0000 0.10810  0.95800  0.88500  Biso   1.000  O
  O10      1.0000 0.26400  0.90310  0.83720  Biso   1.000  O
  O11      1.0000 0.34320  0.13080  0.18310  Biso   1.000  O
  O12      1.0000 0.51230  0.16950  0.26950  Biso   1.000  O
  N2       1.0000 0.57300  0.91760  0.06030  Biso   1.000  N
  C11      1.0000 0.38290  0.02000  0.15820  Biso   1.000  C
  C12      1.0000 0.40740  0.98050  0.10020  Biso   1.000  C
  C13      1.0000 0.54140  0.95160  0.11140  Biso   1.000  C
  H5       1.0000 0.61460  0.95680  0.15900  Biso   1.000  H
  C14      1.0000 0.47480  0.91260  0.99080  Biso   1.000  C
  H6       1.0000 0.50000  0.88940  0.95110  Biso   1.000  H
  C15      1.0000 0.33780  0.93940  0.97270  Biso   1.000  C
  C16      1.0000 0.30250  0.97320  0.02980  Biso   1.000  C
  H7       1.0000 0.20710  0.99140  0.02110  Biso   1.000  H
  C17      1.0000 0.23180  0.93380  0.89410  Biso   1.000  C
  C18      1.0000 0.40570  0.16800  0.21000  Biso   1.000  C
  C19      1.0000 0.35200  0.21040  0.16860  Biso   1.000  C
  C20      1.0000 0.25800  0.21230  0.09170  Biso   1.000  C
  H8       1.0000 0.22700  0.18510  0.06500  Biso   1.000  H
  Eu3      1.0000 0.56459  0.40717  0.29558  Biso   1.000  Eu
  O13      1.0000 0.74580  0.45990  0.35000  Biso   1.000  O
  O14      1.0000 0.99880  0.46990  0.29120  Biso   1.000  O
  O15      1.0000 0.60810  0.54200  0.61500  Biso   1.000  O
  O16      1.0000 0.76400  0.59690  0.66280  Biso   1.000  O
  O17      1.0000 0.84320  0.36920  0.31690  Biso   1.000  O
  O18      1.0000 0.01230  0.33050  0.23050  Biso   1.000  O
  N3       1.0000 0.07300  0.58240  0.43970  Biso   1.000  N
  C21      1.0000 0.88290  0.48000  0.34180  Biso   1.000  C
  C22      1.0000 0.90740  0.51950  0.39980  Biso   1.000  C
  C23      1.0000 0.04140  0.54840  0.38860  Biso   1.000  C
  H9       1.0000 0.11460  0.54320  0.34100  Biso   1.000  H
  C24      1.0000 0.97480  0.58740  0.50920  Biso   1.000  C
  H10      1.0000 0.00000  0.61060  0.54890  Biso   1.000  H
  C25      1.0000 0.83780  0.56060  0.52730  Biso   1.000  C
  C26      1.0000 0.80250  0.52680  0.47020  Biso   1.000  C
  H11      1.0000 0.70710  0.50860  0.47890  Biso   1.000  H
  C27      1.0000 0.73180  0.56620  0.60590  Biso   1.000  C
  C28      1.0000 0.90570  0.33200  0.29000  Biso   1.000  C
  C29      1.0000 0.85200  0.28960  0.33140  Biso   1.000  C
  C30      1.0000 0.75800  0.28770  0.40830  Biso   1.000  C
  H12      1.0000 0.72700  0.31490  0.43500  Biso   1.000  H
  Eu4      1.0000 0.93541  0.59283  0.79558  Biso   1.000  Eu
  O19      1.0000 0.75420  0.54010  0.85000  Biso   1.000  O
  O20      1.0000 0.50120  0.53010  0.79120  Biso   1.000  O
  O21      1.0000 0.89190  0.45800  0.11500  Biso   1.000  O
  O22      1.0000 0.73600  0.40310  0.16280  Biso   1.000  O
  O23      1.0000 0.65680  0.63080  0.81690  Biso   1.000  O
  O24      1.0000 0.48770  0.66950  0.73050  Biso   1.000  O
  N4       1.0000 0.42700  0.41760  0.93970  Biso   1.000  N
  C31      1.0000 0.61710  0.52000  0.84180  Biso   1.000  C
  C32      1.0000 0.59260  0.48050  0.89980  Biso   1.000  C
  C33      1.0000 0.45860  0.45160  0.88860  Biso   1.000  C
  H13      1.0000 0.38540  0.45680  0.84100  Biso   1.000  H
  C34      1.0000 0.52520  0.41260  0.00920  Biso   1.000  C
  H14      1.0000 0.50000  0.38940  0.04890  Biso   1.000  H
  C35      1.0000 0.66220  0.43940  0.02730  Biso   1.000  C
  C36      1.0000 0.69750  0.47320  0.97020  Biso   1.000  C
  H15      1.0000 0.79290  0.49140  0.97890  Biso   1.000  H
  C37      1.0000 0.76820  0.43380  0.10590  Biso   1.000  C
  C38      1.0000 0.59430  0.66800  0.79000  Biso   1.000  C
  C39      1.0000 0.64800  0.71040  0.83140  Biso   1.000  C
  C40      1.0000 0.74200  0.71230  0.90830  Biso   1.000  C
  H16      1.0000 0.77300  0.68510  0.93500  Biso   1.000  H
  Eu5      1.0000 0.56459  0.09283  0.29558  Biso   1.000  Eu
  O25      1.0000 0.74580  0.04010  0.35000  Biso   1.000  O
  O26      1.0000 0.99880  0.03010  0.29120  Biso   1.000  O
  O27      1.0000 0.60810  0.95800  0.61500  Biso   1.000  O
  O28      1.0000 0.76400  0.90310  0.66280  Biso   1.000  O
  O29      1.0000 0.84320  0.13080  0.31690  Biso   1.000  O
  O30      1.0000 0.01230  0.16950  0.23050  Biso   1.000  O
  N5       1.0000 0.07300  0.91760  0.43970  Biso   1.000  N
  C41      1.0000 0.88290  0.02000  0.34180  Biso   1.000  C
  C42      1.0000 0.90740  0.98050  0.39980  Biso   1.000  C
  C43      1.0000 0.04140  0.95160  0.38860  Biso   1.000  C
  H17      1.0000 0.11460  0.95680  0.34100  Biso   1.000  H
  C44      1.0000 0.97480  0.91260  0.50920  Biso   1.000  C
  H18      1.0000 0.00000  0.88940  0.54890  Biso   1.000  H
  C45      1.0000 0.83780  0.93940  0.52730  Biso   1.000  C
  C46      1.0000 0.80250  0.97320  0.47020  Biso   1.000  C
  H19      1.0000 0.70710  0.99140  0.47890  Biso   1.000  H
  C47      1.0000 0.73180  0.93380  0.60590  Biso   1.000  C
  C48      1.0000 0.90570  0.16800  0.29000  Biso   1.000  C
  C49      1.0000 0.85200  0.21040  0.33140  Biso   1.000  C
  C50      1.0000 0.75800  0.21230  0.40830  Biso   1.000  C
  H20      1.0000 0.72700  0.18510  0.43500  Biso   1.000  H
  Eu6      1.0000 0.93541  0.90717  0.79558  Biso   1.000  Eu
  O31      1.0000 0.75420  0.95990  0.85000  Biso   1.000  O
  O32      1.0000 0.50120  0.96990  0.79120  Biso   1.000  O
  O33      1.0000 0.89190  0.04200  0.11500  Biso   1.000  O
  O34      1.0000 0.73600  0.09690  0.16280  Biso   1.000  O
  O35      1.0000 0.65680  0.86920  0.81690  Biso   1.000  O
  O36      1.0000 0.48770  0.83050  0.73050  Biso   1.000  O
  N6       1.0000 0.42700  0.08240  0.93970  Biso   1.000  N
  C51      1.0000 0.61710  0.98000  0.84180  Biso   1.000  C
  C52      1.0000 0.59260  0.01950  0.89980  Biso   1.000  C
  C53      1.0000 0.45860  0.04840  0.88860  Biso   1.000  C
  H21      1.0000 0.38540  0.04320  0.84100  Biso   1.000  H
  C54      1.0000 0.52520  0.08740  0.00920  Biso   1.000  C
  H22      1.0000 0.50000  0.11060  0.04890  Biso   1.000  H
  C55      1.0000 0.66220  0.06060  0.02730  Biso   1.000  C
  C56      1.0000 0.69750  0.02680  0.97020  Biso   1.000  C
  H23      1.0000 0.79290  0.00860  0.97890  Biso   1.000  H
  C57      1.0000 0.76820  0.06620  0.10590  Biso   1.000  C
  C58      1.0000 0.59430  0.83200  0.79000  Biso   1.000  C
  C59      1.0000 0.64800  0.78960  0.83140  Biso   1.000  C
  C60      1.0000 0.74200  0.78770  0.90830  Biso   1.000  C
  H24      1.0000 0.77300  0.81490  0.93500  Biso   1.000  H
  Eu7      1.0000 0.43541  0.59283  0.70442  Biso   1.000  Eu
  O37      1.0000 0.25420  0.54010  0.65000  Biso   1.000  O
  O38      1.0000 0.00120  0.53010  0.70880  Biso   1.000  O
  O39      1.0000 0.39190  0.45800  0.38500  Biso   1.000  O
  O40      1.0000 0.23600  0.40310  0.33720  Biso   1.000  O
  O41      1.0000 0.15680  0.63080  0.68310  Biso   1.000  O
  O42      1.0000 0.98770  0.66950  0.76950  Biso   1.000  O
  N7       1.0000 0.92700  0.41760  0.56030  Biso   1.000  N
  C61      1.0000 0.11710  0.52000  0.65820  Biso   1.000  C
  C62      1.0000 0.09260  0.48050  0.60020  Biso   1.000  C
  C63      1.0000 0.95860  0.45160  0.61140  Biso   1.000  C
  H25      1.0000 0.88540  0.45680  0.65900  Biso   1.000  H
  C64      1.0000 0.02520  0.41260  0.49080  Biso   1.000  C
  H26      1.0000 0.00000  0.38940  0.45110  Biso   1.000  H
  C65      1.0000 0.16220  0.43940  0.47270  Biso   1.000  C
  C66      1.0000 0.19750  0.47320  0.52980  Biso   1.000  C
  H27      1.0000 0.29290  0.49140  0.52110  Biso   1.000  H
  C67      1.0000 0.26820  0.43380  0.39410  Biso   1.000  C
  C68      1.0000 0.09430  0.66800  0.71000  Biso   1.000  C
  C69      1.0000 0.14800  0.71040  0.66860  Biso   1.000  C
  C70      1.0000 0.24200  0.71230  0.59170  Biso   1.000  C
  H28      1.0000 0.27300  0.68510  0.56500  Biso   1.000  H
  Eu8      1.0000 0.06459  0.40717  0.20442  Biso   1.000  Eu
  O43      1.0000 0.24580  0.45990  0.15000  Biso   1.000  O
  O44      1.0000 0.49880  0.46990  0.20880  Biso   1.000  O
  O45      1.0000 0.10810  0.54200  0.88500  Biso   1.000  O
  O46      1.0000 0.26400  0.59690  0.83720  Biso   1.000  O
  O47      1.0000 0.34320  0.36920  0.18310  Biso   1.000  O
  O48      1.0000 0.51230  0.33050  0.26950  Biso   1.000  O
  N8       1.0000 0.57300  0.58240  0.06030  Biso   1.000  N
  C71      1.0000 0.38290  0.48000  0.15820  Biso   1.000  C
  C72      1.0000 0.40740  0.51950  0.10020  Biso   1.000  C
  C73      1.0000 0.54140  0.54840  0.11140  Biso   1.000  C
  H29      1.0000 0.61460  0.54320  0.15900  Biso   1.000  H
  C74      1.0000 0.47480  0.58740  0.99080  Biso   1.000  C
  H30      1.0000 0.50000  0.61060  0.95110  Biso   1.000  H
  C75      1.0000 0.33780  0.56060  0.97270  Biso   1.000  C
  C76      1.0000 0.30250  0.52680  0.02980  Biso   1.000  C
  H31      1.0000 0.20710  0.50860  0.02110  Biso   1.000  H
  C77      1.0000 0.23180  0.56620  0.89410  Biso   1.000  C
  C78      1.0000 0.40570  0.33200  0.21000  Biso   1.000  C
  C79      1.0000 0.35200  0.28960  0.16860  Biso   1.000  C
  C80      1.0000 0.25800  0.28770  0.09170  Biso   1.000  C
  H32      1.0000 0.22700  0.31490  0.06500  Biso   1.000  H
  N9       1.0000 0.29150  0.75000  0.55310  Biso   1.000  N
  C81      1.0000 0.09970  0.75000  0.70460  Biso   1.000  C
  H33      1.0000 0.03180  0.75000  0.75540  Biso   1.000  H
  N10      1.0000 0.20850  0.25000  0.05310  Biso   1.000  N
  C82      1.0000 0.40030  0.25000  0.20460  Biso   1.000  C
  H34      1.0000 0.46820  0.25000  0.25540  Biso   1.000  H
  N11      1.0000 0.70850  0.25000  0.44690  Biso   1.000  N
  C83      1.0000 0.90030  0.25000  0.29540  Biso   1.000  C
  H35      1.0000 0.96820  0.25000  0.24460  Biso   1.000  H
  N12      1.0000 0.79150  0.75000  0.94690  Biso   1.000  N
  C84      1.0000 0.59970  0.75000  0.79540  Biso   1.000  C
  H36      1.0000 0.53180  0.75000  0.74460  Biso   1.000  H
