data_image0
_cell_length_a       4.9392
_cell_length_b       12.1867
_cell_length_c       10.783
_cell_angle_alpha    90
_cell_angle_beta     94.7665
_cell_angle_gamma    90

_symmetry_space_group_name_H-M    "P 1"
_symmetry_int_tables_number       1

loop_
  _symmetry_equiv_pos_as_xyz
  'x, y, z'

loop_
  _atom_site_label
  _atom_site_occupancy
  _atom_site_fract_x
  _atom_site_fract_y
  _atom_site_fract_z
  _atom_site_thermal_displace_type
  _atom_site_B_iso_or_equiv
  _atom_site_type_symbol
  P1       1.0000 0.53590  0.51400  0.18130  Biso   1.000  P
  F1       1.0000 0.06630  0.35330  0.98370  Biso   1.000  F
  O1       1.0000 0.70190  0.45880  0.08370  Biso   1.000  O
  O2       1.0000 0.60730  0.63680  0.18890  Biso   1.000  O
  O3       1.0000 0.22600  0.50710  0.14380  Biso   1.000  O
  C1       1.0000 0.47040  0.52210  0.43220  Biso   1.000  C
  C2       1.0000 0.61680  0.46340  0.33340  Biso   1.000  C
  P2       1.0000 0.46410  0.01400  0.81870  Biso   1.000  P
  F2       1.0000 0.93370  0.85330  0.01630  Biso   1.000  F
  O4       1.0000 0.29810  0.95880  0.91630  Biso   1.000  O
  O5       1.0000 0.39270  0.13680  0.81110  Biso   1.000  O
  O6       1.0000 0.77400  0.00710  0.85620  Biso   1.000  O
  C3       1.0000 0.52960  0.02210  0.56780  Biso   1.000  C
  C4       1.0000 0.38320  0.96340  0.66660  Biso   1.000  C
  P3       1.0000 0.46410  0.48600  0.81870  Biso   1.000  P
  F3       1.0000 0.93370  0.64670  0.01630  Biso   1.000  F
  O7       1.0000 0.29810  0.54120  0.91630  Biso   1.000  O
  O8       1.0000 0.39270  0.36320  0.81110  Biso   1.000  O
  O9       1.0000 0.77400  0.49290  0.85620  Biso   1.000  O
  C5       1.0000 0.52960  0.47790  0.56780  Biso   1.000  C
  C6       1.0000 0.38320  0.53660  0.66660  Biso   1.000  C
  P4       1.0000 0.53590  0.98600  0.18130  Biso   1.000  P
  F4       1.0000 0.06630  0.14670  0.98370  Biso   1.000  F
  O10      1.0000 0.70190  0.04120  0.08370  Biso   1.000  O
  O11      1.0000 0.60730  0.86320  0.18890  Biso   1.000  O
  O12      1.0000 0.22600  0.99290  0.14380  Biso   1.000  O
  C7       1.0000 0.47040  0.97790  0.43220  Biso   1.000  C
  C8       1.0000 0.61680  0.03660  0.33340  Biso   1.000  C
  Al1      1.0000 0.00000  0.50000  0.00000  Biso   1.000  Al
  Al2      1.0000 0.00000  0.00000  0.00000  Biso   1.000  Al
  Al3      1.0000 0.24350  0.25000  0.89860  Biso   1.000  Al
  Al4      1.0000 0.75650  0.75000  0.10140  Biso   1.000  Al
