data_MOTMAK_clean
_audit_creation_date              2014-07-02
_audit_creation_method            'Materials Studio'
_symmetry_space_group_name_H-M    'P1'
_symmetry_Int_Tables_number       1
_symmetry_cell_setting            triclinic
loop_
_symmetry_equiv_pos_as_xyz
  x,y,z
_cell_length_a                    9.6196
_cell_length_b                    9.6196
_cell_length_c                    12.8170
_cell_angle_alpha                 90.0000
_cell_angle_beta                  90.0000
_cell_angle_gamma                 92.0470
loop_
_atom_site_label
_atom_site_type_symbol
_atom_site_fract_x
_atom_site_fract_y
_atom_site_fract_z
_atom_site_U_iso_or_equiv
_atom_site_adp_type
_atom_site_occupancy
Li1    Li    0.11770   0.03950   0.90340   0.01267  Uiso   1.00
Li2    Li    0.88230   0.96050   0.40340   0.01267  Uiso   1.00
Li3    Li    0.96050   0.88230   0.59660   0.01267  Uiso   1.00
Li4    Li    0.03950   0.11770   0.09660   0.01267  Uiso   1.00
Li5    Li    0.92900   0.07100   0.75000   0.01267  Uiso   1.00
Li6    Li    0.07100   0.92900   0.25000   0.01267  Uiso   1.00
Li7    Li    0.73060   0.26940   0.75000   0.01267  Uiso   1.00
Li8    Li    0.26940   0.73060   0.25000   0.01267  Uiso   1.00
H1     H     0.37140   0.00320   0.36090   0.01267  Uiso   1.00
H2     H     0.19520   0.01980   0.48200   0.01267  Uiso   1.00
H3     H     0.48000   0.06740   0.70960   0.01267  Uiso   1.00
H4     H     0.59850   0.00990   0.41370   0.01267  Uiso   1.00
H5     H     0.62860   0.99680   0.86090   0.01267  Uiso   1.00
H6     H     0.80480   0.98020   0.98200   0.01267  Uiso   1.00
H7     H     0.52000   0.93260   0.20960   0.01267  Uiso   1.00
H8     H     0.40150   0.99010   0.91370   0.01267  Uiso   1.00
H9     H     0.99680   0.62860   0.13910   0.01267  Uiso   1.00
H10    H     0.98020   0.80480   0.01800   0.01267  Uiso   1.00
H11    H     0.93260   0.52000   0.79040   0.01267  Uiso   1.00
H12    H     0.99010   0.40150   0.08630   0.01267  Uiso   1.00
H13    H     0.00320   0.37140   0.63910   0.01267  Uiso   1.00
H14    H     0.01980   0.19520   0.51800   0.01267  Uiso   1.00
H15    H     0.06740   0.48000   0.29040   0.01267  Uiso   1.00
H16    H     0.00990   0.59850   0.58630   0.01267  Uiso   1.00
C1     C     0.39280   0.01400   0.43121   0.01267  Uiso   1.00
C2     C     0.28760   0.02456   0.50350   0.01267  Uiso   1.00
C3     C     0.32000   0.04246   0.60950   0.01267  Uiso   1.00
C4     C     0.45776   0.05204   0.63983   0.01267  Uiso   1.00
C5     C     0.56358   0.03888   0.56688   0.01267  Uiso   1.00
C6     C     0.52839   0.01939   0.46283   0.01267  Uiso   1.00
C7     C     0.20313   0.05053   0.68771   0.01267  Uiso   1.00
C8     C     0.71338   0.03830   0.59995   0.01267  Uiso   1.00
C9     C     0.60720   0.98600   0.93121   0.01267  Uiso   1.00
C10    C     0.71240   0.97544   0.00350   0.01267  Uiso   1.00
C11    C     0.68000   0.95754   0.10950   0.01267  Uiso   1.00
C12    C     0.54224   0.94796   0.13983   0.01267  Uiso   1.00
C13    C     0.43642   0.96112   0.06688   0.01267  Uiso   1.00
C14    C     0.47161   0.98061   0.96283   0.01267  Uiso   1.00
C15    C     0.79687   0.94947   0.18771   0.01267  Uiso   1.00
C16    C     0.28662   0.96170   0.09995   0.01267  Uiso   1.00
C17    C     0.98600   0.60720   0.06879   0.01267  Uiso   1.00
C18    C     0.97544   0.71240   0.99650   0.01267  Uiso   1.00
C19    C     0.95754   0.68000   0.89050   0.01267  Uiso   1.00
C20    C     0.94796   0.54224   0.86017   0.01267  Uiso   1.00
C21    C     0.96112   0.43642   0.93312   0.01267  Uiso   1.00
C22    C     0.98061   0.47161   0.03717   0.01267  Uiso   1.00
C23    C     0.94947   0.79687   0.81229   0.01267  Uiso   1.00
C24    C     0.96170   0.28662   0.90005   0.01267  Uiso   1.00
C25    C     0.01400   0.39280   0.56879   0.01267  Uiso   1.00
C26    C     0.02456   0.28760   0.49650   0.01267  Uiso   1.00
C27    C     0.04246   0.32000   0.39050   0.01267  Uiso   1.00
C28    C     0.05204   0.45776   0.36017   0.01267  Uiso   1.00
C29    C     0.03888   0.56358   0.43312   0.01267  Uiso   1.00
C30    C     0.01939   0.52839   0.53717   0.01267  Uiso   1.00
C31    C     0.05053   0.20313   0.31229   0.01267  Uiso   1.00
C32    C     0.03830   0.71338   0.40005   0.01267  Uiso   1.00
O1     O     0.23312   0.07566   0.78084   0.01267  Uiso   1.00
O2     O     0.08218   0.03312   0.65319   0.01267  Uiso   1.00
O3     O     0.74469   0.08381   0.68899   0.01267  Uiso   1.00
O4     O     0.80009   0.98569   0.53895   0.01267  Uiso   1.00
O5     O     0.76688   0.92434   0.28084   0.01267  Uiso   1.00
O6     O     0.91782   0.96688   0.15319   0.01267  Uiso   1.00
O7     O     0.25531   0.91619   0.18899   0.01267  Uiso   1.00
O8     O     0.19991   0.01431   0.03895   0.01267  Uiso   1.00
O9     O     0.92434   0.76688   0.71916   0.01267  Uiso   1.00
O10    O     0.96688   0.91782   0.84681   0.01267  Uiso   1.00
O11    O     0.91619   0.25531   0.81101   0.01267  Uiso   1.00
O12    O     0.01431   0.19991   0.96105   0.01267  Uiso   1.00
O13    O     0.07566   0.23312   0.21916   0.01267  Uiso   1.00
O14    O     0.03312   0.08218   0.34681   0.01267  Uiso   1.00
O15    O     0.08381   0.74469   0.31101   0.01267  Uiso   1.00
O16    O     0.98569   0.80009   0.46105   0.01267  Uiso   1.00
