data_image0
_cell_length_a       15.4724
_cell_length_b       14.1459
_cell_length_c       24.04
_cell_angle_alpha    90
_cell_angle_beta     90.188
_cell_angle_gamma    90

_symmetry_space_group_name_H-M    "P 1"
_symmetry_int_tables_number       1

loop_
  _symmetry_equiv_pos_as_xyz
  'x, y, z'

loop_
  _atom_site_label
  _atom_site_occupancy
  _atom_site_fract_x
  _atom_site_fract_y
  _atom_site_fract_z
  _atom_site_thermal_displace_type
  _atom_site_B_iso_or_equiv
  _atom_site_type_symbol
  C1       1.0000 0.37160  0.00840  0.42500  Biso   1.000  C
  C2       1.0000 0.33570  0.05330  0.37300  Biso   1.000  C
  C3       1.0000 0.36850  0.13940  0.35420  Biso   1.000  C
  H1       1.0000 0.41250  0.17020  0.37510  Biso   1.000  H
  C4       1.0000 0.33980  0.17870  0.30820  Biso   1.000  C
  H2       1.0000 0.36240  0.23800  0.29670  Biso   1.000  H
  C5       1.0000 0.27540  0.13380  0.27540  Biso   1.000  C
  C6       1.0000 0.24250  0.04790  0.29520  Biso   1.000  C
  C7       1.0000 0.27240  0.00430  0.34390  Biso   1.000  C
  H3       1.0000 0.25070  0.94510  0.35620  Biso   1.000  H
  C8       1.0000 0.07400  0.17510  0.07780  Biso   1.000  C
  C9       1.0000 0.13080  0.16530  0.12770  Biso   1.000  C
  C10      1.0000 0.18910  0.23370  0.14130  Biso   1.000  C
  H4       1.0000 0.19420  0.28660  0.11720  Biso   1.000  H
  C11      1.0000 0.24350  0.23060  0.18990  Biso   1.000  C
  H5       1.0000 0.28540  0.27770  0.19790  Biso   1.000  H
  C12      1.0000 0.23030  0.15720  0.22210  Biso   1.000  C
  C13      1.0000 0.17240  0.08460  0.20950  Biso   1.000  C
  C14      1.0000 0.12140  0.08720  0.16460  Biso   1.000  C
  H6       1.0000 0.08030  0.03870  0.15750  Biso   1.000  H
  C15      1.0000 0.17610  0.00260  0.25510  Biso   1.000  C
  C16      1.0000 0.09080  0.99820  0.28260  Biso   1.000  C
  H7       1.0000 0.09660  0.01890  0.32140  Biso   1.000  H
  H8       1.0000 0.06920  0.93310  0.28170  Biso   1.000  H
  H9       1.0000 0.05010  0.03970  0.26310  Biso   1.000  H
  C17      1.0000 0.46430  0.68190  0.59150  Biso   1.000  C
  C18      1.0000 0.41650  0.68680  0.64480  Biso   1.000  C
  C19      1.0000 0.39510  0.77110  0.66830  Biso   1.000  C
  H10      1.0000 0.41160  0.82790  0.65010  Biso   1.000  H
  C20      1.0000 0.34990  0.77660  0.71790  Biso   1.000  C
  H11      1.0000 0.34310  0.83570  0.73610  Biso   1.000  H
  C21      1.0000 0.31580  0.69760  0.74020  Biso   1.000  C
  C22      1.0000 0.34150  0.60720  0.71820  Biso   1.000  C
  C23      1.0000 0.38960  0.60440  0.67120  Biso   1.000  C
  H12      1.0000 0.40530  0.54490  0.65590  Biso   1.000  H
  C24      1.0000 0.10570  0.57250  0.91930  Biso   1.000  C
  C25      1.0000 0.16150  0.60810  0.87270  Biso   1.000  C
  C26      1.0000 0.16720  0.70680  0.86550  Biso   1.000  C
  H13      1.0000 0.13560  0.74830  0.88890  Biso   1.000  H
  C27      1.0000 0.21990  0.74280  0.82360  Biso   1.000  C
  H14      1.0000 0.22460  0.80900  0.81790  Biso   1.000  H
  C28      1.0000 0.26560  0.67950  0.78980  Biso   1.000  C
  C29      1.0000 0.25360  0.58370  0.79480  Biso   1.000  C
  C30      1.0000 0.20220  0.54830  0.83870  Biso   1.000  C
  H15      1.0000 0.19670  0.48200  0.84400  Biso   1.000  H
  C31      1.0000 0.29730  0.53040  0.75160  Biso   1.000  C
  C32      1.0000 0.36360  0.45430  0.77000  Biso   1.000  C
  H16      1.0000 0.33290  0.39980  0.78540  Biso   1.000  H
  H17      1.0000 0.40220  0.48090  0.79830  Biso   1.000  H
  H18      1.0000 0.39760  0.43420  0.73780  Biso   1.000  H
  Eu1      1.0000 0.44398  0.87368  0.50845  Biso   1.000  Eu
  O1       1.0000 0.33900  0.93200  0.44360  Biso   1.000  O
  O2       1.0000 0.43740  0.04200  0.45120  Biso   1.000  O
  O3       1.0000 0.08570  0.24340  0.04680  Biso   1.000  O
  O4       1.0000 0.02250  0.11220  0.06570  Biso   1.000  O
  O5       1.0000 0.20270  0.92170  0.23270  Biso   1.000  O
  H19      1.0000 0.26420  0.91110  0.22500  Biso   1.000  H
  O6       1.0000 0.48910  0.75760  0.57000  Biso   1.000  O
  O7       1.0000 0.47680  0.60250  0.56850  Biso   1.000  O
  O8       1.0000 0.05020  0.62780  0.94010  Biso   1.000  O
  O9       1.0000 0.11650  0.48480  0.93170  Biso   1.000  O
  O10      1.0000 0.23640  0.49050  0.71740  Biso   1.000  O
  H20      1.0000 0.26260  0.45790  0.68680  Biso   1.000  H
  C33      1.0000 0.12840  0.50840  0.07500  Biso   1.000  C
  C34      1.0000 0.16430  0.55330  0.12700  Biso   1.000  C
  C35      1.0000 0.13150  0.63940  0.14580  Biso   1.000  C
  H21      1.0000 0.08750  0.67020  0.12490  Biso   1.000  H
  C36      1.0000 0.16020  0.67870  0.19180  Biso   1.000  C
  H22      1.0000 0.13760  0.73800  0.20330  Biso   1.000  H
  C37      1.0000 0.22460  0.63380  0.22460  Biso   1.000  C
  C38      1.0000 0.25750  0.54790  0.20480  Biso   1.000  C
  C39      1.0000 0.22760  0.50430  0.15610  Biso   1.000  C
  H23      1.0000 0.24930  0.44510  0.14380  Biso   1.000  H
  C40      1.0000 0.42600  0.67510  0.42220  Biso   1.000  C
  C41      1.0000 0.36920  0.66530  0.37230  Biso   1.000  C
  C42      1.0000 0.31090  0.73370  0.35870  Biso   1.000  C
  H24      1.0000 0.30580  0.78660  0.38280  Biso   1.000  H
  C43      1.0000 0.25650  0.73060  0.31010  Biso   1.000  C
  H25      1.0000 0.21460  0.77770  0.30210  Biso   1.000  H
  C44      1.0000 0.26970  0.65720  0.27790  Biso   1.000  C
  C45      1.0000 0.32760  0.58460  0.29050  Biso   1.000  C
  C46      1.0000 0.37860  0.58720  0.33540  Biso   1.000  C
  H26      1.0000 0.41970  0.53870  0.34250  Biso   1.000  H
  C47      1.0000 0.32390  0.50260  0.24490  Biso   1.000  C
  C48      1.0000 0.40920  0.49820  0.21740  Biso   1.000  C
  H27      1.0000 0.40340  0.51890  0.17860  Biso   1.000  H
  H28      1.0000 0.43080  0.43310  0.21830  Biso   1.000  H
  H29      1.0000 0.44990  0.53970  0.23690  Biso   1.000  H
  C49      1.0000 0.03570  0.18190  0.90850  Biso   1.000  C
  C50      1.0000 0.08350  0.18680  0.85520  Biso   1.000  C
  C51      1.0000 0.10490  0.27110  0.83170  Biso   1.000  C
  H30      1.0000 0.08840  0.32790  0.84990  Biso   1.000  H
  C52      1.0000 0.15010  0.27660  0.78210  Biso   1.000  C
  H31      1.0000 0.15690  0.33570  0.76390  Biso   1.000  H
  C53      1.0000 0.18420  0.19760  0.75980  Biso   1.000  C
  C54      1.0000 0.15850  0.10720  0.78180  Biso   1.000  C
  C55      1.0000 0.11040  0.10440  0.82880  Biso   1.000  C
  H32      1.0000 0.09470  0.04490  0.84410  Biso   1.000  H
  C56      1.0000 0.39430  0.07250  0.58070  Biso   1.000  C
  C57      1.0000 0.33850  0.10810  0.62730  Biso   1.000  C
  C58      1.0000 0.33280  0.20680  0.63450  Biso   1.000  C
  H33      1.0000 0.36440  0.24830  0.61110  Biso   1.000  H
  C59      1.0000 0.28010  0.24280  0.67640  Biso   1.000  C
  H34      1.0000 0.27540  0.30900  0.68210  Biso   1.000  H
  C60      1.0000 0.23440  0.17950  0.71020  Biso   1.000  C
  C61      1.0000 0.24640  0.08370  0.70520  Biso   1.000  C
  C62      1.0000 0.29780  0.04830  0.66130  Biso   1.000  C
  H35      1.0000 0.30330  0.98200  0.65600  Biso   1.000  H
  C63      1.0000 0.20270  0.03040  0.74840  Biso   1.000  C
  C64      1.0000 0.13640  0.95430  0.73000  Biso   1.000  C
  H36      1.0000 0.16710  0.89980  0.71460  Biso   1.000  H
  H37      1.0000 0.09780  0.98090  0.70170  Biso   1.000  H
  H38      1.0000 0.10240  0.93420  0.76220  Biso   1.000  H
  Eu2      1.0000 0.05602  0.37368  0.99155  Biso   1.000  Eu
  O11      1.0000 0.16100  0.43200  0.05640  Biso   1.000  O
  O12      1.0000 0.06260  0.54200  0.04880  Biso   1.000  O
  O13      1.0000 0.41430  0.74340  0.45320  Biso   1.000  O
  O14      1.0000 0.47750  0.61220  0.43430  Biso   1.000  O
  O15      1.0000 0.29730  0.42170  0.26730  Biso   1.000  O
  H39      1.0000 0.23580  0.41110  0.27500  Biso   1.000  H
  O16      1.0000 0.01090  0.25760  0.93000  Biso   1.000  O
  O17      1.0000 0.02320  0.10250  0.93150  Biso   1.000  O
  O18      1.0000 0.44980  0.12780  0.55990  Biso   1.000  O
  O19      1.0000 0.38350  0.98480  0.56830  Biso   1.000  O
  O20      1.0000 0.26360  0.99050  0.78260  Biso   1.000  O
  H40      1.0000 0.23740  0.95790  0.81320  Biso   1.000  H
  C65      1.0000 0.62840  0.99160  0.57500  Biso   1.000  C
  C66      1.0000 0.66430  0.94670  0.62700  Biso   1.000  C
  C67      1.0000 0.63150  0.86060  0.64580  Biso   1.000  C
  H41      1.0000 0.58750  0.82980  0.62490  Biso   1.000  H
  C68      1.0000 0.66020  0.82130  0.69180  Biso   1.000  C
  H42      1.0000 0.63760  0.76200  0.70330  Biso   1.000  H
  C69      1.0000 0.72460  0.86620  0.72460  Biso   1.000  C
  C70      1.0000 0.75750  0.95210  0.70480  Biso   1.000  C
  C71      1.0000 0.72760  0.99570  0.65610  Biso   1.000  C
  H43      1.0000 0.74930  0.05490  0.64380  Biso   1.000  H
  C72      1.0000 0.92600  0.82490  0.92220  Biso   1.000  C
  C73      1.0000 0.86920  0.83470  0.87230  Biso   1.000  C
  C74      1.0000 0.81090  0.76630  0.85870  Biso   1.000  C
  H44      1.0000 0.80580  0.71340  0.88280  Biso   1.000  H
  C75      1.0000 0.75650  0.76940  0.81010  Biso   1.000  C
  H45      1.0000 0.71460  0.72230  0.80210  Biso   1.000  H
  C76      1.0000 0.76970  0.84280  0.77790  Biso   1.000  C
  C77      1.0000 0.82760  0.91540  0.79050  Biso   1.000  C
  C78      1.0000 0.87860  0.91280  0.83540  Biso   1.000  C
  H46      1.0000 0.91970  0.96130  0.84250  Biso   1.000  H
  C79      1.0000 0.82390  0.99740  0.74490  Biso   1.000  C
  C80      1.0000 0.90920  0.00180  0.71740  Biso   1.000  C
  H47      1.0000 0.90340  0.98110  0.67860  Biso   1.000  H
  H48      1.0000 0.93080  0.06690  0.71830  Biso   1.000  H
  H49      1.0000 0.94990  0.96030  0.73690  Biso   1.000  H
  C81      1.0000 0.53570  0.31810  0.40850  Biso   1.000  C
  C82      1.0000 0.58350  0.31320  0.35520  Biso   1.000  C
  C83      1.0000 0.60490  0.22890  0.33170  Biso   1.000  C
  H50      1.0000 0.58840  0.17210  0.34990  Biso   1.000  H
  C84      1.0000 0.65010  0.22340  0.28210  Biso   1.000  C
  H51      1.0000 0.65690  0.16430  0.26390  Biso   1.000  H
  C85      1.0000 0.68420  0.30240  0.25980  Biso   1.000  C
  C86      1.0000 0.65850  0.39280  0.28180  Biso   1.000  C
  C87      1.0000 0.61040  0.39560  0.32880  Biso   1.000  C
  H52      1.0000 0.59470  0.45510  0.34410  Biso   1.000  H
  C88      1.0000 0.89430  0.42750  0.08070  Biso   1.000  C
  C89      1.0000 0.83850  0.39190  0.12730  Biso   1.000  C
  C90      1.0000 0.83280  0.29320  0.13450  Biso   1.000  C
  H53      1.0000 0.86440  0.25170  0.11110  Biso   1.000  H
  C91      1.0000 0.78010  0.25720  0.17640  Biso   1.000  C
  H54      1.0000 0.77540  0.19100  0.18210  Biso   1.000  H
  C92      1.0000 0.73440  0.32050  0.21020  Biso   1.000  C
  C93      1.0000 0.74640  0.41630  0.20520  Biso   1.000  C
  C94      1.0000 0.79780  0.45170  0.16130  Biso   1.000  C
  H55      1.0000 0.80330  0.51800  0.15600  Biso   1.000  H
  C95      1.0000 0.70270  0.46960  0.24840  Biso   1.000  C
  C96      1.0000 0.63640  0.54570  0.23000  Biso   1.000  C
  H56      1.0000 0.66710  0.60020  0.21460  Biso   1.000  H
  H57      1.0000 0.59780  0.51910  0.20170  Biso   1.000  H
  H58      1.0000 0.60240  0.56580  0.26220  Biso   1.000  H
  Eu3      1.0000 0.55602  0.12632  0.49155  Biso   1.000  Eu
  O21      1.0000 0.66100  0.06800  0.55640  Biso   1.000  O
  O22      1.0000 0.56260  0.95800  0.54880  Biso   1.000  O
  O23      1.0000 0.91430  0.75660  0.95320  Biso   1.000  O
  O24      1.0000 0.97750  0.88780  0.93430  Biso   1.000  O
  O25      1.0000 0.79730  0.07830  0.76730  Biso   1.000  O
  H59      1.0000 0.73580  0.08890  0.77500  Biso   1.000  H
  O26      1.0000 0.51090  0.24240  0.43000  Biso   1.000  O
  O27      1.0000 0.52320  0.39750  0.43150  Biso   1.000  O
  O28      1.0000 0.94980  0.37220  0.05990  Biso   1.000  O
  O29      1.0000 0.88350  0.51520  0.06830  Biso   1.000  O
  O30      1.0000 0.76360  0.50950  0.28260  Biso   1.000  O
  H60      1.0000 0.73740  0.54210  0.31320  Biso   1.000  H
  C97      1.0000 0.87160  0.49160  0.92500  Biso   1.000  C
  C98      1.0000 0.83570  0.44670  0.87300  Biso   1.000  C
  C99      1.0000 0.86850  0.36060  0.85420  Biso   1.000  C
  H61      1.0000 0.91250  0.32980  0.87510  Biso   1.000  H
  C100     1.0000 0.83980  0.32130  0.80820  Biso   1.000  C
  H62      1.0000 0.86240  0.26200  0.79670  Biso   1.000  H
  C101     1.0000 0.77540  0.36620  0.77540  Biso   1.000  C
  C102     1.0000 0.74250  0.45210  0.79520  Biso   1.000  C
  C103     1.0000 0.77240  0.49570  0.84390  Biso   1.000  C
  H63      1.0000 0.75070  0.55490  0.85620  Biso   1.000  H
  C104     1.0000 0.57400  0.32490  0.57780  Biso   1.000  C
  C105     1.0000 0.63080  0.33470  0.62770  Biso   1.000  C
  C106     1.0000 0.68910  0.26630  0.64130  Biso   1.000  C
  H64      1.0000 0.69420  0.21340  0.61720  Biso   1.000  H
  C107     1.0000 0.74350  0.26940  0.68990  Biso   1.000  C
  H65      1.0000 0.78540  0.22230  0.69790  Biso   1.000  H
  C108     1.0000 0.73030  0.34280  0.72210  Biso   1.000  C
  C109     1.0000 0.67240  0.41540  0.70950  Biso   1.000  C
  C110     1.0000 0.62140  0.41280  0.66460  Biso   1.000  C
  H66      1.0000 0.58030  0.46130  0.65750  Biso   1.000  H
  C111     1.0000 0.67610  0.49740  0.75510  Biso   1.000  C
  C112     1.0000 0.59080  0.50180  0.78260  Biso   1.000  C
  H67      1.0000 0.59660  0.48110  0.82140  Biso   1.000  H
  H68      1.0000 0.56920  0.56690  0.78170  Biso   1.000  H
  H69      1.0000 0.55010  0.46030  0.76310  Biso   1.000  H
  C113     1.0000 0.96430  0.81810  0.09150  Biso   1.000  C
  C114     1.0000 0.91650  0.81320  0.14480  Biso   1.000  C
  C115     1.0000 0.89510  0.72890  0.16830  Biso   1.000  C
  H70      1.0000 0.91160  0.67210  0.15010  Biso   1.000  H
  C116     1.0000 0.84990  0.72340  0.21790  Biso   1.000  C
  H71      1.0000 0.84310  0.66430  0.23610  Biso   1.000  H
  C117     1.0000 0.81580  0.80240  0.24020  Biso   1.000  C
  C118     1.0000 0.84150  0.89280  0.21820  Biso   1.000  C
  C119     1.0000 0.88960  0.89560  0.17120  Biso   1.000  C
  H72      1.0000 0.90530  0.95510  0.15590  Biso   1.000  H
  C120     1.0000 0.60570  0.92750  0.41930  Biso   1.000  C
  C121     1.0000 0.66150  0.89190  0.37270  Biso   1.000  C
  C122     1.0000 0.66720  0.79320  0.36550  Biso   1.000  C
  H73      1.0000 0.63560  0.75170  0.38890  Biso   1.000  H
  C123     1.0000 0.71990  0.75720  0.32360  Biso   1.000  C
  H74      1.0000 0.72460  0.69100  0.31790  Biso   1.000  H
  C124     1.0000 0.76560  0.82050  0.28980  Biso   1.000  C
  C125     1.0000 0.75360  0.91630  0.29480  Biso   1.000  C
  C126     1.0000 0.70220  0.95170  0.33870  Biso   1.000  C
  H75      1.0000 0.69670  0.01800  0.34400  Biso   1.000  H
  C127     1.0000 0.79730  0.96960  0.25160  Biso   1.000  C
  C128     1.0000 0.86360  0.04570  0.27000  Biso   1.000  C
  H76      1.0000 0.83290  0.10020  0.28540  Biso   1.000  H
  H77      1.0000 0.90220  0.01910  0.29830  Biso   1.000  H
  H78      1.0000 0.89760  0.06580  0.23780  Biso   1.000  H
  Eu4      1.0000 0.94398  0.62632  0.00845  Biso   1.000  Eu
  O31      1.0000 0.83900  0.56800  0.94360  Biso   1.000  O
  O32      1.0000 0.93740  0.45800  0.95120  Biso   1.000  O
  O33      1.0000 0.58570  0.25660  0.54680  Biso   1.000  O
  O34      1.0000 0.52250  0.38780  0.56570  Biso   1.000  O
  O35      1.0000 0.70270  0.57830  0.73270  Biso   1.000  O
  H79      1.0000 0.76420  0.58890  0.72500  Biso   1.000  H
  O36      1.0000 0.98910  0.74240  0.07000  Biso   1.000  O
  O37      1.0000 0.97680  0.89750  0.06850  Biso   1.000  O
  O38      1.0000 0.55020  0.87220  0.44010  Biso   1.000  O
  O39      1.0000 0.61650  0.01520  0.43170  Biso   1.000  O
  O40      1.0000 0.73640  0.00950  0.21740  Biso   1.000  O
  H80      1.0000 0.76260  0.04210  0.18680  Biso   1.000  H
  Eu5      1.0000 0.50000  0.50000  0.50000  Biso   1.000  Eu
  Eu6      1.0000 0.00000  0.00000  0.00000  Biso   1.000  Eu
