data_image0
_cell_length_a       17.0712
_cell_length_b       16.981
_cell_length_c       20.3832
_cell_angle_alpha    90
_cell_angle_beta     108.073
_cell_angle_gamma    90

_symmetry_space_group_name_H-M    "P 1"
_symmetry_int_tables_number       1

loop_
  _symmetry_equiv_pos_as_xyz
  'x, y, z'

loop_
  _atom_site_label
  _atom_site_occupancy
  _atom_site_fract_x
  _atom_site_fract_y
  _atom_site_fract_z
  _atom_site_thermal_displace_type
  _atom_site_B_iso_or_equiv
  _atom_site_type_symbol
  Eu1      1.0000 0.49446  0.06227  0.58259  Biso   1.000  Eu
  C1       1.0000 0.51280  0.30930  0.63880  Biso   1.000  C
  C2       1.0000 0.44210  0.35280  0.62610  Biso   1.000  C
  H1       1.0000 0.39110  0.33030  0.60350  Biso   1.000  H
  C3       1.0000 0.44750  0.43060  0.64730  Biso   1.000  C
  C4       1.0000 0.58860  0.42120  0.69510  Biso   1.000  C
  H2       1.0000 0.63860  0.44440  0.71900  Biso   1.000  H
  C5       1.0000 0.58870  0.34450  0.67220  Biso   1.000  C
  H3       1.0000 0.63780  0.31720  0.67880  Biso   1.000  H
  C6       1.0000 0.37340  0.48210  0.63440  Biso   1.000  C
  C7       1.0000 0.30110  0.46870  0.58180  Biso   1.000  C
  H4       1.0000 0.29690  0.42520  0.55320  Biso   1.000  H
  C8       1.0000 0.23600  0.51840  0.57130  Biso   1.000  C
  C9       1.0000 0.24510  0.58620  0.61230  Biso   1.000  C
  H5       1.0000 0.20240  0.62250  0.60500  Biso   1.000  H
  C10      1.0000 0.31840  0.59790  0.66340  Biso   1.000  C
  H6       1.0000 0.32480  0.64260  0.69080  Biso   1.000  H
  C11      1.0000 0.54810  0.65280  0.63660  Biso   1.000  C
  H7       1.0000 0.56120  0.60410  0.62200  Biso   1.000  H
  C12      1.0000 0.54960  0.71860  0.59710  Biso   1.000  C
  H8       1.0000 0.56220  0.71440  0.55600  Biso   1.000  H
  C13      1.0000 0.53190  0.79010  0.62030  Biso   1.000  C
  C14      1.0000 0.51170  0.79520  0.68130  Biso   1.000  C
  H9       1.0000 0.49890  0.84350  0.69700  Biso   1.000  H
  C15      1.0000 0.51130  0.72790  0.71750  Biso   1.000  C
  C16      1.0000 0.52770  0.86430  0.57800  Biso   1.000  C
  C17      1.0000 0.15490  0.49990  0.51760  Biso   1.000  C
  C18      1.0000 0.50920  0.22420  0.61960  Biso   1.000  C
  N1       1.0000 0.51960  0.46340  0.68440  Biso   1.000  N
  N2       1.0000 0.38110  0.54690  0.67500  Biso   1.000  N
  N3       1.0000 0.52840  0.65670  0.69580  Biso   1.000  N
  O1       1.0000 0.57100  0.18990  0.61210  Biso   1.000  O
  O2       1.0000 0.44210  0.18830  0.61080  Biso   1.000  O
  O3       1.0000 0.15510  0.45700  0.46730  Biso   1.000  O
  O4       1.0000 0.08980  0.52570  0.52520  Biso   1.000  O
  O5       1.0000 0.51160  0.92690  0.60490  Biso   1.000  O
  O6       1.0000 0.54050  0.85890  0.52080  Biso   1.000  O
  Eu2      1.0000 0.99446  0.56227  0.58259  Biso   1.000  Eu
  C19      1.0000 0.01280  0.80930  0.63880  Biso   1.000  C
  C20      1.0000 0.94210  0.85280  0.62610  Biso   1.000  C
  H10      1.0000 0.89110  0.83030  0.60350  Biso   1.000  H
  C21      1.0000 0.94750  0.93060  0.64730  Biso   1.000  C
  C22      1.0000 0.08860  0.92120  0.69510  Biso   1.000  C
  H11      1.0000 0.13860  0.94440  0.71900  Biso   1.000  H
  C23      1.0000 0.08870  0.84450  0.67220  Biso   1.000  C
  H12      1.0000 0.13780  0.81720  0.67880  Biso   1.000  H
  C24      1.0000 0.87340  0.98210  0.63440  Biso   1.000  C
  C25      1.0000 0.80110  0.96870  0.58180  Biso   1.000  C
  H13      1.0000 0.79690  0.92520  0.55320  Biso   1.000  H
  C26      1.0000 0.73600  0.01840  0.57130  Biso   1.000  C
  C27      1.0000 0.74510  0.08620  0.61230  Biso   1.000  C
  H14      1.0000 0.70240  0.12250  0.60500  Biso   1.000  H
  C28      1.0000 0.81840  0.09790  0.66340  Biso   1.000  C
  H15      1.0000 0.82480  0.14260  0.69080  Biso   1.000  H
  C29      1.0000 0.04810  0.15280  0.63660  Biso   1.000  C
  H16      1.0000 0.06120  0.10410  0.62200  Biso   1.000  H
  C30      1.0000 0.04960  0.21860  0.59710  Biso   1.000  C
  H17      1.0000 0.06220  0.21440  0.55600  Biso   1.000  H
  C31      1.0000 0.03190  0.29010  0.62030  Biso   1.000  C
  C32      1.0000 0.01170  0.29520  0.68130  Biso   1.000  C
  H18      1.0000 0.99890  0.34350  0.69700  Biso   1.000  H
  C33      1.0000 0.01130  0.22790  0.71750  Biso   1.000  C
  C34      1.0000 0.02770  0.36430  0.57800  Biso   1.000  C
  C35      1.0000 0.65490  0.99990  0.51760  Biso   1.000  C
  C36      1.0000 0.00920  0.72420  0.61960  Biso   1.000  C
  N4       1.0000 0.01960  0.96340  0.68440  Biso   1.000  N
  N5       1.0000 0.88110  0.04690  0.67500  Biso   1.000  N
  N6       1.0000 0.02840  0.15670  0.69580  Biso   1.000  N
  O7       1.0000 0.07100  0.68990  0.61210  Biso   1.000  O
  O8       1.0000 0.94210  0.68830  0.61080  Biso   1.000  O
  O9       1.0000 0.65510  0.95700  0.46730  Biso   1.000  O
  O10      1.0000 0.58980  0.02570  0.52520  Biso   1.000  O
  O11      1.0000 0.01160  0.42690  0.60490  Biso   1.000  O
  O12      1.0000 0.04050  0.35890  0.52080  Biso   1.000  O
  Eu3      1.0000 0.50554  0.06227  0.91741  Biso   1.000  Eu
  C37      1.0000 0.48720  0.30930  0.86120  Biso   1.000  C
  C38      1.0000 0.55790  0.35280  0.87390  Biso   1.000  C
  H19      1.0000 0.60890  0.33030  0.89650  Biso   1.000  H
  C39      1.0000 0.55250  0.43060  0.85270  Biso   1.000  C
  C40      1.0000 0.41140  0.42120  0.80490  Biso   1.000  C
  H20      1.0000 0.36140  0.44440  0.78100  Biso   1.000  H
  C41      1.0000 0.41130  0.34450  0.82780  Biso   1.000  C
  H21      1.0000 0.36220  0.31720  0.82120  Biso   1.000  H
  C42      1.0000 0.62660  0.48210  0.86560  Biso   1.000  C
  C43      1.0000 0.69890  0.46870  0.91820  Biso   1.000  C
  H22      1.0000 0.70310  0.42520  0.94680  Biso   1.000  H
  C44      1.0000 0.76400  0.51840  0.92870  Biso   1.000  C
  C45      1.0000 0.75490  0.58620  0.88770  Biso   1.000  C
  H23      1.0000 0.79760  0.62250  0.89500  Biso   1.000  H
  C46      1.0000 0.68160  0.59790  0.83660  Biso   1.000  C
  H24      1.0000 0.67520  0.64260  0.80920  Biso   1.000  H
  C47      1.0000 0.45190  0.65280  0.86340  Biso   1.000  C
  H25      1.0000 0.43880  0.60410  0.87800  Biso   1.000  H
  C48      1.0000 0.45040  0.71860  0.90290  Biso   1.000  C
  H26      1.0000 0.43780  0.71440  0.94400  Biso   1.000  H
  C49      1.0000 0.46810  0.79010  0.87970  Biso   1.000  C
  C50      1.0000 0.48830  0.79520  0.81870  Biso   1.000  C
  H27      1.0000 0.50110  0.84350  0.80300  Biso   1.000  H
  C51      1.0000 0.48870  0.72790  0.78250  Biso   1.000  C
  C52      1.0000 0.47230  0.86430  0.92200  Biso   1.000  C
  C53      1.0000 0.84510  0.49990  0.98240  Biso   1.000  C
  C54      1.0000 0.49080  0.22420  0.88040  Biso   1.000  C
  N7       1.0000 0.48040  0.46340  0.81560  Biso   1.000  N
  N8       1.0000 0.61890  0.54690  0.82500  Biso   1.000  N
  N9       1.0000 0.47160  0.65670  0.80420  Biso   1.000  N
  O13      1.0000 0.42900  0.18990  0.88790  Biso   1.000  O
  O14      1.0000 0.55790  0.18830  0.88920  Biso   1.000  O
  O15      1.0000 0.84490  0.45700  0.03270  Biso   1.000  O
  O16      1.0000 0.91020  0.52570  0.97480  Biso   1.000  O
  O17      1.0000 0.48840  0.92690  0.89510  Biso   1.000  O
  O18      1.0000 0.45950  0.85890  0.97920  Biso   1.000  O
  Eu4      1.0000 0.00554  0.56227  0.91741  Biso   1.000  Eu
  C55      1.0000 0.98720  0.80930  0.86120  Biso   1.000  C
  C56      1.0000 0.05790  0.85280  0.87390  Biso   1.000  C
  H28      1.0000 0.10890  0.83030  0.89650  Biso   1.000  H
  C57      1.0000 0.05250  0.93060  0.85270  Biso   1.000  C
  C58      1.0000 0.91140  0.92120  0.80490  Biso   1.000  C
  H29      1.0000 0.86140  0.94440  0.78100  Biso   1.000  H
  C59      1.0000 0.91130  0.84450  0.82780  Biso   1.000  C
  H30      1.0000 0.86220  0.81720  0.82120  Biso   1.000  H
  C60      1.0000 0.12660  0.98210  0.86560  Biso   1.000  C
  C61      1.0000 0.19890  0.96870  0.91820  Biso   1.000  C
  H31      1.0000 0.20310  0.92520  0.94680  Biso   1.000  H
  C62      1.0000 0.26400  0.01840  0.92870  Biso   1.000  C
  C63      1.0000 0.25490  0.08620  0.88770  Biso   1.000  C
  H32      1.0000 0.29760  0.12250  0.89500  Biso   1.000  H
  C64      1.0000 0.18160  0.09790  0.83660  Biso   1.000  C
  H33      1.0000 0.17520  0.14260  0.80920  Biso   1.000  H
  C65      1.0000 0.95190  0.15280  0.86340  Biso   1.000  C
  H34      1.0000 0.93880  0.10410  0.87800  Biso   1.000  H
  C66      1.0000 0.95040  0.21860  0.90290  Biso   1.000  C
  H35      1.0000 0.93780  0.21440  0.94400  Biso   1.000  H
  C67      1.0000 0.96810  0.29010  0.87970  Biso   1.000  C
  C68      1.0000 0.98830  0.29520  0.81870  Biso   1.000  C
  H36      1.0000 0.00110  0.34350  0.80300  Biso   1.000  H
  C69      1.0000 0.98870  0.22790  0.78250  Biso   1.000  C
  C70      1.0000 0.97230  0.36430  0.92200  Biso   1.000  C
  C71      1.0000 0.34510  0.99990  0.98240  Biso   1.000  C
  C72      1.0000 0.99080  0.72420  0.88040  Biso   1.000  C
  N10      1.0000 0.98040  0.96340  0.81560  Biso   1.000  N
  N11      1.0000 0.11890  0.04690  0.82500  Biso   1.000  N
  N12      1.0000 0.97160  0.15670  0.80420  Biso   1.000  N
  O19      1.0000 0.92900  0.68990  0.88790  Biso   1.000  O
  O20      1.0000 0.05790  0.68830  0.88920  Biso   1.000  O
  O21      1.0000 0.34490  0.95700  0.03270  Biso   1.000  O
  O22      1.0000 0.41020  0.02570  0.97480  Biso   1.000  O
  O23      1.0000 0.98840  0.42690  0.89510  Biso   1.000  O
  O24      1.0000 0.95950  0.35890  0.97920  Biso   1.000  O
  Eu5      1.0000 0.50554  0.93773  0.41741  Biso   1.000  Eu
  C73      1.0000 0.48720  0.69070  0.36120  Biso   1.000  C
  C74      1.0000 0.55790  0.64720  0.37390  Biso   1.000  C
  H37      1.0000 0.60890  0.66970  0.39650  Biso   1.000  H
  C75      1.0000 0.55250  0.56940  0.35270  Biso   1.000  C
  C76      1.0000 0.41140  0.57880  0.30490  Biso   1.000  C
  H38      1.0000 0.36140  0.55560  0.28100  Biso   1.000  H
  C77      1.0000 0.41130  0.65550  0.32780  Biso   1.000  C
  H39      1.0000 0.36220  0.68280  0.32120  Biso   1.000  H
  C78      1.0000 0.62660  0.51790  0.36560  Biso   1.000  C
  C79      1.0000 0.69890  0.53130  0.41820  Biso   1.000  C
  H40      1.0000 0.70310  0.57480  0.44680  Biso   1.000  H
  C80      1.0000 0.76400  0.48160  0.42870  Biso   1.000  C
  C81      1.0000 0.75490  0.41380  0.38770  Biso   1.000  C
  H41      1.0000 0.79760  0.37750  0.39500  Biso   1.000  H
  C82      1.0000 0.68160  0.40210  0.33660  Biso   1.000  C
  H42      1.0000 0.67520  0.35740  0.30920  Biso   1.000  H
  C83      1.0000 0.45190  0.34720  0.36340  Biso   1.000  C
  H43      1.0000 0.43880  0.39590  0.37800  Biso   1.000  H
  C84      1.0000 0.45040  0.28140  0.40290  Biso   1.000  C
  H44      1.0000 0.43780  0.28560  0.44400  Biso   1.000  H
  C85      1.0000 0.46810  0.20990  0.37970  Biso   1.000  C
  C86      1.0000 0.48830  0.20480  0.31870  Biso   1.000  C
  H45      1.0000 0.50110  0.15650  0.30300  Biso   1.000  H
  C87      1.0000 0.48870  0.27210  0.28250  Biso   1.000  C
  C88      1.0000 0.47230  0.13570  0.42200  Biso   1.000  C
  C89      1.0000 0.84510  0.50010  0.48240  Biso   1.000  C
  C90      1.0000 0.49080  0.77580  0.38040  Biso   1.000  C
  N13      1.0000 0.48040  0.53660  0.31560  Biso   1.000  N
  N14      1.0000 0.61890  0.45310  0.32500  Biso   1.000  N
  N15      1.0000 0.47160  0.34330  0.30420  Biso   1.000  N
  O25      1.0000 0.42900  0.81010  0.38790  Biso   1.000  O
  O26      1.0000 0.55790  0.81170  0.38920  Biso   1.000  O
  O27      1.0000 0.84490  0.54300  0.53270  Biso   1.000  O
  O28      1.0000 0.91020  0.47430  0.47480  Biso   1.000  O
  O29      1.0000 0.48840  0.07310  0.39510  Biso   1.000  O
  O30      1.0000 0.45950  0.14110  0.47920  Biso   1.000  O
  Eu6      1.0000 0.00554  0.43773  0.41741  Biso   1.000  Eu
  C91      1.0000 0.98720  0.19070  0.36120  Biso   1.000  C
  C92      1.0000 0.05790  0.14720  0.37390  Biso   1.000  C
  H46      1.0000 0.10890  0.16970  0.39650  Biso   1.000  H
  C93      1.0000 0.05250  0.06940  0.35270  Biso   1.000  C
  C94      1.0000 0.91140  0.07880  0.30490  Biso   1.000  C
  H47      1.0000 0.86140  0.05560  0.28100  Biso   1.000  H
  C95      1.0000 0.91130  0.15550  0.32780  Biso   1.000  C
  H48      1.0000 0.86220  0.18280  0.32120  Biso   1.000  H
  C96      1.0000 0.12660  0.01790  0.36560  Biso   1.000  C
  C97      1.0000 0.19890  0.03130  0.41820  Biso   1.000  C
  H49      1.0000 0.20310  0.07480  0.44680  Biso   1.000  H
  C98      1.0000 0.26400  0.98160  0.42870  Biso   1.000  C
  C99      1.0000 0.25490  0.91380  0.38770  Biso   1.000  C
  H50      1.0000 0.29760  0.87750  0.39500  Biso   1.000  H
  C100     1.0000 0.18160  0.90210  0.33660  Biso   1.000  C
  H51      1.0000 0.17520  0.85740  0.30920  Biso   1.000  H
  C101     1.0000 0.95190  0.84720  0.36340  Biso   1.000  C
  H52      1.0000 0.93880  0.89590  0.37800  Biso   1.000  H
  C102     1.0000 0.95040  0.78140  0.40290  Biso   1.000  C
  H53      1.0000 0.93780  0.78560  0.44400  Biso   1.000  H
  C103     1.0000 0.96810  0.70990  0.37970  Biso   1.000  C
  C104     1.0000 0.98830  0.70480  0.31870  Biso   1.000  C
  H54      1.0000 0.00110  0.65650  0.30300  Biso   1.000  H
  C105     1.0000 0.98870  0.77210  0.28250  Biso   1.000  C
  C106     1.0000 0.97230  0.63570  0.42200  Biso   1.000  C
  C107     1.0000 0.34510  0.00010  0.48240  Biso   1.000  C
  C108     1.0000 0.99080  0.27580  0.38040  Biso   1.000  C
  N16      1.0000 0.98040  0.03660  0.31560  Biso   1.000  N
  N17      1.0000 0.11890  0.95310  0.32500  Biso   1.000  N
  N18      1.0000 0.97160  0.84330  0.30420  Biso   1.000  N
  O31      1.0000 0.92900  0.31010  0.38790  Biso   1.000  O
  O32      1.0000 0.05790  0.31170  0.38920  Biso   1.000  O
  O33      1.0000 0.34490  0.04300  0.53270  Biso   1.000  O
  O34      1.0000 0.41020  0.97430  0.47480  Biso   1.000  O
  O35      1.0000 0.98840  0.57310  0.39510  Biso   1.000  O
  O36      1.0000 0.95950  0.64110  0.47920  Biso   1.000  O
  Eu7      1.0000 0.49446  0.93773  0.08259  Biso   1.000  Eu
  C109     1.0000 0.51280  0.69070  0.13880  Biso   1.000  C
  C110     1.0000 0.44210  0.64720  0.12610  Biso   1.000  C
  H55      1.0000 0.39110  0.66970  0.10350  Biso   1.000  H
  C111     1.0000 0.44750  0.56940  0.14730  Biso   1.000  C
  C112     1.0000 0.58860  0.57880  0.19510  Biso   1.000  C
  H56      1.0000 0.63860  0.55560  0.21900  Biso   1.000  H
  C113     1.0000 0.58870  0.65550  0.17220  Biso   1.000  C
  H57      1.0000 0.63780  0.68280  0.17880  Biso   1.000  H
  C114     1.0000 0.37340  0.51790  0.13440  Biso   1.000  C
  C115     1.0000 0.30110  0.53130  0.08180  Biso   1.000  C
  H58      1.0000 0.29690  0.57480  0.05320  Biso   1.000  H
  C116     1.0000 0.23600  0.48160  0.07130  Biso   1.000  C
  C117     1.0000 0.24510  0.41380  0.11230  Biso   1.000  C
  H59      1.0000 0.20240  0.37750  0.10500  Biso   1.000  H
  C118     1.0000 0.31840  0.40210  0.16340  Biso   1.000  C
  H60      1.0000 0.32480  0.35740  0.19080  Biso   1.000  H
  C119     1.0000 0.54810  0.34720  0.13660  Biso   1.000  C
  H61      1.0000 0.56120  0.39590  0.12200  Biso   1.000  H
  C120     1.0000 0.54960  0.28140  0.09710  Biso   1.000  C
  H62      1.0000 0.56220  0.28560  0.05600  Biso   1.000  H
  C121     1.0000 0.53190  0.20990  0.12030  Biso   1.000  C
  C122     1.0000 0.51170  0.20480  0.18130  Biso   1.000  C
  H63      1.0000 0.49890  0.15650  0.19700  Biso   1.000  H
  C123     1.0000 0.51130  0.27210  0.21750  Biso   1.000  C
  C124     1.0000 0.52770  0.13570  0.07800  Biso   1.000  C
  C125     1.0000 0.15490  0.50010  0.01760  Biso   1.000  C
  C126     1.0000 0.50920  0.77580  0.11960  Biso   1.000  C
  N19      1.0000 0.51960  0.53660  0.18440  Biso   1.000  N
  N20      1.0000 0.38110  0.45310  0.17500  Biso   1.000  N
  N21      1.0000 0.52840  0.34330  0.19580  Biso   1.000  N
  O37      1.0000 0.57100  0.81010  0.11210  Biso   1.000  O
  O38      1.0000 0.44210  0.81170  0.11080  Biso   1.000  O
  O39      1.0000 0.15510  0.54300  0.96730  Biso   1.000  O
  O40      1.0000 0.08980  0.47430  0.02520  Biso   1.000  O
  O41      1.0000 0.51160  0.07310  0.10490  Biso   1.000  O
  O42      1.0000 0.54050  0.14110  0.02080  Biso   1.000  O
  Eu8      1.0000 0.99446  0.43773  0.08259  Biso   1.000  Eu
  C127     1.0000 0.01280  0.19070  0.13880  Biso   1.000  C
  C128     1.0000 0.94210  0.14720  0.12610  Biso   1.000  C
  H64      1.0000 0.89110  0.16970  0.10350  Biso   1.000  H
  C129     1.0000 0.94750  0.06940  0.14730  Biso   1.000  C
  C130     1.0000 0.08860  0.07880  0.19510  Biso   1.000  C
  H65      1.0000 0.13860  0.05560  0.21900  Biso   1.000  H
  C131     1.0000 0.08870  0.15550  0.17220  Biso   1.000  C
  H66      1.0000 0.13780  0.18280  0.17880  Biso   1.000  H
  C132     1.0000 0.87340  0.01790  0.13440  Biso   1.000  C
  C133     1.0000 0.80110  0.03130  0.08180  Biso   1.000  C
  H67      1.0000 0.79690  0.07480  0.05320  Biso   1.000  H
  C134     1.0000 0.73600  0.98160  0.07130  Biso   1.000  C
  C135     1.0000 0.74510  0.91380  0.11230  Biso   1.000  C
  H68      1.0000 0.70240  0.87750  0.10500  Biso   1.000  H
  C136     1.0000 0.81840  0.90210  0.16340  Biso   1.000  C
  H69      1.0000 0.82480  0.85740  0.19080  Biso   1.000  H
  C137     1.0000 0.04810  0.84720  0.13660  Biso   1.000  C
  H70      1.0000 0.06120  0.89590  0.12200  Biso   1.000  H
  C138     1.0000 0.04960  0.78140  0.09710  Biso   1.000  C
  H71      1.0000 0.06220  0.78560  0.05600  Biso   1.000  H
  C139     1.0000 0.03190  0.70990  0.12030  Biso   1.000  C
  C140     1.0000 0.01170  0.70480  0.18130  Biso   1.000  C
  H72      1.0000 0.99890  0.65650  0.19700  Biso   1.000  H
  C141     1.0000 0.01130  0.77210  0.21750  Biso   1.000  C
  C142     1.0000 0.02770  0.63570  0.07800  Biso   1.000  C
  C143     1.0000 0.65490  0.00010  0.01760  Biso   1.000  C
  C144     1.0000 0.00920  0.27580  0.11960  Biso   1.000  C
  N22      1.0000 0.01960  0.03660  0.18440  Biso   1.000  N
  N23      1.0000 0.88110  0.95310  0.17500  Biso   1.000  N
  N24      1.0000 0.02840  0.84330  0.19580  Biso   1.000  N
  O43      1.0000 0.07100  0.31010  0.11210  Biso   1.000  O
  O44      1.0000 0.94210  0.31170  0.11080  Biso   1.000  O
  O45      1.0000 0.65510  0.04300  0.96730  Biso   1.000  O
  O46      1.0000 0.58980  0.97430  0.02520  Biso   1.000  O
  O47      1.0000 0.01160  0.57310  0.10490  Biso   1.000  O
  O48      1.0000 0.04050  0.64110  0.02080  Biso   1.000  O
  Zn1      1.0000 0.50000  0.55994  0.75000  Biso   1.000  Zn
  Zn2      1.0000 0.00000  0.05994  0.75000  Biso   1.000  Zn
  Zn3      1.0000 0.50000  0.44006  0.25000  Biso   1.000  Zn
  Zn4      1.0000 0.00000  0.94006  0.25000  Biso   1.000  Zn
