data_image0
_cell_length_a       17.0778
_cell_length_b       16.9284
_cell_length_c       20.3385
_cell_angle_alpha    90
_cell_angle_beta     108.115
_cell_angle_gamma    90

_symmetry_space_group_name_H-M    "P 1"
_symmetry_int_tables_number       1

loop_
  _symmetry_equiv_pos_as_xyz
  'x, y, z'

loop_
  _atom_site_label
  _atom_site_occupancy
  _atom_site_fract_x
  _atom_site_fract_y
  _atom_site_fract_z
  _atom_site_thermal_displace_type
  _atom_site_B_iso_or_equiv
  _atom_site_type_symbol
  Tb1      1.0000 0.49445  0.06205  0.58235  Biso   1.000  Tb
  C1       1.0000 0.51220  0.30850  0.63850  Biso   1.000  C
  C2       1.0000 0.44070  0.35280  0.62470  Biso   1.000  C
  H1       1.0000 0.38980  0.33090  0.60100  Biso   1.000  H
  C3       1.0000 0.44690  0.43070  0.64710  Biso   1.000  C
  C4       1.0000 0.58800  0.42070  0.69430  Biso   1.000  C
  H2       1.0000 0.63850  0.44360  0.71800  Biso   1.000  H
  C5       1.0000 0.58740  0.34370  0.67150  Biso   1.000  C
  H3       1.0000 0.63630  0.31610  0.67830  Biso   1.000  H
  C6       1.0000 0.37400  0.48230  0.63380  Biso   1.000  C
  C7       1.0000 0.30110  0.46750  0.58130  Biso   1.000  C
  H4       1.0000 0.29620  0.42360  0.55280  Biso   1.000  H
  C8       1.0000 0.23600  0.51910  0.57210  Biso   1.000  C
  C9       1.0000 0.24500  0.58660  0.61280  Biso   1.000  C
  H5       1.0000 0.20240  0.62300  0.60600  Biso   1.000  H
  C10      1.0000 0.31880  0.59780  0.66330  Biso   1.000  C
  H6       1.0000 0.32570  0.64270  0.69090  Biso   1.000  H
  C11      1.0000 0.54790  0.65280  0.63680  Biso   1.000  C
  H7       1.0000 0.56070  0.60380  0.62220  Biso   1.000  H
  C12      1.0000 0.54930  0.71810  0.59660  Biso   1.000  C
  H8       1.0000 0.56260  0.71310  0.55580  Biso   1.000  H
  C13      1.0000 0.53030  0.79210  0.61870  Biso   1.000  C
  C14      1.0000 0.51190  0.79620  0.68130  Biso   1.000  C
  H9       1.0000 0.50070  0.84450  0.69800  Biso   1.000  H
  C15      1.0000 0.51080  0.72770  0.71750  Biso   1.000  C
  C16      1.0000 0.52810  0.86610  0.57720  Biso   1.000  C
  C17      1.0000 0.15390  0.50010  0.51840  Biso   1.000  C
  C18      1.0000 0.50820  0.22260  0.61860  Biso   1.000  C
  N1       1.0000 0.51940  0.46400  0.68400  Biso   1.000  N
  N2       1.0000 0.38180  0.54660  0.67470  Biso   1.000  N
  N3       1.0000 0.52880  0.65660  0.69590  Biso   1.000  N
  O1       1.0000 0.57060  0.18930  0.61120  Biso   1.000  O
  O2       1.0000 0.44150  0.18620  0.61070  Biso   1.000  O
  O3       1.0000 0.15350  0.45760  0.46670  Biso   1.000  O
  O4       1.0000 0.08920  0.52650  0.52580  Biso   1.000  O
  O5       1.0000 0.51130  0.92780  0.60430  Biso   1.000  O
  O6       1.0000 0.54090  0.86070  0.51980  Biso   1.000  O
  Tb2      1.0000 0.99445  0.56205  0.58235  Biso   1.000  Tb
  C19      1.0000 0.01220  0.80850  0.63850  Biso   1.000  C
  C20      1.0000 0.94070  0.85280  0.62470  Biso   1.000  C
  H10      1.0000 0.88980  0.83090  0.60100  Biso   1.000  H
  C21      1.0000 0.94690  0.93070  0.64710  Biso   1.000  C
  C22      1.0000 0.08800  0.92070  0.69430  Biso   1.000  C
  H11      1.0000 0.13850  0.94360  0.71800  Biso   1.000  H
  C23      1.0000 0.08740  0.84370  0.67150  Biso   1.000  C
  H12      1.0000 0.13630  0.81610  0.67830  Biso   1.000  H
  C24      1.0000 0.87400  0.98230  0.63380  Biso   1.000  C
  C25      1.0000 0.80110  0.96750  0.58130  Biso   1.000  C
  H13      1.0000 0.79620  0.92360  0.55280  Biso   1.000  H
  C26      1.0000 0.73600  0.01910  0.57210  Biso   1.000  C
  C27      1.0000 0.74500  0.08660  0.61280  Biso   1.000  C
  H14      1.0000 0.70240  0.12300  0.60600  Biso   1.000  H
  C28      1.0000 0.81880  0.09780  0.66330  Biso   1.000  C
  H15      1.0000 0.82570  0.14270  0.69090  Biso   1.000  H
  C29      1.0000 0.04790  0.15280  0.63680  Biso   1.000  C
  H16      1.0000 0.06070  0.10380  0.62220  Biso   1.000  H
  C30      1.0000 0.04930  0.21810  0.59660  Biso   1.000  C
  H17      1.0000 0.06260  0.21310  0.55580  Biso   1.000  H
  C31      1.0000 0.03030  0.29210  0.61870  Biso   1.000  C
  C32      1.0000 0.01190  0.29620  0.68130  Biso   1.000  C
  H18      1.0000 0.00070  0.34450  0.69800  Biso   1.000  H
  C33      1.0000 0.01080  0.22770  0.71750  Biso   1.000  C
  C34      1.0000 0.02810  0.36610  0.57720  Biso   1.000  C
  C35      1.0000 0.65390  0.00010  0.51840  Biso   1.000  C
  C36      1.0000 0.00820  0.72260  0.61860  Biso   1.000  C
  N4       1.0000 0.01940  0.96400  0.68400  Biso   1.000  N
  N5       1.0000 0.88180  0.04660  0.67470  Biso   1.000  N
  N6       1.0000 0.02880  0.15660  0.69590  Biso   1.000  N
  O7       1.0000 0.07060  0.68930  0.61120  Biso   1.000  O
  O8       1.0000 0.94150  0.68620  0.61070  Biso   1.000  O
  O9       1.0000 0.65350  0.95760  0.46670  Biso   1.000  O
  O10      1.0000 0.58920  0.02650  0.52580  Biso   1.000  O
  O11      1.0000 0.01130  0.42780  0.60430  Biso   1.000  O
  O12      1.0000 0.04090  0.36070  0.51980  Biso   1.000  O
  Tb3      1.0000 0.50555  0.06205  0.91765  Biso   1.000  Tb
  C37      1.0000 0.48780  0.30850  0.86150  Biso   1.000  C
  C38      1.0000 0.55930  0.35280  0.87530  Biso   1.000  C
  H19      1.0000 0.61020  0.33090  0.89900  Biso   1.000  H
  C39      1.0000 0.55310  0.43070  0.85290  Biso   1.000  C
  C40      1.0000 0.41200  0.42070  0.80570  Biso   1.000  C
  H20      1.0000 0.36150  0.44360  0.78200  Biso   1.000  H
  C41      1.0000 0.41260  0.34370  0.82850  Biso   1.000  C
  H21      1.0000 0.36370  0.31610  0.82170  Biso   1.000  H
  C42      1.0000 0.62600  0.48230  0.86620  Biso   1.000  C
  C43      1.0000 0.69890  0.46750  0.91870  Biso   1.000  C
  H22      1.0000 0.70380  0.42360  0.94720  Biso   1.000  H
  C44      1.0000 0.76400  0.51910  0.92790  Biso   1.000  C
  C45      1.0000 0.75500  0.58660  0.88720  Biso   1.000  C
  H23      1.0000 0.79760  0.62300  0.89400  Biso   1.000  H
  C46      1.0000 0.68120  0.59780  0.83670  Biso   1.000  C
  H24      1.0000 0.67430  0.64270  0.80910  Biso   1.000  H
  C47      1.0000 0.45210  0.65280  0.86320  Biso   1.000  C
  H25      1.0000 0.43930  0.60380  0.87780  Biso   1.000  H
  C48      1.0000 0.45070  0.71810  0.90340  Biso   1.000  C
  H26      1.0000 0.43740  0.71310  0.94420  Biso   1.000  H
  C49      1.0000 0.46970  0.79210  0.88130  Biso   1.000  C
  C50      1.0000 0.48810  0.79620  0.81870  Biso   1.000  C
  H27      1.0000 0.49930  0.84450  0.80200  Biso   1.000  H
  C51      1.0000 0.48920  0.72770  0.78250  Biso   1.000  C
  C52      1.0000 0.47190  0.86610  0.92280  Biso   1.000  C
  C53      1.0000 0.84610  0.50010  0.98160  Biso   1.000  C
  C54      1.0000 0.49180  0.22260  0.88140  Biso   1.000  C
  N7       1.0000 0.48060  0.46400  0.81600  Biso   1.000  N
  N8       1.0000 0.61820  0.54660  0.82530  Biso   1.000  N
  N9       1.0000 0.47120  0.65660  0.80410  Biso   1.000  N
  O13      1.0000 0.42940  0.18930  0.88880  Biso   1.000  O
  O14      1.0000 0.55850  0.18620  0.88930  Biso   1.000  O
  O15      1.0000 0.84650  0.45760  0.03330  Biso   1.000  O
  O16      1.0000 0.91080  0.52650  0.97420  Biso   1.000  O
  O17      1.0000 0.48870  0.92780  0.89570  Biso   1.000  O
  O18      1.0000 0.45910  0.86070  0.98020  Biso   1.000  O
  Tb4      1.0000 0.00555  0.56205  0.91765  Biso   1.000  Tb
  C55      1.0000 0.98780  0.80850  0.86150  Biso   1.000  C
  C56      1.0000 0.05930  0.85280  0.87530  Biso   1.000  C
  H28      1.0000 0.11020  0.83090  0.89900  Biso   1.000  H
  C57      1.0000 0.05310  0.93070  0.85290  Biso   1.000  C
  C58      1.0000 0.91200  0.92070  0.80570  Biso   1.000  C
  H29      1.0000 0.86150  0.94360  0.78200  Biso   1.000  H
  C59      1.0000 0.91260  0.84370  0.82850  Biso   1.000  C
  H30      1.0000 0.86370  0.81610  0.82170  Biso   1.000  H
  C60      1.0000 0.12600  0.98230  0.86620  Biso   1.000  C
  C61      1.0000 0.19890  0.96750  0.91870  Biso   1.000  C
  H31      1.0000 0.20380  0.92360  0.94720  Biso   1.000  H
  C62      1.0000 0.26400  0.01910  0.92790  Biso   1.000  C
  C63      1.0000 0.25500  0.08660  0.88720  Biso   1.000  C
  H32      1.0000 0.29760  0.12300  0.89400  Biso   1.000  H
  C64      1.0000 0.18120  0.09780  0.83670  Biso   1.000  C
  H33      1.0000 0.17430  0.14270  0.80910  Biso   1.000  H
  C65      1.0000 0.95210  0.15280  0.86320  Biso   1.000  C
  H34      1.0000 0.93930  0.10380  0.87780  Biso   1.000  H
  C66      1.0000 0.95070  0.21810  0.90340  Biso   1.000  C
  H35      1.0000 0.93740  0.21310  0.94420  Biso   1.000  H
  C67      1.0000 0.96970  0.29210  0.88130  Biso   1.000  C
  C68      1.0000 0.98810  0.29620  0.81870  Biso   1.000  C
  H36      1.0000 0.99930  0.34450  0.80200  Biso   1.000  H
  C69      1.0000 0.98920  0.22770  0.78250  Biso   1.000  C
  C70      1.0000 0.97190  0.36610  0.92280  Biso   1.000  C
  C71      1.0000 0.34610  0.00010  0.98160  Biso   1.000  C
  C72      1.0000 0.99180  0.72260  0.88140  Biso   1.000  C
  N10      1.0000 0.98060  0.96400  0.81600  Biso   1.000  N
  N11      1.0000 0.11820  0.04660  0.82530  Biso   1.000  N
  N12      1.0000 0.97120  0.15660  0.80410  Biso   1.000  N
  O19      1.0000 0.92940  0.68930  0.88880  Biso   1.000  O
  O20      1.0000 0.05850  0.68620  0.88930  Biso   1.000  O
  O21      1.0000 0.34650  0.95760  0.03330  Biso   1.000  O
  O22      1.0000 0.41080  0.02650  0.97420  Biso   1.000  O
  O23      1.0000 0.98870  0.42780  0.89570  Biso   1.000  O
  O24      1.0000 0.95910  0.36070  0.98020  Biso   1.000  O
  Tb5      1.0000 0.50555  0.93795  0.41765  Biso   1.000  Tb
  C73      1.0000 0.48780  0.69150  0.36150  Biso   1.000  C
  C74      1.0000 0.55930  0.64720  0.37530  Biso   1.000  C
  H37      1.0000 0.61020  0.66910  0.39900  Biso   1.000  H
  C75      1.0000 0.55310  0.56930  0.35290  Biso   1.000  C
  C76      1.0000 0.41200  0.57930  0.30570  Biso   1.000  C
  H38      1.0000 0.36150  0.55640  0.28200  Biso   1.000  H
  C77      1.0000 0.41260  0.65630  0.32850  Biso   1.000  C
  H39      1.0000 0.36370  0.68390  0.32170  Biso   1.000  H
  C78      1.0000 0.62600  0.51770  0.36620  Biso   1.000  C
  C79      1.0000 0.69890  0.53250  0.41870  Biso   1.000  C
  H40      1.0000 0.70380  0.57640  0.44720  Biso   1.000  H
  C80      1.0000 0.76400  0.48090  0.42790  Biso   1.000  C
  C81      1.0000 0.75500  0.41340  0.38720  Biso   1.000  C
  H41      1.0000 0.79760  0.37700  0.39400  Biso   1.000  H
  C82      1.0000 0.68120  0.40220  0.33670  Biso   1.000  C
  H42      1.0000 0.67430  0.35730  0.30910  Biso   1.000  H
  C83      1.0000 0.45210  0.34720  0.36320  Biso   1.000  C
  H43      1.0000 0.43930  0.39620  0.37780  Biso   1.000  H
  C84      1.0000 0.45070  0.28190  0.40340  Biso   1.000  C
  H44      1.0000 0.43740  0.28690  0.44420  Biso   1.000  H
  C85      1.0000 0.46970  0.20790  0.38130  Biso   1.000  C
  C86      1.0000 0.48810  0.20380  0.31870  Biso   1.000  C
  H45      1.0000 0.49930  0.15550  0.30200  Biso   1.000  H
  C87      1.0000 0.48920  0.27230  0.28250  Biso   1.000  C
  C88      1.0000 0.47190  0.13390  0.42280  Biso   1.000  C
  C89      1.0000 0.84610  0.49990  0.48160  Biso   1.000  C
  C90      1.0000 0.49180  0.77740  0.38140  Biso   1.000  C
  N13      1.0000 0.48060  0.53600  0.31600  Biso   1.000  N
  N14      1.0000 0.61820  0.45340  0.32530  Biso   1.000  N
  N15      1.0000 0.47120  0.34340  0.30410  Biso   1.000  N
  O25      1.0000 0.42940  0.81070  0.38880  Biso   1.000  O
  O26      1.0000 0.55850  0.81380  0.38930  Biso   1.000  O
  O27      1.0000 0.84650  0.54240  0.53330  Biso   1.000  O
  O28      1.0000 0.91080  0.47350  0.47420  Biso   1.000  O
  O29      1.0000 0.48870  0.07220  0.39570  Biso   1.000  O
  O30      1.0000 0.45910  0.13930  0.48020  Biso   1.000  O
  Tb6      1.0000 0.00555  0.43795  0.41765  Biso   1.000  Tb
  C91      1.0000 0.98780  0.19150  0.36150  Biso   1.000  C
  C92      1.0000 0.05930  0.14720  0.37530  Biso   1.000  C
  H46      1.0000 0.11020  0.16910  0.39900  Biso   1.000  H
  C93      1.0000 0.05310  0.06930  0.35290  Biso   1.000  C
  C94      1.0000 0.91200  0.07930  0.30570  Biso   1.000  C
  H47      1.0000 0.86150  0.05640  0.28200  Biso   1.000  H
  C95      1.0000 0.91260  0.15630  0.32850  Biso   1.000  C
  H48      1.0000 0.86370  0.18390  0.32170  Biso   1.000  H
  C96      1.0000 0.12600  0.01770  0.36620  Biso   1.000  C
  C97      1.0000 0.19890  0.03250  0.41870  Biso   1.000  C
  H49      1.0000 0.20380  0.07640  0.44720  Biso   1.000  H
  C98      1.0000 0.26400  0.98090  0.42790  Biso   1.000  C
  C99      1.0000 0.25500  0.91340  0.38720  Biso   1.000  C
  H50      1.0000 0.29760  0.87700  0.39400  Biso   1.000  H
  C100     1.0000 0.18120  0.90220  0.33670  Biso   1.000  C
  H51      1.0000 0.17430  0.85730  0.30910  Biso   1.000  H
  C101     1.0000 0.95210  0.84720  0.36320  Biso   1.000  C
  H52      1.0000 0.93930  0.89620  0.37780  Biso   1.000  H
  C102     1.0000 0.95070  0.78190  0.40340  Biso   1.000  C
  H53      1.0000 0.93740  0.78690  0.44420  Biso   1.000  H
  C103     1.0000 0.96970  0.70790  0.38130  Biso   1.000  C
  C104     1.0000 0.98810  0.70380  0.31870  Biso   1.000  C
  H54      1.0000 0.99930  0.65550  0.30200  Biso   1.000  H
  C105     1.0000 0.98920  0.77230  0.28250  Biso   1.000  C
  C106     1.0000 0.97190  0.63390  0.42280  Biso   1.000  C
  C107     1.0000 0.34610  0.99990  0.48160  Biso   1.000  C
  C108     1.0000 0.99180  0.27740  0.38140  Biso   1.000  C
  N16      1.0000 0.98060  0.03600  0.31600  Biso   1.000  N
  N17      1.0000 0.11820  0.95340  0.32530  Biso   1.000  N
  N18      1.0000 0.97120  0.84340  0.30410  Biso   1.000  N
  O31      1.0000 0.92940  0.31070  0.38880  Biso   1.000  O
  O32      1.0000 0.05850  0.31380  0.38930  Biso   1.000  O
  O33      1.0000 0.34650  0.04240  0.53330  Biso   1.000  O
  O34      1.0000 0.41080  0.97350  0.47420  Biso   1.000  O
  O35      1.0000 0.98870  0.57220  0.39570  Biso   1.000  O
  O36      1.0000 0.95910  0.63930  0.48020  Biso   1.000  O
  Tb7      1.0000 0.49445  0.93795  0.08235  Biso   1.000  Tb
  C109     1.0000 0.51220  0.69150  0.13850  Biso   1.000  C
  C110     1.0000 0.44070  0.64720  0.12470  Biso   1.000  C
  H55      1.0000 0.38980  0.66910  0.10100  Biso   1.000  H
  C111     1.0000 0.44690  0.56930  0.14710  Biso   1.000  C
  C112     1.0000 0.58800  0.57930  0.19430  Biso   1.000  C
  H56      1.0000 0.63850  0.55640  0.21800  Biso   1.000  H
  C113     1.0000 0.58740  0.65630  0.17150  Biso   1.000  C
  H57      1.0000 0.63630  0.68390  0.17830  Biso   1.000  H
  C114     1.0000 0.37400  0.51770  0.13380  Biso   1.000  C
  C115     1.0000 0.30110  0.53250  0.08130  Biso   1.000  C
  H58      1.0000 0.29620  0.57640  0.05280  Biso   1.000  H
  C116     1.0000 0.23600  0.48090  0.07210  Biso   1.000  C
  C117     1.0000 0.24500  0.41340  0.11280  Biso   1.000  C
  H59      1.0000 0.20240  0.37700  0.10600  Biso   1.000  H
  C118     1.0000 0.31880  0.40220  0.16330  Biso   1.000  C
  H60      1.0000 0.32570  0.35730  0.19090  Biso   1.000  H
  C119     1.0000 0.54790  0.34720  0.13680  Biso   1.000  C
  H61      1.0000 0.56070  0.39620  0.12220  Biso   1.000  H
  C120     1.0000 0.54930  0.28190  0.09660  Biso   1.000  C
  H62      1.0000 0.56260  0.28690  0.05580  Biso   1.000  H
  C121     1.0000 0.53030  0.20790  0.11870  Biso   1.000  C
  C122     1.0000 0.51190  0.20380  0.18130  Biso   1.000  C
  H63      1.0000 0.50070  0.15550  0.19800  Biso   1.000  H
  C123     1.0000 0.51080  0.27230  0.21750  Biso   1.000  C
  C124     1.0000 0.52810  0.13390  0.07720  Biso   1.000  C
  C125     1.0000 0.15390  0.49990  0.01840  Biso   1.000  C
  C126     1.0000 0.50820  0.77740  0.11860  Biso   1.000  C
  N19      1.0000 0.51940  0.53600  0.18400  Biso   1.000  N
  N20      1.0000 0.38180  0.45340  0.17470  Biso   1.000  N
  N21      1.0000 0.52880  0.34340  0.19590  Biso   1.000  N
  O37      1.0000 0.57060  0.81070  0.11120  Biso   1.000  O
  O38      1.0000 0.44150  0.81380  0.11070  Biso   1.000  O
  O39      1.0000 0.15350  0.54240  0.96670  Biso   1.000  O
  O40      1.0000 0.08920  0.47350  0.02580  Biso   1.000  O
  O41      1.0000 0.51130  0.07220  0.10430  Biso   1.000  O
  O42      1.0000 0.54090  0.13930  0.01980  Biso   1.000  O
  Tb8      1.0000 0.99445  0.43795  0.08235  Biso   1.000  Tb
  C127     1.0000 0.01220  0.19150  0.13850  Biso   1.000  C
  C128     1.0000 0.94070  0.14720  0.12470  Biso   1.000  C
  H64      1.0000 0.88980  0.16910  0.10100  Biso   1.000  H
  C129     1.0000 0.94690  0.06930  0.14710  Biso   1.000  C
  C130     1.0000 0.08800  0.07930  0.19430  Biso   1.000  C
  H65      1.0000 0.13850  0.05640  0.21800  Biso   1.000  H
  C131     1.0000 0.08740  0.15630  0.17150  Biso   1.000  C
  H66      1.0000 0.13630  0.18390  0.17830  Biso   1.000  H
  C132     1.0000 0.87400  0.01770  0.13380  Biso   1.000  C
  C133     1.0000 0.80110  0.03250  0.08130  Biso   1.000  C
  H67      1.0000 0.79620  0.07640  0.05280  Biso   1.000  H
  C134     1.0000 0.73600  0.98090  0.07210  Biso   1.000  C
  C135     1.0000 0.74500  0.91340  0.11280  Biso   1.000  C
  H68      1.0000 0.70240  0.87700  0.10600  Biso   1.000  H
  C136     1.0000 0.81880  0.90220  0.16330  Biso   1.000  C
  H69      1.0000 0.82570  0.85730  0.19090  Biso   1.000  H
  C137     1.0000 0.04790  0.84720  0.13680  Biso   1.000  C
  H70      1.0000 0.06070  0.89620  0.12220  Biso   1.000  H
  C138     1.0000 0.04930  0.78190  0.09660  Biso   1.000  C
  H71      1.0000 0.06260  0.78690  0.05580  Biso   1.000  H
  C139     1.0000 0.03030  0.70790  0.11870  Biso   1.000  C
  C140     1.0000 0.01190  0.70380  0.18130  Biso   1.000  C
  H72      1.0000 0.00070  0.65550  0.19800  Biso   1.000  H
  C141     1.0000 0.01080  0.77230  0.21750  Biso   1.000  C
  C142     1.0000 0.02810  0.63390  0.07720  Biso   1.000  C
  C143     1.0000 0.65390  0.99990  0.01840  Biso   1.000  C
  C144     1.0000 0.00820  0.27740  0.11860  Biso   1.000  C
  N22      1.0000 0.01940  0.03600  0.18400  Biso   1.000  N
  N23      1.0000 0.88180  0.95340  0.17470  Biso   1.000  N
  N24      1.0000 0.02880  0.84340  0.19590  Biso   1.000  N
  O43      1.0000 0.07060  0.31070  0.11120  Biso   1.000  O
  O44      1.0000 0.94150  0.31380  0.11070  Biso   1.000  O
  O45      1.0000 0.65350  0.04240  0.96670  Biso   1.000  O
  O46      1.0000 0.58920  0.97350  0.02580  Biso   1.000  O
  O47      1.0000 0.01130  0.57220  0.10430  Biso   1.000  O
  O48      1.0000 0.04090  0.63930  0.01980  Biso   1.000  O
  Zn1      1.0000 0.50000  0.55993  0.75000  Biso   1.000  Zn
  Zn2      1.0000 0.00000  0.05993  0.75000  Biso   1.000  Zn
  Zn3      1.0000 0.50000  0.44007  0.25000  Biso   1.000  Zn
  Zn4      1.0000 0.00000  0.94007  0.25000  Biso   1.000  Zn
