data_image0
_cell_length_a       17.2316
_cell_length_b       16.7585
_cell_length_c       21.2567
_cell_angle_alpha    90
_cell_angle_beta     106.996
_cell_angle_gamma    90

_symmetry_space_group_name_H-M    "P 1"
_symmetry_int_tables_number       1

loop_
  _symmetry_equiv_pos_as_xyz
  'x, y, z'

loop_
  _atom_site_label
  _atom_site_occupancy
  _atom_site_fract_x
  _atom_site_fract_y
  _atom_site_fract_z
  _atom_site_thermal_displace_type
  _atom_site_B_iso_or_equiv
  _atom_site_type_symbol
  Tb1      1.0000 0.47942  0.56529  0.57109  Biso   1.000  Tb
  C1       1.0000 0.31620  0.09240  0.67800  Biso   1.000  C
  H1       1.0000 0.32280  0.13770  0.70430  Biso   1.000  H
  C2       1.0000 0.23930  0.07730  0.63200  Biso   1.000  C
  H2       1.0000 0.19530  0.11060  0.62950  Biso   1.000  H
  C3       1.0000 0.23170  0.01340  0.59180  Biso   1.000  C
  C4       1.0000 0.30000  0.96520  0.59660  Biso   1.000  C
  H3       1.0000 0.29670  0.92300  0.56750  Biso   1.000  H
  C5       1.0000 0.37160  0.98050  0.64410  Biso   1.000  C
  C6       1.0000 0.15580  0.99260  0.53820  Biso   1.000  C
  C7       1.0000 0.44490  0.93150  0.65240  Biso   1.000  C
  C8       1.0000 0.43860  0.85280  0.62600  Biso   1.000  C
  H4       1.0000 0.38830  0.83040  0.60530  Biso   1.000  H
  C9       1.0000 0.50890  0.81100  0.63210  Biso   1.000  C
  C10      1.0000 0.58400  0.84800  0.66310  Biso   1.000  C
  H5       1.0000 0.63270  0.82220  0.66600  Biso   1.000  H
  C11      1.0000 0.58330  0.92330  0.68900  Biso   1.000  C
  H6       1.0000 0.63270  0.94710  0.71040  Biso   1.000  H
  C12      1.0000 0.50340  0.72730  0.60860  Biso   1.000  C
  C13      1.0000 0.53290  0.15430  0.63560  Biso   1.000  C
  H7       1.0000 0.54180  0.10450  0.61950  Biso   1.000  H
  C14      1.0000 0.53170  0.21980  0.59670  Biso   1.000  C
  H8       1.0000 0.54160  0.21510  0.55620  Biso   1.000  H
  C15      1.0000 0.51560  0.29220  0.61950  Biso   1.000  C
  C16      1.0000 0.50350  0.29910  0.67950  Biso   1.000  C
  H9       1.0000 0.49360  0.34870  0.69530  Biso   1.000  H
  C17      1.0000 0.50610  0.22970  0.71740  Biso   1.000  C
  C18      1.0000 0.51150  0.36860  0.57670  Biso   1.000  C
  N1       1.0000 0.37900  0.04360  0.68460  Biso   1.000  N
  N2       1.0000 0.51520  0.96400  0.68490  Biso   1.000  N
  N3       1.0000 0.52210  0.15790  0.69500  Biso   1.000  N
  O1       1.0000 0.15910  0.94380  0.49560  Biso   1.000  O
  O2       1.0000 0.08990  0.02670  0.53840  Biso   1.000  O
  O3       1.0000 0.53260  0.36050  0.52570  Biso   1.000  O
  O4       1.0000 0.48950  0.42960  0.59810  Biso   1.000  O
  O5       1.0000 0.43540  0.69250  0.59710  Biso   1.000  O
  O6       1.0000 0.56470  0.69200  0.60160  Biso   1.000  O
  Tb2      1.0000 0.97942  0.06529  0.57109  Biso   1.000  Tb
  C19      1.0000 0.81620  0.59240  0.67800  Biso   1.000  C
  H10      1.0000 0.82280  0.63770  0.70430  Biso   1.000  H
  C20      1.0000 0.73930  0.57730  0.63200  Biso   1.000  C
  H11      1.0000 0.69530  0.61060  0.62950  Biso   1.000  H
  C21      1.0000 0.73170  0.51340  0.59180  Biso   1.000  C
  C22      1.0000 0.80000  0.46520  0.59660  Biso   1.000  C
  H12      1.0000 0.79670  0.42300  0.56750  Biso   1.000  H
  C23      1.0000 0.87160  0.48050  0.64410  Biso   1.000  C
  C24      1.0000 0.65580  0.49260  0.53820  Biso   1.000  C
  C25      1.0000 0.94490  0.43150  0.65240  Biso   1.000  C
  C26      1.0000 0.93860  0.35280  0.62600  Biso   1.000  C
  H13      1.0000 0.88830  0.33040  0.60530  Biso   1.000  H
  C27      1.0000 0.00890  0.31100  0.63210  Biso   1.000  C
  C28      1.0000 0.08400  0.34800  0.66310  Biso   1.000  C
  H14      1.0000 0.13270  0.32220  0.66600  Biso   1.000  H
  C29      1.0000 0.08330  0.42330  0.68900  Biso   1.000  C
  H15      1.0000 0.13270  0.44710  0.71040  Biso   1.000  H
  C30      1.0000 0.00340  0.22730  0.60860  Biso   1.000  C
  C31      1.0000 0.03290  0.65430  0.63560  Biso   1.000  C
  H16      1.0000 0.04180  0.60450  0.61950  Biso   1.000  H
  C32      1.0000 0.03170  0.71980  0.59670  Biso   1.000  C
  H17      1.0000 0.04160  0.71510  0.55620  Biso   1.000  H
  C33      1.0000 0.01560  0.79220  0.61950  Biso   1.000  C
  C34      1.0000 0.00350  0.79910  0.67950  Biso   1.000  C
  H18      1.0000 0.99360  0.84870  0.69530  Biso   1.000  H
  C35      1.0000 0.00610  0.72970  0.71740  Biso   1.000  C
  C36      1.0000 0.01150  0.86860  0.57670  Biso   1.000  C
  N4       1.0000 0.87900  0.54360  0.68460  Biso   1.000  N
  N5       1.0000 0.01520  0.46400  0.68490  Biso   1.000  N
  N6       1.0000 0.02210  0.65790  0.69500  Biso   1.000  N
  O7       1.0000 0.65910  0.44380  0.49560  Biso   1.000  O
  O8       1.0000 0.58990  0.52670  0.53840  Biso   1.000  O
  O9       1.0000 0.03260  0.86050  0.52570  Biso   1.000  O
  O10      1.0000 0.98950  0.92960  0.59810  Biso   1.000  O
  O11      1.0000 0.93540  0.19250  0.59710  Biso   1.000  O
  O12      1.0000 0.06470  0.19200  0.60160  Biso   1.000  O
  Tb3      1.0000 0.52058  0.56529  0.92891  Biso   1.000  Tb
  C37      1.0000 0.68380  0.09240  0.82200  Biso   1.000  C
  H19      1.0000 0.67720  0.13770  0.79570  Biso   1.000  H
  C38      1.0000 0.76070  0.07730  0.86800  Biso   1.000  C
  H20      1.0000 0.80470  0.11060  0.87050  Biso   1.000  H
  C39      1.0000 0.76830  0.01340  0.90820  Biso   1.000  C
  C40      1.0000 0.70000  0.96520  0.90340  Biso   1.000  C
  H21      1.0000 0.70330  0.92300  0.93250  Biso   1.000  H
  C41      1.0000 0.62840  0.98050  0.85590  Biso   1.000  C
  C42      1.0000 0.84420  0.99260  0.96180  Biso   1.000  C
  C43      1.0000 0.55510  0.93150  0.84760  Biso   1.000  C
  C44      1.0000 0.56140  0.85280  0.87400  Biso   1.000  C
  H22      1.0000 0.61170  0.83040  0.89470  Biso   1.000  H
  C45      1.0000 0.49110  0.81100  0.86790  Biso   1.000  C
  C46      1.0000 0.41600  0.84800  0.83690  Biso   1.000  C
  H23      1.0000 0.36730  0.82220  0.83400  Biso   1.000  H
  C47      1.0000 0.41670  0.92330  0.81100  Biso   1.000  C
  H24      1.0000 0.36730  0.94710  0.78960  Biso   1.000  H
  C48      1.0000 0.49660  0.72730  0.89140  Biso   1.000  C
  C49      1.0000 0.46710  0.15430  0.86440  Biso   1.000  C
  H25      1.0000 0.45820  0.10450  0.88050  Biso   1.000  H
  C50      1.0000 0.46830  0.21980  0.90330  Biso   1.000  C
  H26      1.0000 0.45840  0.21510  0.94380  Biso   1.000  H
  C51      1.0000 0.48440  0.29220  0.88050  Biso   1.000  C
  C52      1.0000 0.49650  0.29910  0.82050  Biso   1.000  C
  H27      1.0000 0.50640  0.34870  0.80470  Biso   1.000  H
  C53      1.0000 0.49390  0.22970  0.78260  Biso   1.000  C
  C54      1.0000 0.48850  0.36860  0.92330  Biso   1.000  C
  N7       1.0000 0.62100  0.04360  0.81540  Biso   1.000  N
  N8       1.0000 0.48480  0.96400  0.81510  Biso   1.000  N
  N9       1.0000 0.47790  0.15790  0.80500  Biso   1.000  N
  O13      1.0000 0.84090  0.94380  0.00440  Biso   1.000  O
  O14      1.0000 0.91010  0.02670  0.96160  Biso   1.000  O
  O15      1.0000 0.46740  0.36050  0.97430  Biso   1.000  O
  O16      1.0000 0.51050  0.42960  0.90190  Biso   1.000  O
  O17      1.0000 0.56460  0.69250  0.90290  Biso   1.000  O
  O18      1.0000 0.43530  0.69200  0.89840  Biso   1.000  O
  Tb4      1.0000 0.02058  0.06529  0.92891  Biso   1.000  Tb
  C55      1.0000 0.18380  0.59240  0.82200  Biso   1.000  C
  H28      1.0000 0.17720  0.63770  0.79570  Biso   1.000  H
  C56      1.0000 0.26070  0.57730  0.86800  Biso   1.000  C
  H29      1.0000 0.30470  0.61060  0.87050  Biso   1.000  H
  C57      1.0000 0.26830  0.51340  0.90820  Biso   1.000  C
  C58      1.0000 0.20000  0.46520  0.90340  Biso   1.000  C
  H30      1.0000 0.20330  0.42300  0.93250  Biso   1.000  H
  C59      1.0000 0.12840  0.48050  0.85590  Biso   1.000  C
  C60      1.0000 0.34420  0.49260  0.96180  Biso   1.000  C
  C61      1.0000 0.05510  0.43150  0.84760  Biso   1.000  C
  C62      1.0000 0.06140  0.35280  0.87400  Biso   1.000  C
  H31      1.0000 0.11170  0.33040  0.89470  Biso   1.000  H
  C63      1.0000 0.99110  0.31100  0.86790  Biso   1.000  C
  C64      1.0000 0.91600  0.34800  0.83690  Biso   1.000  C
  H32      1.0000 0.86730  0.32220  0.83400  Biso   1.000  H
  C65      1.0000 0.91670  0.42330  0.81100  Biso   1.000  C
  H33      1.0000 0.86730  0.44710  0.78960  Biso   1.000  H
  C66      1.0000 0.99660  0.22730  0.89140  Biso   1.000  C
  C67      1.0000 0.96710  0.65430  0.86440  Biso   1.000  C
  H34      1.0000 0.95820  0.60450  0.88050  Biso   1.000  H
  C68      1.0000 0.96830  0.71980  0.90330  Biso   1.000  C
  H35      1.0000 0.95840  0.71510  0.94380  Biso   1.000  H
  C69      1.0000 0.98440  0.79220  0.88050  Biso   1.000  C
  C70      1.0000 0.99650  0.79910  0.82050  Biso   1.000  C
  H36      1.0000 0.00640  0.84870  0.80470  Biso   1.000  H
  C71      1.0000 0.99390  0.72970  0.78260  Biso   1.000  C
  C72      1.0000 0.98850  0.86860  0.92330  Biso   1.000  C
  N10      1.0000 0.12100  0.54360  0.81540  Biso   1.000  N
  N11      1.0000 0.98480  0.46400  0.81510  Biso   1.000  N
  N12      1.0000 0.97790  0.65790  0.80500  Biso   1.000  N
  O19      1.0000 0.34090  0.44380  0.00440  Biso   1.000  O
  O20      1.0000 0.41010  0.52670  0.96160  Biso   1.000  O
  O21      1.0000 0.96740  0.86050  0.97430  Biso   1.000  O
  O22      1.0000 0.01050  0.92960  0.90190  Biso   1.000  O
  O23      1.0000 0.06460  0.19250  0.90290  Biso   1.000  O
  O24      1.0000 0.93530  0.19200  0.89840  Biso   1.000  O
  Tb5      1.0000 0.52058  0.43471  0.42891  Biso   1.000  Tb
  C73      1.0000 0.68380  0.90760  0.32200  Biso   1.000  C
  H37      1.0000 0.67720  0.86230  0.29570  Biso   1.000  H
  C74      1.0000 0.76070  0.92270  0.36800  Biso   1.000  C
  H38      1.0000 0.80470  0.88940  0.37050  Biso   1.000  H
  C75      1.0000 0.76830  0.98660  0.40820  Biso   1.000  C
  C76      1.0000 0.70000  0.03480  0.40340  Biso   1.000  C
  H39      1.0000 0.70330  0.07700  0.43250  Biso   1.000  H
  C77      1.0000 0.62840  0.01950  0.35590  Biso   1.000  C
  C78      1.0000 0.84420  0.00740  0.46180  Biso   1.000  C
  C79      1.0000 0.55510  0.06850  0.34760  Biso   1.000  C
  C80      1.0000 0.56140  0.14720  0.37400  Biso   1.000  C
  H40      1.0000 0.61170  0.16960  0.39470  Biso   1.000  H
  C81      1.0000 0.49110  0.18900  0.36790  Biso   1.000  C
  C82      1.0000 0.41600  0.15200  0.33690  Biso   1.000  C
  H41      1.0000 0.36730  0.17780  0.33400  Biso   1.000  H
  C83      1.0000 0.41670  0.07670  0.31100  Biso   1.000  C
  H42      1.0000 0.36730  0.05290  0.28960  Biso   1.000  H
  C84      1.0000 0.49660  0.27270  0.39140  Biso   1.000  C
  C85      1.0000 0.46710  0.84570  0.36440  Biso   1.000  C
  H43      1.0000 0.45820  0.89550  0.38050  Biso   1.000  H
  C86      1.0000 0.46830  0.78020  0.40330  Biso   1.000  C
  H44      1.0000 0.45840  0.78490  0.44380  Biso   1.000  H
  C87      1.0000 0.48440  0.70780  0.38050  Biso   1.000  C
  C88      1.0000 0.49650  0.70090  0.32050  Biso   1.000  C
  H45      1.0000 0.50640  0.65130  0.30470  Biso   1.000  H
  C89      1.0000 0.49390  0.77030  0.28260  Biso   1.000  C
  C90      1.0000 0.48850  0.63140  0.42330  Biso   1.000  C
  N13      1.0000 0.62100  0.95640  0.31540  Biso   1.000  N
  N14      1.0000 0.48480  0.03600  0.31510  Biso   1.000  N
  N15      1.0000 0.47790  0.84210  0.30500  Biso   1.000  N
  O25      1.0000 0.84090  0.05620  0.50440  Biso   1.000  O
  O26      1.0000 0.91010  0.97330  0.46160  Biso   1.000  O
  O27      1.0000 0.46740  0.63950  0.47430  Biso   1.000  O
  O28      1.0000 0.51050  0.57040  0.40190  Biso   1.000  O
  O29      1.0000 0.56460  0.30750  0.40290  Biso   1.000  O
  O30      1.0000 0.43530  0.30800  0.39840  Biso   1.000  O
  Tb6      1.0000 0.02058  0.93471  0.42891  Biso   1.000  Tb
  C91      1.0000 0.18380  0.40760  0.32200  Biso   1.000  C
  H46      1.0000 0.17720  0.36230  0.29570  Biso   1.000  H
  C92      1.0000 0.26070  0.42270  0.36800  Biso   1.000  C
  H47      1.0000 0.30470  0.38940  0.37050  Biso   1.000  H
  C93      1.0000 0.26830  0.48660  0.40820  Biso   1.000  C
  C94      1.0000 0.20000  0.53480  0.40340  Biso   1.000  C
  H48      1.0000 0.20330  0.57700  0.43250  Biso   1.000  H
  C95      1.0000 0.12840  0.51950  0.35590  Biso   1.000  C
  C96      1.0000 0.34420  0.50740  0.46180  Biso   1.000  C
  C97      1.0000 0.05510  0.56850  0.34760  Biso   1.000  C
  C98      1.0000 0.06140  0.64720  0.37400  Biso   1.000  C
  H49      1.0000 0.11170  0.66960  0.39470  Biso   1.000  H
  C99      1.0000 0.99110  0.68900  0.36790  Biso   1.000  C
  C100     1.0000 0.91600  0.65200  0.33690  Biso   1.000  C
  H50      1.0000 0.86730  0.67780  0.33400  Biso   1.000  H
  C101     1.0000 0.91670  0.57670  0.31100  Biso   1.000  C
  H51      1.0000 0.86730  0.55290  0.28960  Biso   1.000  H
  C102     1.0000 0.99660  0.77270  0.39140  Biso   1.000  C
  C103     1.0000 0.96710  0.34570  0.36440  Biso   1.000  C
  H52      1.0000 0.95820  0.39550  0.38050  Biso   1.000  H
  C104     1.0000 0.96830  0.28020  0.40330  Biso   1.000  C
  H53      1.0000 0.95840  0.28490  0.44380  Biso   1.000  H
  C105     1.0000 0.98440  0.20780  0.38050  Biso   1.000  C
  C106     1.0000 0.99650  0.20090  0.32050  Biso   1.000  C
  H54      1.0000 0.00640  0.15130  0.30470  Biso   1.000  H
  C107     1.0000 0.99390  0.27030  0.28260  Biso   1.000  C
  C108     1.0000 0.98850  0.13140  0.42330  Biso   1.000  C
  N16      1.0000 0.12100  0.45640  0.31540  Biso   1.000  N
  N17      1.0000 0.98480  0.53600  0.31510  Biso   1.000  N
  N18      1.0000 0.97790  0.34210  0.30500  Biso   1.000  N
  O31      1.0000 0.34090  0.55620  0.50440  Biso   1.000  O
  O32      1.0000 0.41010  0.47330  0.46160  Biso   1.000  O
  O33      1.0000 0.96740  0.13950  0.47430  Biso   1.000  O
  O34      1.0000 0.01050  0.07040  0.40190  Biso   1.000  O
  O35      1.0000 0.06460  0.80750  0.40290  Biso   1.000  O
  O36      1.0000 0.93530  0.80800  0.39840  Biso   1.000  O
  Tb7      1.0000 0.47942  0.43471  0.07109  Biso   1.000  Tb
  C109     1.0000 0.31620  0.90760  0.17800  Biso   1.000  C
  H55      1.0000 0.32280  0.86230  0.20430  Biso   1.000  H
  C110     1.0000 0.23930  0.92270  0.13200  Biso   1.000  C
  H56      1.0000 0.19530  0.88940  0.12950  Biso   1.000  H
  C111     1.0000 0.23170  0.98660  0.09180  Biso   1.000  C
  C112     1.0000 0.30000  0.03480  0.09660  Biso   1.000  C
  H57      1.0000 0.29670  0.07700  0.06750  Biso   1.000  H
  C113     1.0000 0.37160  0.01950  0.14410  Biso   1.000  C
  C114     1.0000 0.15580  0.00740  0.03820  Biso   1.000  C
  C115     1.0000 0.44490  0.06850  0.15240  Biso   1.000  C
  C116     1.0000 0.43860  0.14720  0.12600  Biso   1.000  C
  H58      1.0000 0.38830  0.16960  0.10530  Biso   1.000  H
  C117     1.0000 0.50890  0.18900  0.13210  Biso   1.000  C
  C118     1.0000 0.58400  0.15200  0.16310  Biso   1.000  C
  H59      1.0000 0.63270  0.17780  0.16600  Biso   1.000  H
  C119     1.0000 0.58330  0.07670  0.18900  Biso   1.000  C
  H60      1.0000 0.63270  0.05290  0.21040  Biso   1.000  H
  C120     1.0000 0.50340  0.27270  0.10860  Biso   1.000  C
  C121     1.0000 0.53290  0.84570  0.13560  Biso   1.000  C
  H61      1.0000 0.54180  0.89550  0.11950  Biso   1.000  H
  C122     1.0000 0.53170  0.78020  0.09670  Biso   1.000  C
  H62      1.0000 0.54160  0.78490  0.05620  Biso   1.000  H
  C123     1.0000 0.51560  0.70780  0.11950  Biso   1.000  C
  C124     1.0000 0.50350  0.70090  0.17950  Biso   1.000  C
  H63      1.0000 0.49360  0.65130  0.19530  Biso   1.000  H
  C125     1.0000 0.50610  0.77030  0.21740  Biso   1.000  C
  C126     1.0000 0.51150  0.63140  0.07670  Biso   1.000  C
  N19      1.0000 0.37900  0.95640  0.18460  Biso   1.000  N
  N20      1.0000 0.51520  0.03600  0.18490  Biso   1.000  N
  N21      1.0000 0.52210  0.84210  0.19500  Biso   1.000  N
  O37      1.0000 0.15910  0.05620  0.99560  Biso   1.000  O
  O38      1.0000 0.08990  0.97330  0.03840  Biso   1.000  O
  O39      1.0000 0.53260  0.63950  0.02570  Biso   1.000  O
  O40      1.0000 0.48950  0.57040  0.09810  Biso   1.000  O
  O41      1.0000 0.43540  0.30750  0.09710  Biso   1.000  O
  O42      1.0000 0.56470  0.30800  0.10160  Biso   1.000  O
  Tb8      1.0000 0.97942  0.93471  0.07109  Biso   1.000  Tb
  C127     1.0000 0.81620  0.40760  0.17800  Biso   1.000  C
  H64      1.0000 0.82280  0.36230  0.20430  Biso   1.000  H
  C128     1.0000 0.73930  0.42270  0.13200  Biso   1.000  C
  H65      1.0000 0.69530  0.38940  0.12950  Biso   1.000  H
  C129     1.0000 0.73170  0.48660  0.09180  Biso   1.000  C
  C130     1.0000 0.80000  0.53480  0.09660  Biso   1.000  C
  H66      1.0000 0.79670  0.57700  0.06750  Biso   1.000  H
  C131     1.0000 0.87160  0.51950  0.14410  Biso   1.000  C
  C132     1.0000 0.65580  0.50740  0.03820  Biso   1.000  C
  C133     1.0000 0.94490  0.56850  0.15240  Biso   1.000  C
  C134     1.0000 0.93860  0.64720  0.12600  Biso   1.000  C
  H67      1.0000 0.88830  0.66960  0.10530  Biso   1.000  H
  C135     1.0000 0.00890  0.68900  0.13210  Biso   1.000  C
  C136     1.0000 0.08400  0.65200  0.16310  Biso   1.000  C
  H68      1.0000 0.13270  0.67780  0.16600  Biso   1.000  H
  C137     1.0000 0.08330  0.57670  0.18900  Biso   1.000  C
  H69      1.0000 0.13270  0.55290  0.21040  Biso   1.000  H
  C138     1.0000 0.00340  0.77270  0.10860  Biso   1.000  C
  C139     1.0000 0.03290  0.34570  0.13560  Biso   1.000  C
  H70      1.0000 0.04180  0.39550  0.11950  Biso   1.000  H
  C140     1.0000 0.03170  0.28020  0.09670  Biso   1.000  C
  H71      1.0000 0.04160  0.28490  0.05620  Biso   1.000  H
  C141     1.0000 0.01560  0.20780  0.11950  Biso   1.000  C
  C142     1.0000 0.00350  0.20090  0.17950  Biso   1.000  C
  H72      1.0000 0.99360  0.15130  0.19530  Biso   1.000  H
  C143     1.0000 0.00610  0.27030  0.21740  Biso   1.000  C
  C144     1.0000 0.01150  0.13140  0.07670  Biso   1.000  C
  N22      1.0000 0.87900  0.45640  0.18460  Biso   1.000  N
  N23      1.0000 0.01520  0.53600  0.18490  Biso   1.000  N
  N24      1.0000 0.02210  0.34210  0.19500  Biso   1.000  N
  O43      1.0000 0.65910  0.55620  0.99560  Biso   1.000  O
  O44      1.0000 0.58990  0.47330  0.03840  Biso   1.000  O
  O45      1.0000 0.03260  0.13950  0.02570  Biso   1.000  O
  O46      1.0000 0.98950  0.07040  0.09810  Biso   1.000  O
  O47      1.0000 0.93540  0.80750  0.09710  Biso   1.000  O
  O48      1.0000 0.06470  0.80800  0.10160  Biso   1.000  O
  Zn1      1.0000 0.50000  0.05995  0.75000  Biso   1.000  Zn
  Zn2      1.0000 0.00000  0.55995  0.75000  Biso   1.000  Zn
  Zn3      1.0000 0.50000  0.94005  0.25000  Biso   1.000  Zn
  Zn4      1.0000 0.00000  0.44005  0.25000  Biso   1.000  Zn
