data_image0
_cell_length_a       8.523
_cell_length_b       28.628
_cell_length_c       9.306
_cell_angle_alpha    90
_cell_angle_beta     96.497
_cell_angle_gamma    90

_symmetry_space_group_name_H-M    "P 1"
_symmetry_int_tables_number       1

loop_
  _symmetry_equiv_pos_as_xyz
  'x, y, z'

loop_
  _atom_site_label
  _atom_site_occupancy
  _atom_site_fract_x
  _atom_site_fract_y
  _atom_site_fract_z
  _atom_site_thermal_displace_type
  _atom_site_B_iso_or_equiv
  _atom_site_type_symbol
  C1       1.0000 0.23310  0.24424  0.60210  Biso   1.000  C
  C2       1.0000 0.38790  0.26479  0.67780  Biso   1.000  C
  C3       1.0000 0.03340  0.02549  0.50510  Biso   1.000  C
  C4       1.0000 0.03310  0.02505  0.00010  Biso   1.000  C
  O1       1.0000 0.17400  0.21034  0.66160  Biso   1.000  O
  O2       1.0000 0.43500  0.24997  0.80040  Biso   1.000  O
  O3       1.0000 0.17330  0.26405  0.48790  Biso   1.000  O
  O4       1.0000 0.45400  0.29508  0.60810  Biso   1.000  O
  O5       1.0000 0.12120  0.03761  0.41300  Biso   1.000  O
  O6       1.0000 0.14540  0.03445  0.09360  Biso   1.000  O
  O7       1.0000 0.98830  0.05059  0.60450  Biso   1.000  O
  O8       1.0000 0.96780  0.05261  0.90730  Biso   1.000  O
  O9       1.0000 0.44870  0.03309  0.64600  Biso   1.000  O
  O10      1.0000 0.55510  0.95960  0.71480  Biso   1.000  O
  O11      1.0000 0.31630  0.96229  0.54750  Biso   1.000  O
  O12      1.0000 0.30280  0.98262  0.79310  Biso   1.000  O
  O13      1.0000 0.59390  0.14764  0.89560  Biso   1.000  O
  O14      1.0000 0.49870  0.16504  0.65400  Biso   1.000  O
  O15      1.0000 0.76500  0.18906  0.74810  Biso   1.000  O
  O16      1.0000 0.71050  0.10822  0.70470  Biso   1.000  O
  S1       1.0000 0.40176  0.98418  0.67652  Biso   1.000  S
  S2       1.0000 0.64471  0.15272  0.74903  Biso   1.000  S
  Nd1      1.0000 0.74752  0.02480  0.71568  Biso   1.000  Nd
  Nd2      1.0000 0.31929  0.17387  0.87168  Biso   1.000  Nd
  C5       1.0000 0.76690  0.74424  0.89790  Biso   1.000  C
  C6       1.0000 0.61210  0.76479  0.82220  Biso   1.000  C
  C7       1.0000 0.96660  0.52549  0.99490  Biso   1.000  C
  C8       1.0000 0.96690  0.52505  0.49990  Biso   1.000  C
  O17      1.0000 0.82600  0.71034  0.83840  Biso   1.000  O
  O18      1.0000 0.56500  0.74997  0.69960  Biso   1.000  O
  O19      1.0000 0.82670  0.76405  0.01210  Biso   1.000  O
  O20      1.0000 0.54600  0.79508  0.89190  Biso   1.000  O
  O21      1.0000 0.87880  0.53761  0.08700  Biso   1.000  O
  O22      1.0000 0.85460  0.53445  0.40640  Biso   1.000  O
  O23      1.0000 0.01170  0.55059  0.89550  Biso   1.000  O
  O24      1.0000 0.03220  0.55261  0.59270  Biso   1.000  O
  O25      1.0000 0.55130  0.53309  0.85400  Biso   1.000  O
  O26      1.0000 0.44490  0.45960  0.78520  Biso   1.000  O
  O27      1.0000 0.68370  0.46229  0.95250  Biso   1.000  O
  O28      1.0000 0.69720  0.48262  0.70690  Biso   1.000  O
  O29      1.0000 0.40610  0.64764  0.60440  Biso   1.000  O
  O30      1.0000 0.50130  0.66504  0.84600  Biso   1.000  O
  O31      1.0000 0.23500  0.68906  0.75190  Biso   1.000  O
  O32      1.0000 0.28950  0.60822  0.79530  Biso   1.000  O
  S3       1.0000 0.59824  0.48418  0.82348  Biso   1.000  S
  S4       1.0000 0.35529  0.65272  0.75097  Biso   1.000  S
  Nd3      1.0000 0.25248  0.52480  0.78432  Biso   1.000  Nd
  Nd4      1.0000 0.68071  0.67387  0.62832  Biso   1.000  Nd
  C9       1.0000 0.76690  0.75576  0.39790  Biso   1.000  C
  C10      1.0000 0.61210  0.73521  0.32220  Biso   1.000  C
  C11      1.0000 0.96660  0.97451  0.49490  Biso   1.000  C
  C12      1.0000 0.96690  0.97495  0.99990  Biso   1.000  C
  O33      1.0000 0.82600  0.78966  0.33840  Biso   1.000  O
  O34      1.0000 0.56500  0.75003  0.19960  Biso   1.000  O
  O35      1.0000 0.82670  0.73595  0.51210  Biso   1.000  O
  O36      1.0000 0.54600  0.70492  0.39190  Biso   1.000  O
  O37      1.0000 0.87880  0.96239  0.58700  Biso   1.000  O
  O38      1.0000 0.85460  0.96555  0.90640  Biso   1.000  O
  O39      1.0000 0.01170  0.94941  0.39550  Biso   1.000  O
  O40      1.0000 0.03220  0.94739  0.09270  Biso   1.000  O
  O41      1.0000 0.55130  0.96691  0.35400  Biso   1.000  O
  O42      1.0000 0.44490  0.04040  0.28520  Biso   1.000  O
  O43      1.0000 0.68370  0.03771  0.45250  Biso   1.000  O
  O44      1.0000 0.69720  0.01738  0.20690  Biso   1.000  O
  O45      1.0000 0.40610  0.85236  0.10440  Biso   1.000  O
  O46      1.0000 0.50130  0.83496  0.34600  Biso   1.000  O
  O47      1.0000 0.23500  0.81094  0.25190  Biso   1.000  O
  O48      1.0000 0.28950  0.89178  0.29530  Biso   1.000  O
  S5       1.0000 0.59824  0.01582  0.32348  Biso   1.000  S
  S6       1.0000 0.35529  0.84728  0.25097  Biso   1.000  S
  Nd5      1.0000 0.25248  0.97520  0.28432  Biso   1.000  Nd
  Nd6      1.0000 0.68071  0.82613  0.12832  Biso   1.000  Nd
  C13      1.0000 0.23310  0.25576  0.10210  Biso   1.000  C
  C14      1.0000 0.38790  0.23521  0.17780  Biso   1.000  C
  C15      1.0000 0.03340  0.47451  0.00510  Biso   1.000  C
  C16      1.0000 0.03310  0.47495  0.50010  Biso   1.000  C
  O49      1.0000 0.17400  0.28966  0.16160  Biso   1.000  O
  O50      1.0000 0.43500  0.25003  0.30040  Biso   1.000  O
  O51      1.0000 0.17330  0.23595  0.98790  Biso   1.000  O
  O52      1.0000 0.45400  0.20492  0.10810  Biso   1.000  O
  O53      1.0000 0.12120  0.46239  0.91300  Biso   1.000  O
  O54      1.0000 0.14540  0.46555  0.59360  Biso   1.000  O
  O55      1.0000 0.98830  0.44941  0.10450  Biso   1.000  O
  O56      1.0000 0.96780  0.44739  0.40730  Biso   1.000  O
  O57      1.0000 0.44870  0.46691  0.14600  Biso   1.000  O
  O58      1.0000 0.55510  0.54040  0.21480  Biso   1.000  O
  O59      1.0000 0.31630  0.53771  0.04750  Biso   1.000  O
  O60      1.0000 0.30280  0.51738  0.29310  Biso   1.000  O
  O61      1.0000 0.59390  0.35236  0.39560  Biso   1.000  O
  O62      1.0000 0.49870  0.33496  0.15400  Biso   1.000  O
  O63      1.0000 0.76500  0.31094  0.24810  Biso   1.000  O
  O64      1.0000 0.71050  0.39178  0.20470  Biso   1.000  O
  S7       1.0000 0.40176  0.51582  0.17652  Biso   1.000  S
  S8       1.0000 0.64471  0.34728  0.24903  Biso   1.000  S
  Nd7      1.0000 0.74752  0.47520  0.21568  Biso   1.000  Nd
  Nd8      1.0000 0.31929  0.32613  0.37168  Biso   1.000  Nd
