data_MOXNUJ_clean
_audit_creation_date              2014-07-02
_audit_creation_method            'Materials Studio'
_symmetry_space_group_name_H-M    'P1'
_symmetry_Int_Tables_number       1
_symmetry_cell_setting            triclinic
loop_
_symmetry_equiv_pos_as_xyz
  x,y,z
_cell_length_a                    9.8040
_cell_length_b                    16.8386
_cell_length_c                    16.8386
_cell_angle_alpha                 85.1384
_cell_angle_beta                  73.0752
_cell_angle_gamma                 73.0753
loop_
_atom_site_label
_atom_site_type_symbol
_atom_site_fract_x
_atom_site_fract_y
_atom_site_fract_z
_atom_site_U_iso_or_equiv
_atom_site_adp_type
_atom_site_occupancy
Cu1    Cu    0.00000   0.50000   0.50000   0.01267  Uiso   1.00
Cu2    Cu    0.50000   0.00000   0.00000   0.01267  Uiso   1.00
Cu3    Cu    0.50000   0.50000   0.00000   0.01267  Uiso   1.00
Cu4    Cu    0.50000   0.00000   0.50000   0.01267  Uiso   1.00
H1     H     0.27570   0.52080   0.38520   0.01267  Uiso   1.00
H2     H     0.51420   0.44640   0.32340   0.01267  Uiso   1.00
H3     H     0.40670   0.24130   0.42190   0.01267  Uiso   1.00
H4     H     0.16960   0.32200   0.47620   0.01267  Uiso   1.00
H5     H     0.69810   0.34890   0.23670   0.01267  Uiso   1.00
H6     H     0.75460   0.36110   0.31210   0.01267  Uiso   1.00
H7     H     0.68170   0.97920   0.11480   0.01267  Uiso   1.00
H8     H     0.78400   0.05360   0.17660   0.01267  Uiso   1.00
H9     H     0.56990   0.25870   0.07810   0.01267  Uiso   1.00
H10    H     0.46780   0.17800   0.02380   0.01267  Uiso   1.00
H11    H     0.78370   0.15110   0.26330   0.01267  Uiso   1.00
H12    H     0.92780   0.13890   0.18790   0.01267  Uiso   1.00
H13    H     0.66090   0.61480   0.02080   0.01267  Uiso   1.00
H14    H     0.83760   0.67660   0.94640   0.01267  Uiso   1.00
H15    H     0.82860   0.57810   0.74130   0.01267  Uiso   1.00
H16    H     0.64580   0.52380   0.82200   0.01267  Uiso   1.00
H17    H     0.93480   0.76330   0.84890   0.01267  Uiso   1.00
H18    H     0.06670   0.68790   0.86110   0.01267  Uiso   1.00
H19    H     0.79650   0.88520   0.47920   0.01267  Uiso   1.00
H20    H     0.96060   0.82340   0.55360   0.01267  Uiso   1.00
H21    H     0.64800   0.92190   0.75870   0.01267  Uiso   1.00
H22    H     0.49160   0.97620   0.67800   0.01267  Uiso   1.00
H23    H     0.04700   0.73670   0.65110   0.01267  Uiso   1.00
H24    H     0.11570   0.81210   0.63890   0.01267  Uiso   1.00
H25    H     0.72430   0.47920   0.61480   0.01267  Uiso   1.00
H26    H     0.48580   0.55360   0.67660   0.01267  Uiso   1.00
H27    H     0.59330   0.75870   0.57810   0.01267  Uiso   1.00
H28    H     0.83040   0.67800   0.52380   0.01267  Uiso   1.00
H29    H     0.30190   0.65110   0.76330   0.01267  Uiso   1.00
H30    H     0.24540   0.63890   0.68790   0.01267  Uiso   1.00
H31    H     0.31830   0.02080   0.88520   0.01267  Uiso   1.00
H32    H     0.21600   0.94640   0.82340   0.01267  Uiso   1.00
H33    H     0.43010   0.74130   0.92190   0.01267  Uiso   1.00
H34    H     0.53220   0.82200   0.97620   0.01267  Uiso   1.00
H35    H     0.21630   0.84890   0.73670   0.01267  Uiso   1.00
H36    H     0.07220   0.86110   0.81210   0.01267  Uiso   1.00
H37    H     0.33910   0.38520   0.97920   0.01267  Uiso   1.00
H38    H     0.16240   0.32340   0.05360   0.01267  Uiso   1.00
H39    H     0.17140   0.42190   0.25870   0.01267  Uiso   1.00
H40    H     0.35420   0.47620   0.17800   0.01267  Uiso   1.00
H41    H     0.06520   0.23670   0.15110   0.01267  Uiso   1.00
H42    H     0.93330   0.31210   0.13890   0.01267  Uiso   1.00
H43    H     0.20350   0.11480   0.52080   0.01267  Uiso   1.00
H44    H     0.03940   0.17660   0.44640   0.01267  Uiso   1.00
H45    H     0.35200   0.07810   0.24130   0.01267  Uiso   1.00
H46    H     0.50840   0.02380   0.32200   0.01267  Uiso   1.00
H47    H     0.95300   0.26330   0.34890   0.01267  Uiso   1.00
H48    H     0.88430   0.18790   0.36110   0.01267  Uiso   1.00
C1     C     0.30319   0.46365   0.39281   0.01267  Uiso   1.00
C2     C     0.44628   0.41972   0.35600   0.01267  Uiso   1.00
C3     C     0.48752   0.33608   0.36786   0.01267  Uiso   1.00
C4     C     0.38246   0.29848   0.41364   0.01267  Uiso   1.00
C5     C     0.24146   0.34748   0.44664   0.01267  Uiso   1.00
C6     C     0.73416   0.32091   0.28247   0.01267  Uiso   1.00
C7     C     0.65965   0.03635   0.10719   0.01267  Uiso   1.00
C8     C     0.72200   0.08028   0.14400   0.01267  Uiso   1.00
C9     C     0.69146   0.16392   0.13214   0.01267  Uiso   1.00
C10    C     0.59458   0.20152   0.08636   0.01267  Uiso   1.00
C11    C     0.53558   0.15252   0.05336   0.01267  Uiso   1.00
C12    C     0.83754   0.17909   0.21753   0.01267  Uiso   1.00
C13    C     0.69600   0.60719   0.96365   0.01267  Uiso   1.00
C14    C     0.80228   0.64400   0.91972   0.01267  Uiso   1.00
C15    C     0.85538   0.63214   0.83608   0.01267  Uiso   1.00
C16    C     0.79610   0.58636   0.79848   0.01267  Uiso   1.00
C17    C     0.68810   0.55336   0.84748   0.01267  Uiso   1.00
C18    C     0.01663   0.71753   0.82091   0.01267  Uiso   1.00
C19    C     0.76684   0.89281   0.53635   0.01267  Uiso   1.00
C20    C     0.86600   0.85600   0.58028   0.01267  Uiso   1.00
C21    C     0.82360   0.86786   0.66392   0.01267  Uiso   1.00
C22    C     0.68094   0.91364   0.70152   0.01267  Uiso   1.00
C23    C     0.58894   0.94664   0.65252   0.01267  Uiso   1.00
C24    C     0.05507   0.78247   0.67909   0.01267  Uiso   1.00
C25    C     0.69681   0.53635   0.60719   0.01267  Uiso   1.00
C26    C     0.55372   0.58028   0.64400   0.01267  Uiso   1.00
C27    C     0.51248   0.66392   0.63214   0.01267  Uiso   1.00
C28    C     0.61754   0.70152   0.58636   0.01267  Uiso   1.00
C29    C     0.75854   0.65252   0.55336   0.01267  Uiso   1.00
C30    C     0.26584   0.67909   0.71753   0.01267  Uiso   1.00
C31    C     0.34035   0.96365   0.89281   0.01267  Uiso   1.00
C32    C     0.27800   0.91972   0.85600   0.01267  Uiso   1.00
C33    C     0.30854   0.83608   0.86786   0.01267  Uiso   1.00
C34    C     0.40542   0.79848   0.91364   0.01267  Uiso   1.00
C35    C     0.46442   0.84748   0.94664   0.01267  Uiso   1.00
C36    C     0.16246   0.82091   0.78247   0.01267  Uiso   1.00
C37    C     0.30400   0.39281   0.03635   0.01267  Uiso   1.00
C38    C     0.19772   0.35600   0.08028   0.01267  Uiso   1.00
C39    C     0.14462   0.36786   0.16392   0.01267  Uiso   1.00
C40    C     0.20390   0.41364   0.20152   0.01267  Uiso   1.00
C41    C     0.31190   0.44664   0.15252   0.01267  Uiso   1.00
C42    C     0.98337   0.28247   0.17909   0.01267  Uiso   1.00
C43    C     0.23316   0.10719   0.46365   0.01267  Uiso   1.00
C44    C     0.13400   0.14400   0.41972   0.01267  Uiso   1.00
C45    C     0.17640   0.13214   0.33608   0.01267  Uiso   1.00
C46    C     0.31906   0.08636   0.29848   0.01267  Uiso   1.00
C47    C     0.41106   0.05336   0.34748   0.01267  Uiso   1.00
C48    C     0.94493   0.21753   0.32091   0.01267  Uiso   1.00
C49    C     0.87500   0.25000   0.25000   0.01267  Uiso   1.00
C50    C     0.12500   0.75000   0.75000   0.01267  Uiso   1.00
N1     N     0.20209   0.42860   0.43878   0.01267  Uiso   1.00
N2     N     0.56947   0.07140   0.06122   0.01267  Uiso   1.00
N3     N     0.64087   0.56122   0.92860   0.01267  Uiso   1.00
N4     N     0.63069   0.93878   0.57140   0.01267  Uiso   1.00
N5     N     0.79791   0.57140   0.56122   0.01267  Uiso   1.00
N6     N     0.43053   0.92860   0.93878   0.01267  Uiso   1.00
N7     N     0.35913   0.43878   0.07140   0.01267  Uiso   1.00
N8     N     0.36931   0.06122   0.42860   0.01267  Uiso   1.00
O1     O     0.62580   0.28509   0.33711   0.01267  Uiso   1.00
O2     O     0.74800   0.21491   0.16289   0.01267  Uiso   1.00
O3     O     0.96291   0.66289   0.78509   0.01267  Uiso   1.00
O4     O     0.91089   0.83711   0.71491   0.01267  Uiso   1.00
O5     O     0.37420   0.71491   0.66289   0.01267  Uiso   1.00
O6     O     0.25200   0.78509   0.83711   0.01267  Uiso   1.00
O7     O     0.03709   0.33711   0.21491   0.01267  Uiso   1.00
O8     O     0.08911   0.16289   0.28509   0.01267  Uiso   1.00
