data_MOXPIZ_charged
_audit_creation_date              2014-07-02
_audit_creation_method            'Materials Studio'
_symmetry_space_group_name_H-M    'P1'
_symmetry_Int_Tables_number       1
_symmetry_cell_setting            triclinic
loop_
_symmetry_equiv_pos_as_xyz
  x,y,z
_cell_length_a                    15.0310
_cell_length_b                    39.9520
_cell_length_c                    16.2530
_cell_angle_alpha                 90.0000
_cell_angle_beta                  90.0000
_cell_angle_gamma                 90.0000
loop_
_atom_site_label
_atom_site_type_symbol
_atom_site_fract_x
_atom_site_fract_y
_atom_site_fract_z
_atom_site_U_iso_or_equiv
_atom_site_adp_type
_atom_site_occupancy
Cu1    Cu    0.75000   0.25000   0.50000   0.01267  Uiso   1.00
Cu2    Cu    0.25000   0.75000   0.00000   0.01267  Uiso   1.00
H1     H     0.40050   0.59510   0.38040   0.01267  Uiso   1.00
H2     H     0.38490   0.64050   0.29380   0.01267  Uiso   1.00
H3     H     0.14330   0.61130   0.23370   0.01267  Uiso   1.00
H4     H     0.15550   0.56480   0.31590   0.01267  Uiso   1.00
H5     H     0.35840   0.68820   0.24390   0.01267  Uiso   1.00
H6     H     0.20950   0.51280   0.37960   0.01267  Uiso   1.00
H7     H     0.16970   0.54010   0.44060   0.01267  Uiso   1.00
H8     H     0.34740   0.73030   0.14870   0.01267  Uiso   1.00
H9     H     0.14600   0.68910   0.04400   0.01267  Uiso   1.00
H10    H     0.15230   0.64410   0.13400   0.01267  Uiso   1.00
H11    H     0.18450   0.47150   0.57460   0.01267  Uiso   1.00
H12    H     0.11810   0.49700   0.53130   0.01267  Uiso   1.00
H13    H     0.04770   0.44570   0.57680   0.01267  Uiso   1.00
H14    H     0.96750   0.39690   0.59370   0.01267  Uiso   1.00
H15    H     0.07330   0.36140   0.38400   0.01267  Uiso   1.00
H16    H     0.15420   0.40970   0.37060   0.01267  Uiso   1.00
H17    H     0.88150   0.35760   0.59260   0.01267  Uiso   1.00
H18    H     0.79120   0.31070   0.59940   0.01267  Uiso   1.00
H19    H     0.91700   0.27100   0.41150   0.01267  Uiso   1.00
H20    H     0.00910   0.31660   0.40230   0.01267  Uiso   1.00
H21    H     0.09950   0.90490   0.38040   0.01267  Uiso   1.00
H22    H     0.11510   0.85950   0.29380   0.01267  Uiso   1.00
H23    H     0.35670   0.88870   0.23370   0.01267  Uiso   1.00
H24    H     0.34450   0.93520   0.31590   0.01267  Uiso   1.00
H25    H     0.14160   0.81180   0.24390   0.01267  Uiso   1.00
H26    H     0.29050   0.98720   0.37960   0.01267  Uiso   1.00
H27    H     0.33030   0.95990   0.44060   0.01267  Uiso   1.00
H28    H     0.15260   0.76970   0.14870   0.01267  Uiso   1.00
H29    H     0.35400   0.81090   0.04400   0.01267  Uiso   1.00
H30    H     0.34770   0.85590   0.13400   0.01267  Uiso   1.00
H31    H     0.31550   0.02850   0.57460   0.01267  Uiso   1.00
H32    H     0.38190   0.00300   0.53130   0.01267  Uiso   1.00
H33    H     0.45230   0.05430   0.57680   0.01267  Uiso   1.00
H34    H     0.53250   0.10310   0.59370   0.01267  Uiso   1.00
H35    H     0.42670   0.13860   0.38400   0.01267  Uiso   1.00
H36    H     0.34580   0.09030   0.37060   0.01267  Uiso   1.00
H37    H     0.61850   0.14240   0.59260   0.01267  Uiso   1.00
H38    H     0.70880   0.18930   0.59940   0.01267  Uiso   1.00
H39    H     0.58300   0.22900   0.41150   0.01267  Uiso   1.00
H40    H     0.49090   0.18340   0.40230   0.01267  Uiso   1.00
H41    H     0.40050   0.90490   0.61960   0.01267  Uiso   1.00
H42    H     0.38490   0.85950   0.70620   0.01267  Uiso   1.00
H43    H     0.14330   0.88870   0.76630   0.01267  Uiso   1.00
H44    H     0.15550   0.93520   0.68410   0.01267  Uiso   1.00
H45    H     0.35840   0.81180   0.75610   0.01267  Uiso   1.00
H46    H     0.20950   0.98720   0.62040   0.01267  Uiso   1.00
H47    H     0.16970   0.95990   0.55940   0.01267  Uiso   1.00
H48    H     0.34740   0.76970   0.85130   0.01267  Uiso   1.00
H49    H     0.14600   0.81090   0.95600   0.01267  Uiso   1.00
H50    H     0.15230   0.85590   0.86600   0.01267  Uiso   1.00
H51    H     0.18450   0.02850   0.42540   0.01267  Uiso   1.00
H52    H     0.11810   0.00300   0.46870   0.01267  Uiso   1.00
H53    H     0.04770   0.05430   0.42320   0.01267  Uiso   1.00
H54    H     0.96750   0.10310   0.40630   0.01267  Uiso   1.00
H55    H     0.07330   0.13860   0.61600   0.01267  Uiso   1.00
H56    H     0.15420   0.09030   0.62940   0.01267  Uiso   1.00
H57    H     0.88150   0.14240   0.40740   0.01267  Uiso   1.00
H58    H     0.79120   0.18930   0.40060   0.01267  Uiso   1.00
H59    H     0.91700   0.22900   0.58850   0.01267  Uiso   1.00
H60    H     0.00910   0.18340   0.59770   0.01267  Uiso   1.00
H61    H     0.09950   0.59510   0.61960   0.01267  Uiso   1.00
H62    H     0.11510   0.64050   0.70620   0.01267  Uiso   1.00
H63    H     0.35670   0.61130   0.76630   0.01267  Uiso   1.00
H64    H     0.34450   0.56480   0.68410   0.01267  Uiso   1.00
H65    H     0.14160   0.68820   0.75610   0.01267  Uiso   1.00
H66    H     0.29050   0.51280   0.62040   0.01267  Uiso   1.00
H67    H     0.33030   0.54010   0.55940   0.01267  Uiso   1.00
H68    H     0.15260   0.73030   0.85130   0.01267  Uiso   1.00
H69    H     0.35400   0.68910   0.95600   0.01267  Uiso   1.00
H70    H     0.34770   0.64410   0.86600   0.01267  Uiso   1.00
H71    H     0.31550   0.47150   0.42540   0.01267  Uiso   1.00
H72    H     0.38190   0.49700   0.46870   0.01267  Uiso   1.00
H73    H     0.45230   0.44570   0.42320   0.01267  Uiso   1.00
H74    H     0.53250   0.39690   0.40630   0.01267  Uiso   1.00
H75    H     0.42670   0.36140   0.61600   0.01267  Uiso   1.00
H76    H     0.34580   0.40970   0.62940   0.01267  Uiso   1.00
H77    H     0.61850   0.35760   0.40740   0.01267  Uiso   1.00
H78    H     0.70880   0.31070   0.40060   0.01267  Uiso   1.00
H79    H     0.58300   0.27100   0.58850   0.01267  Uiso   1.00
H80    H     0.49090   0.31660   0.59770   0.01267  Uiso   1.00
C1     C     0.27970   0.57540   0.35760   0.01267  Uiso   1.00
C2     C     0.34750   0.59800   0.35050   0.01267  Uiso   1.00
C3     C     0.33730   0.62540   0.29870   0.01267  Uiso   1.00
C4     C     0.26240   0.63150   0.25490   0.01267  Uiso   1.00
C5     C     0.19630   0.60810   0.26350   0.01267  Uiso   1.00
C6     C     0.20260   0.58020   0.31270   0.01267  Uiso   1.00
C7     C     0.25660   0.66010   0.19980   0.01267  Uiso   1.00
C8     C     0.31430   0.68710   0.20300   0.01267  Uiso   1.00
C9     C     0.22300   0.52710   0.42710   0.01267  Uiso   1.00
C10    C     0.30640   0.71250   0.14530   0.01267  Uiso   1.00
C11    C     0.19070   0.68880   0.08440   0.01267  Uiso   1.00
C12    C     0.19390   0.66160   0.13920   0.01267  Uiso   1.00
C13    C     0.17180   0.48350   0.52330   0.01267  Uiso   1.00
C14    C     0.10990   0.43240   0.47340   0.01267  Uiso   1.00
C15    C     0.05380   0.42840   0.53800   0.01267  Uiso   1.00
C16    C     0.00520   0.39920   0.54790   0.01267  Uiso   1.00
C17    C     0.01160   0.37300   0.49030   0.01267  Uiso   1.00
C18    C     0.06790   0.37810   0.42430   0.01267  Uiso   1.00
C19    C     0.11620   0.40710   0.41610   0.01267  Uiso   1.00
C20    C     0.95470   0.34270   0.49830   0.01267  Uiso   1.00
C21    C     0.89020   0.34010   0.55480   0.01267  Uiso   1.00
C22    C     0.83550   0.31190   0.55870   0.01267  Uiso   1.00
C23    C     0.90940   0.28870   0.44880   0.01267  Uiso   1.00
C24    C     0.96470   0.31590   0.44300   0.01267  Uiso   1.00
C25    C     0.22030   0.92460   0.35760   0.01267  Uiso   1.00
C26    C     0.15250   0.90200   0.35050   0.01267  Uiso   1.00
C27    C     0.16270   0.87460   0.29870   0.01267  Uiso   1.00
C28    C     0.23760   0.86850   0.25490   0.01267  Uiso   1.00
C29    C     0.30370   0.89190   0.26350   0.01267  Uiso   1.00
C30    C     0.29740   0.91980   0.31270   0.01267  Uiso   1.00
C31    C     0.24340   0.83990   0.19980   0.01267  Uiso   1.00
C32    C     0.18570   0.81290   0.20300   0.01267  Uiso   1.00
C33    C     0.27700   0.97290   0.42710   0.01267  Uiso   1.00
C34    C     0.19360   0.78750   0.14530   0.01267  Uiso   1.00
C35    C     0.30930   0.81120   0.08440   0.01267  Uiso   1.00
C36    C     0.30610   0.83840   0.13920   0.01267  Uiso   1.00
C37    C     0.32820   0.01650   0.52330   0.01267  Uiso   1.00
C38    C     0.39010   0.06760   0.47340   0.01267  Uiso   1.00
C39    C     0.44620   0.07160   0.53800   0.01267  Uiso   1.00
C40    C     0.49480   0.10080   0.54790   0.01267  Uiso   1.00
C41    C     0.48840   0.12700   0.49030   0.01267  Uiso   1.00
C42    C     0.43210   0.12190   0.42430   0.01267  Uiso   1.00
C43    C     0.38380   0.09290   0.41610   0.01267  Uiso   1.00
C44    C     0.54530   0.15730   0.49830   0.01267  Uiso   1.00
C45    C     0.60980   0.15990   0.55480   0.01267  Uiso   1.00
C46    C     0.66450   0.18810   0.55870   0.01267  Uiso   1.00
C47    C     0.59060   0.21130   0.44880   0.01267  Uiso   1.00
C48    C     0.53530   0.18410   0.44300   0.01267  Uiso   1.00
C49    C     0.27970   0.92460   0.64240   0.01267  Uiso   1.00
C50    C     0.34750   0.90200   0.64950   0.01267  Uiso   1.00
C51    C     0.33730   0.87460   0.70130   0.01267  Uiso   1.00
C52    C     0.26240   0.86850   0.74510   0.01267  Uiso   1.00
C53    C     0.19630   0.89190   0.73650   0.01267  Uiso   1.00
C54    C     0.20260   0.91980   0.68730   0.01267  Uiso   1.00
C55    C     0.25660   0.83990   0.80020   0.01267  Uiso   1.00
C56    C     0.31430   0.81290   0.79700   0.01267  Uiso   1.00
C57    C     0.22300   0.97290   0.57290   0.01267  Uiso   1.00
C58    C     0.30640   0.78750   0.85470   0.01267  Uiso   1.00
C59    C     0.19070   0.81120   0.91560   0.01267  Uiso   1.00
C60    C     0.19390   0.83840   0.86080   0.01267  Uiso   1.00
C61    C     0.17180   0.01650   0.47670   0.01267  Uiso   1.00
C62    C     0.10990   0.06760   0.52660   0.01267  Uiso   1.00
C63    C     0.05380   0.07160   0.46200   0.01267  Uiso   1.00
C64    C     0.00520   0.10080   0.45210   0.01267  Uiso   1.00
C65    C     0.01160   0.12700   0.50970   0.01267  Uiso   1.00
C66    C     0.06790   0.12190   0.57570   0.01267  Uiso   1.00
C67    C     0.11620   0.09290   0.58390   0.01267  Uiso   1.00
C68    C     0.95470   0.15730   0.50170   0.01267  Uiso   1.00
C69    C     0.89020   0.15990   0.44520   0.01267  Uiso   1.00
C70    C     0.83550   0.18810   0.44130   0.01267  Uiso   1.00
C71    C     0.90940   0.21130   0.55120   0.01267  Uiso   1.00
C72    C     0.96470   0.18410   0.55700   0.01267  Uiso   1.00
C73    C     0.22030   0.57540   0.64240   0.01267  Uiso   1.00
C74    C     0.15250   0.59800   0.64950   0.01267  Uiso   1.00
C75    C     0.16270   0.62540   0.70130   0.01267  Uiso   1.00
C76    C     0.23760   0.63150   0.74510   0.01267  Uiso   1.00
C77    C     0.30370   0.60810   0.73650   0.01267  Uiso   1.00
C78    C     0.29740   0.58020   0.68730   0.01267  Uiso   1.00
C79    C     0.24340   0.66010   0.80020   0.01267  Uiso   1.00
C80    C     0.18570   0.68710   0.79700   0.01267  Uiso   1.00
C81    C     0.27700   0.52710   0.57290   0.01267  Uiso   1.00
C82    C     0.19360   0.71250   0.85470   0.01267  Uiso   1.00
C83    C     0.30930   0.68880   0.91560   0.01267  Uiso   1.00
C84    C     0.30610   0.66160   0.86080   0.01267  Uiso   1.00
C85    C     0.32820   0.48350   0.47670   0.01267  Uiso   1.00
C86    C     0.39010   0.43240   0.52660   0.01267  Uiso   1.00
C87    C     0.44620   0.42840   0.46200   0.01267  Uiso   1.00
C88    C     0.49480   0.39920   0.45210   0.01267  Uiso   1.00
C89    C     0.48840   0.37300   0.50970   0.01267  Uiso   1.00
C90    C     0.43210   0.37810   0.57570   0.01267  Uiso   1.00
C91    C     0.38380   0.40710   0.58390   0.01267  Uiso   1.00
C92    C     0.54530   0.34270   0.50170   0.01267  Uiso   1.00
C93    C     0.60980   0.34010   0.44520   0.01267  Uiso   1.00
C94    C     0.66450   0.31190   0.44130   0.01267  Uiso   1.00
C95    C     0.59060   0.28870   0.55120   0.01267  Uiso   1.00
C96    C     0.53530   0.31590   0.55700   0.01267  Uiso   1.00
C97    C     0.25000   0.50570   0.50000   0.01267  Uiso   1.00
C98    C     0.25000   0.99430   0.50000   0.01267  Uiso   1.00
N1     N     0.24740   0.71400   0.08690   0.01267  Uiso   1.00
N2     N     0.84490   0.28640   0.50540   0.01267  Uiso   1.00
N3     N     0.25260   0.78600   0.08690   0.01267  Uiso   1.00
N4     N     0.65510   0.21360   0.50540   0.01267  Uiso   1.00
N5     N     0.24740   0.78600   0.91310   0.01267  Uiso   1.00
N6     N     0.84490   0.21360   0.49460   0.01267  Uiso   1.00
N7     N     0.25260   0.71400   0.91310   0.01267  Uiso   1.00
N8     N     0.65510   0.28640   0.49460   0.01267  Uiso   1.00
O1     O     0.15890   0.46030   0.45730   0.01267  Uiso   1.00
O2     O     0.29460   0.54900   0.40790   0.01267  Uiso   1.00
O3     O     0.34110   0.03970   0.45730   0.01267  Uiso   1.00
O4     O     0.20540   0.95100   0.40790   0.01267  Uiso   1.00
O5     O     0.15890   0.03970   0.54270   0.01267  Uiso   1.00
O6     O     0.29460   0.95100   0.59210   0.01267  Uiso   1.00
O7     O     0.34110   0.46030   0.54270   0.01267  Uiso   1.00
O8     O     0.20540   0.54900   0.59210   0.01267  Uiso   1.00
Cu3    Cu    0.25000   0.75000   0.50000   0.01267  Uiso   1.00
Cu4    Cu    0.75000   0.25000   0.00000   0.01267  Uiso   1.00
H81    H     0.59950   0.40490   0.61960   0.01267  Uiso   1.00
H82    H     0.61510   0.35950   0.70620   0.01267  Uiso   1.00
H83    H     0.85670   0.38870   0.76630   0.01267  Uiso   1.00
H84    H     0.84450   0.43520   0.68410   0.01267  Uiso   1.00
H85    H     0.64160   0.31180   0.75610   0.01267  Uiso   1.00
H86    H     0.79050   0.48720   0.62040   0.01267  Uiso   1.00
H87    H     0.83030   0.45990   0.55940   0.01267  Uiso   1.00
H88    H     0.65260   0.26970   0.85130   0.01267  Uiso   1.00
H89    H     0.85400   0.31090   0.95600   0.01267  Uiso   1.00
H90    H     0.84770   0.35590   0.86600   0.01267  Uiso   1.00
H91    H     0.81550   0.52850   0.42540   0.01267  Uiso   1.00
H92    H     0.88190   0.50300   0.46870   0.01267  Uiso   1.00
H93    H     0.95230   0.55430   0.42320   0.01267  Uiso   1.00
H94    H     0.03250   0.60310   0.40630   0.01267  Uiso   1.00
H95    H     0.92670   0.63860   0.61600   0.01267  Uiso   1.00
H96    H     0.84580   0.59030   0.62940   0.01267  Uiso   1.00
H97    H     0.11850   0.64240   0.40740   0.01267  Uiso   1.00
H98    H     0.20880   0.68930   0.40060   0.01267  Uiso   1.00
H99    H     0.08300   0.72900   0.58850   0.01267  Uiso   1.00
H100   H     0.99090   0.68340   0.59770   0.01267  Uiso   1.00
H101   H     0.90050   0.09510   0.61960   0.01267  Uiso   1.00
H102   H     0.88490   0.14050   0.70620   0.01267  Uiso   1.00
H103   H     0.64330   0.11130   0.76630   0.01267  Uiso   1.00
H104   H     0.65550   0.06480   0.68410   0.01267  Uiso   1.00
H105   H     0.85840   0.18820   0.75610   0.01267  Uiso   1.00
H106   H     0.70950   0.01280   0.62040   0.01267  Uiso   1.00
H107   H     0.66970   0.04010   0.55940   0.01267  Uiso   1.00
H108   H     0.84740   0.23030   0.85130   0.01267  Uiso   1.00
H109   H     0.64600   0.18910   0.95600   0.01267  Uiso   1.00
H110   H     0.65230   0.14410   0.86600   0.01267  Uiso   1.00
H111   H     0.68450   0.97150   0.42540   0.01267  Uiso   1.00
H112   H     0.61810   0.99700   0.46870   0.01267  Uiso   1.00
H113   H     0.54770   0.94570   0.42320   0.01267  Uiso   1.00
H114   H     0.46750   0.89690   0.40630   0.01267  Uiso   1.00
H115   H     0.57330   0.86140   0.61600   0.01267  Uiso   1.00
H116   H     0.65420   0.90970   0.62940   0.01267  Uiso   1.00
H117   H     0.38150   0.85760   0.40740   0.01267  Uiso   1.00
H118   H     0.29120   0.81070   0.40060   0.01267  Uiso   1.00
H119   H     0.41700   0.77100   0.58850   0.01267  Uiso   1.00
H120   H     0.50910   0.81660   0.59770   0.01267  Uiso   1.00
H121   H     0.59950   0.09510   0.38040   0.01267  Uiso   1.00
H122   H     0.61510   0.14050   0.29380   0.01267  Uiso   1.00
H123   H     0.85670   0.11130   0.23370   0.01267  Uiso   1.00
H124   H     0.84450   0.06480   0.31590   0.01267  Uiso   1.00
H125   H     0.64160   0.18820   0.24390   0.01267  Uiso   1.00
H126   H     0.79050   0.01280   0.37960   0.01267  Uiso   1.00
H127   H     0.83030   0.04010   0.44060   0.01267  Uiso   1.00
H128   H     0.65260   0.23030   0.14870   0.01267  Uiso   1.00
H129   H     0.85400   0.18910   0.04400   0.01267  Uiso   1.00
H130   H     0.84770   0.14410   0.13400   0.01267  Uiso   1.00
H131   H     0.81550   0.97150   0.57460   0.01267  Uiso   1.00
H132   H     0.88190   0.99700   0.53130   0.01267  Uiso   1.00
H133   H     0.95230   0.94570   0.57680   0.01267  Uiso   1.00
H134   H     0.03250   0.89690   0.59370   0.01267  Uiso   1.00
H135   H     0.92670   0.86140   0.38400   0.01267  Uiso   1.00
H136   H     0.84580   0.90970   0.37060   0.01267  Uiso   1.00
H137   H     0.11850   0.85760   0.59260   0.01267  Uiso   1.00
H138   H     0.20880   0.81070   0.59940   0.01267  Uiso   1.00
H139   H     0.08300   0.77100   0.41150   0.01267  Uiso   1.00
H140   H     0.99090   0.81660   0.40230   0.01267  Uiso   1.00
H141   H     0.90050   0.40490   0.38040   0.01267  Uiso   1.00
H142   H     0.88490   0.35950   0.29380   0.01267  Uiso   1.00
H143   H     0.64330   0.38870   0.23370   0.01267  Uiso   1.00
H144   H     0.65550   0.43520   0.31590   0.01267  Uiso   1.00
H145   H     0.85840   0.31180   0.24390   0.01267  Uiso   1.00
H146   H     0.70950   0.48720   0.37960   0.01267  Uiso   1.00
H147   H     0.66970   0.45990   0.44060   0.01267  Uiso   1.00
H148   H     0.84740   0.26970   0.14870   0.01267  Uiso   1.00
H149   H     0.64600   0.31090   0.04400   0.01267  Uiso   1.00
H150   H     0.65230   0.35590   0.13400   0.01267  Uiso   1.00
H151   H     0.68450   0.52850   0.57460   0.01267  Uiso   1.00
H152   H     0.61810   0.50300   0.53130   0.01267  Uiso   1.00
H153   H     0.54770   0.55430   0.57680   0.01267  Uiso   1.00
H154   H     0.46750   0.60310   0.59370   0.01267  Uiso   1.00
H155   H     0.57330   0.63860   0.38400   0.01267  Uiso   1.00
H156   H     0.65420   0.59030   0.37060   0.01267  Uiso   1.00
H157   H     0.38150   0.64240   0.59260   0.01267  Uiso   1.00
H158   H     0.29120   0.68930   0.59940   0.01267  Uiso   1.00
H159   H     0.41700   0.72900   0.41150   0.01267  Uiso   1.00
H160   H     0.50910   0.68340   0.40230   0.01267  Uiso   1.00
C99    C     0.72030   0.42460   0.64240   0.01267  Uiso   1.00
C100   C     0.65250   0.40200   0.64950   0.01267  Uiso   1.00
C101   C     0.66270   0.37460   0.70130   0.01267  Uiso   1.00
C102   C     0.73760   0.36850   0.74510   0.01267  Uiso   1.00
C103   C     0.80370   0.39190   0.73650   0.01267  Uiso   1.00
C104   C     0.79740   0.41980   0.68730   0.01267  Uiso   1.00
C105   C     0.74340   0.33990   0.80020   0.01267  Uiso   1.00
C106   C     0.68570   0.31290   0.79700   0.01267  Uiso   1.00
C107   C     0.77700   0.47290   0.57290   0.01267  Uiso   1.00
C108   C     0.69360   0.28750   0.85470   0.01267  Uiso   1.00
C109   C     0.80930   0.31120   0.91560   0.01267  Uiso   1.00
C110   C     0.80610   0.33840   0.86080   0.01267  Uiso   1.00
C111   C     0.82820   0.51650   0.47670   0.01267  Uiso   1.00
C112   C     0.89010   0.56760   0.52660   0.01267  Uiso   1.00
C113   C     0.94620   0.57160   0.46200   0.01267  Uiso   1.00
C114   C     0.99480   0.60080   0.45210   0.01267  Uiso   1.00
C115   C     0.98840   0.62700   0.50970   0.01267  Uiso   1.00
C116   C     0.93210   0.62190   0.57570   0.01267  Uiso   1.00
C117   C     0.88380   0.59290   0.58390   0.01267  Uiso   1.00
C118   C     0.04530   0.65730   0.50170   0.01267  Uiso   1.00
C119   C     0.10980   0.65990   0.44520   0.01267  Uiso   1.00
C120   C     0.16450   0.68810   0.44130   0.01267  Uiso   1.00
C121   C     0.09060   0.71130   0.55120   0.01267  Uiso   1.00
C122   C     0.03530   0.68410   0.55700   0.01267  Uiso   1.00
C123   C     0.77970   0.07540   0.64240   0.01267  Uiso   1.00
C124   C     0.84750   0.09800   0.64950   0.01267  Uiso   1.00
C125   C     0.83730   0.12540   0.70130   0.01267  Uiso   1.00
C126   C     0.76240   0.13150   0.74510   0.01267  Uiso   1.00
C127   C     0.69630   0.10810   0.73650   0.01267  Uiso   1.00
C128   C     0.70260   0.08020   0.68730   0.01267  Uiso   1.00
C129   C     0.75660   0.16010   0.80020   0.01267  Uiso   1.00
C130   C     0.81430   0.18710   0.79700   0.01267  Uiso   1.00
C131   C     0.72300   0.02710   0.57290   0.01267  Uiso   1.00
C132   C     0.80640   0.21250   0.85470   0.01267  Uiso   1.00
C133   C     0.69070   0.18880   0.91560   0.01267  Uiso   1.00
C134   C     0.69390   0.16160   0.86080   0.01267  Uiso   1.00
C135   C     0.67180   0.98350   0.47670   0.01267  Uiso   1.00
C136   C     0.60990   0.93240   0.52660   0.01267  Uiso   1.00
C137   C     0.55380   0.92840   0.46200   0.01267  Uiso   1.00
C138   C     0.50520   0.89920   0.45210   0.01267  Uiso   1.00
C139   C     0.51160   0.87300   0.50970   0.01267  Uiso   1.00
C140   C     0.56790   0.87810   0.57570   0.01267  Uiso   1.00
C141   C     0.61620   0.90710   0.58390   0.01267  Uiso   1.00
C142   C     0.45470   0.84270   0.50170   0.01267  Uiso   1.00
C143   C     0.39020   0.84010   0.44520   0.01267  Uiso   1.00
C144   C     0.33550   0.81190   0.44130   0.01267  Uiso   1.00
C145   C     0.40940   0.78870   0.55120   0.01267  Uiso   1.00
C146   C     0.46470   0.81590   0.55700   0.01267  Uiso   1.00
C147   C     0.72030   0.07540   0.35760   0.01267  Uiso   1.00
C148   C     0.65250   0.09800   0.35050   0.01267  Uiso   1.00
C149   C     0.66270   0.12540   0.29870   0.01267  Uiso   1.00
C150   C     0.73760   0.13150   0.25490   0.01267  Uiso   1.00
C151   C     0.80370   0.10810   0.26350   0.01267  Uiso   1.00
C152   C     0.79740   0.08020   0.31270   0.01267  Uiso   1.00
C153   C     0.74340   0.16010   0.19980   0.01267  Uiso   1.00
C154   C     0.68570   0.18710   0.20300   0.01267  Uiso   1.00
C155   C     0.77700   0.02710   0.42710   0.01267  Uiso   1.00
C156   C     0.69360   0.21250   0.14530   0.01267  Uiso   1.00
C157   C     0.80930   0.18880   0.08440   0.01267  Uiso   1.00
C158   C     0.80610   0.16160   0.13920   0.01267  Uiso   1.00
C159   C     0.82820   0.98350   0.52330   0.01267  Uiso   1.00
C160   C     0.89010   0.93240   0.47340   0.01267  Uiso   1.00
C161   C     0.94620   0.92840   0.53800   0.01267  Uiso   1.00
C162   C     0.99480   0.89920   0.54790   0.01267  Uiso   1.00
C163   C     0.98840   0.87300   0.49030   0.01267  Uiso   1.00
C164   C     0.93210   0.87810   0.42430   0.01267  Uiso   1.00
C165   C     0.88380   0.90710   0.41610   0.01267  Uiso   1.00
C166   C     0.04530   0.84270   0.49830   0.01267  Uiso   1.00
C167   C     0.10980   0.84010   0.55480   0.01267  Uiso   1.00
C168   C     0.16450   0.81190   0.55870   0.01267  Uiso   1.00
C169   C     0.09060   0.78870   0.44880   0.01267  Uiso   1.00
C170   C     0.03530   0.81590   0.44300   0.01267  Uiso   1.00
C171   C     0.77970   0.42460   0.35760   0.01267  Uiso   1.00
C172   C     0.84750   0.40200   0.35050   0.01267  Uiso   1.00
C173   C     0.83730   0.37460   0.29870   0.01267  Uiso   1.00
C174   C     0.76240   0.36850   0.25490   0.01267  Uiso   1.00
C175   C     0.69630   0.39190   0.26350   0.01267  Uiso   1.00
C176   C     0.70260   0.41980   0.31270   0.01267  Uiso   1.00
C177   C     0.75660   0.33990   0.19980   0.01267  Uiso   1.00
C178   C     0.81430   0.31290   0.20300   0.01267  Uiso   1.00
C179   C     0.72300   0.47290   0.42710   0.01267  Uiso   1.00
C180   C     0.80640   0.28750   0.14530   0.01267  Uiso   1.00
C181   C     0.69070   0.31120   0.08440   0.01267  Uiso   1.00
C182   C     0.69390   0.33840   0.13920   0.01267  Uiso   1.00
C183   C     0.67180   0.51650   0.52330   0.01267  Uiso   1.00
C184   C     0.60990   0.56760   0.47340   0.01267  Uiso   1.00
C185   C     0.55380   0.57160   0.53800   0.01267  Uiso   1.00
C186   C     0.50520   0.60080   0.54790   0.01267  Uiso   1.00
C187   C     0.51160   0.62700   0.49030   0.01267  Uiso   1.00
C188   C     0.56790   0.62190   0.42430   0.01267  Uiso   1.00
C189   C     0.61620   0.59290   0.41610   0.01267  Uiso   1.00
C190   C     0.45470   0.65730   0.49830   0.01267  Uiso   1.00
C191   C     0.39020   0.65990   0.55480   0.01267  Uiso   1.00
C192   C     0.33550   0.68810   0.55870   0.01267  Uiso   1.00
C193   C     0.40940   0.71130   0.44880   0.01267  Uiso   1.00
C194   C     0.46470   0.68410   0.44300   0.01267  Uiso   1.00
C195   C     0.75000   0.49430   0.50000   0.01267  Uiso   1.00
C196   C     0.75000   0.00570   0.50000   0.01267  Uiso   1.00
N9     N     0.75260   0.28600   0.91310   0.01267  Uiso   1.00
N10    N     0.15510   0.71360   0.49460   0.01267  Uiso   1.00
N11    N     0.74740   0.21400   0.91310   0.01267  Uiso   1.00
N12    N     0.34490   0.78640   0.49460   0.01267  Uiso   1.00
N13    N     0.75260   0.21400   0.08690   0.01267  Uiso   1.00
N14    N     0.15510   0.78640   0.50540   0.01267  Uiso   1.00
N15    N     0.74740   0.28600   0.08690   0.01267  Uiso   1.00
N16    N     0.34490   0.71360   0.50540   0.01267  Uiso   1.00
O9     O     0.84110   0.53970   0.54270   0.01267  Uiso   1.00
O10    O     0.70540   0.45100   0.59210   0.01267  Uiso   1.00
O11    O     0.65890   0.96030   0.54270   0.01267  Uiso   1.00
O12    O     0.79460   0.04900   0.59210   0.01267  Uiso   1.00
O13    O     0.84110   0.96030   0.45730   0.01267  Uiso   1.00
O14    O     0.70540   0.04900   0.40790   0.01267  Uiso   1.00
O15    O     0.65890   0.53970   0.45730   0.01267  Uiso   1.00
O16    O     0.79460   0.45100   0.40790   0.01267  Uiso   1.00
N17    N     0.08330   0.30460   0.26800   0.01267  Uiso   1.00
O17    O     0.03800   0.27770   0.26000   0.01267  Uiso   1.00
O18    O     0.15700   0.30420   0.30700   0.01267  Uiso   1.00
O19    O     0.05500   0.33190   0.23700   0.01267  Uiso   1.00
N18    N     0.41670   0.19540   0.26800   0.01267  Uiso   1.00
O20    O     0.46200   0.22230   0.26000   0.01267  Uiso   1.00
O21    O     0.34300   0.19580   0.30700   0.01267  Uiso   1.00
O22    O     0.44500   0.16810   0.23700   0.01267  Uiso   1.00
N19    N     0.08330   0.19540   0.73200   0.01267  Uiso   1.00
O23    O     0.03800   0.22230   0.74000   0.01267  Uiso   1.00
O24    O     0.15700   0.19580   0.69300   0.01267  Uiso   1.00
O25    O     0.05500   0.16810   0.76300   0.01267  Uiso   1.00
N20    N     0.41670   0.30460   0.73200   0.01267  Uiso   1.00
O26    O     0.46200   0.27770   0.74000   0.01267  Uiso   1.00
O27    O     0.34300   0.30420   0.69300   0.01267  Uiso   1.00
O28    O     0.44500   0.33190   0.76300   0.01267  Uiso   1.00
N21    N     0.91670   0.69540   0.73200   0.01267  Uiso   1.00
O29    O     0.96200   0.72230   0.74000   0.01267  Uiso   1.00
O30    O     0.84300   0.69580   0.69300   0.01267  Uiso   1.00
O31    O     0.94500   0.66810   0.76300   0.01267  Uiso   1.00
N22    N     0.58330   0.80460   0.73200   0.01267  Uiso   1.00
O32    O     0.53800   0.77770   0.74000   0.01267  Uiso   1.00
O33    O     0.65700   0.80420   0.69300   0.01267  Uiso   1.00
O34    O     0.55500   0.83190   0.76300   0.01267  Uiso   1.00
N23    N     0.91670   0.80460   0.26800   0.01267  Uiso   1.00
O35    O     0.96200   0.77770   0.26000   0.01267  Uiso   1.00
O36    O     0.84300   0.80420   0.30700   0.01267  Uiso   1.00
O37    O     0.94500   0.83190   0.23700   0.01267  Uiso   1.00
N24    N     0.58330   0.69540   0.26800   0.01267  Uiso   1.00
O38    O     0.53800   0.72230   0.26000   0.01267  Uiso   1.00
O39    O     0.65700   0.69580   0.30700   0.01267  Uiso   1.00
O40    O     0.55500   0.66810   0.23700   0.01267  Uiso   1.00
