data_MOXPOF_charged
_audit_creation_date              2014-07-02
_audit_creation_method            'Materials Studio'
_symmetry_space_group_name_H-M    'P1'
_symmetry_Int_Tables_number       1
_symmetry_cell_setting            triclinic
loop_
_symmetry_equiv_pos_as_xyz
  x,y,z
_cell_length_a                    13.2235
_cell_length_b                    15.2141
_cell_length_c                    15.2141
_cell_angle_alpha                 90.0000
_cell_angle_beta                  90.0000
_cell_angle_gamma                 90.0000
loop_
_atom_site_label
_atom_site_type_symbol
_atom_site_fract_x
_atom_site_fract_y
_atom_site_fract_z
_atom_site_U_iso_or_equiv
_atom_site_adp_type
_atom_site_occupancy
Cu1    Cu    0.00000   0.75000   0.25000   0.01267  Uiso   1.00
H1     H     0.02850   0.69280   0.06540   0.01267  Uiso   1.00
H2     H     0.96380   0.59540   0.96490   0.01267  Uiso   1.00
H3     H     0.73570   0.54820   0.13310   0.01267  Uiso   1.00
H4     H     0.80600   0.64710   0.22780   0.01267  Uiso   1.00
H5     H     0.83800   0.55960   0.86200   0.01267  Uiso   1.00
H6     H     0.74920   0.47220   0.76410   0.01267  Uiso   1.00
H7     H     0.65480   0.32020   0.96660   0.01267  Uiso   1.00
H8     H     0.74100   0.41080   0.06320   0.01267  Uiso   1.00
H9     H     0.60190   0.23030   0.85210   0.01267  Uiso   1.00
H10    H     0.52270   0.30610   0.87300   0.01267  Uiso   1.00
H11    H     0.02850   0.80720   0.43460   0.01267  Uiso   1.00
H12    H     0.96380   0.90460   0.53510   0.01267  Uiso   1.00
H13    H     0.73570   0.95180   0.36690   0.01267  Uiso   1.00
H14    H     0.80600   0.85290   0.27220   0.01267  Uiso   1.00
H15    H     0.83800   0.94040   0.63800   0.01267  Uiso   1.00
H16    H     0.74920   0.02780   0.73590   0.01267  Uiso   1.00
H17    H     0.65480   0.17980   0.53340   0.01267  Uiso   1.00
H18    H     0.74100   0.08920   0.43680   0.01267  Uiso   1.00
H19    H     0.60190   0.26970   0.64790   0.01267  Uiso   1.00
H20    H     0.52270   0.19390   0.62700   0.01267  Uiso   1.00
H21    H     0.97150   0.56540   0.30720   0.01267  Uiso   1.00
H22    H     0.03620   0.46490   0.40460   0.01267  Uiso   1.00
H23    H     0.26430   0.63310   0.45180   0.01267  Uiso   1.00
H24    H     0.19400   0.72780   0.35290   0.01267  Uiso   1.00
H25    H     0.16200   0.36200   0.44040   0.01267  Uiso   1.00
H26    H     0.25080   0.26410   0.52780   0.01267  Uiso   1.00
H27    H     0.34520   0.46660   0.67980   0.01267  Uiso   1.00
H28    H     0.25900   0.56320   0.58920   0.01267  Uiso   1.00
H29    H     0.39810   0.35210   0.76970   0.01267  Uiso   1.00
H30    H     0.47730   0.37300   0.69390   0.01267  Uiso   1.00
H31    H     0.97150   0.93460   0.19280   0.01267  Uiso   1.00
H32    H     0.03620   0.03510   0.09540   0.01267  Uiso   1.00
H33    H     0.26430   0.86690   0.04820   0.01267  Uiso   1.00
H34    H     0.19400   0.77220   0.14710   0.01267  Uiso   1.00
H35    H     0.16200   0.13800   0.05960   0.01267  Uiso   1.00
H36    H     0.25080   0.23590   0.97220   0.01267  Uiso   1.00
H37    H     0.34520   0.03340   0.82020   0.01267  Uiso   1.00
H38    H     0.25900   0.93680   0.91080   0.01267  Uiso   1.00
H39    H     0.39810   0.14790   0.73030   0.01267  Uiso   1.00
H40    H     0.47730   0.12700   0.80610   0.01267  Uiso   1.00
C1     C     0.96840   0.66290   0.07930   0.01267  Uiso   1.00
C2     C     0.93000   0.60440   0.01850   0.01267  Uiso   1.00
C3     C     0.84160   0.55900   0.03660   0.01267  Uiso   1.00
C4     C     0.79600   0.57690   0.11750   0.01267  Uiso   1.00
C5     C     0.83870   0.63610   0.17410   0.01267  Uiso   1.00
C6     C     0.79540   0.49680   0.97350   0.01267  Uiso   1.00
C7     C     0.79910   0.51250   0.88340   0.01267  Uiso   1.00
C8     C     0.74660   0.46030   0.82470   0.01267  Uiso   1.00
C9     C     0.68970   0.38970   0.85600   0.01267  Uiso   1.00
C10    C     0.68980   0.36980   0.94550   0.01267  Uiso   1.00
C11    C     0.74180   0.42380   0.00280   0.01267  Uiso   1.00
C12    C     0.56530   0.28030   0.82700   0.01267  Uiso   1.00
C13    C     0.96840   0.83710   0.42070   0.01267  Uiso   1.00
C14    C     0.93000   0.89560   0.48150   0.01267  Uiso   1.00
C15    C     0.84160   0.94100   0.46340   0.01267  Uiso   1.00
C16    C     0.79600   0.92310   0.38250   0.01267  Uiso   1.00
C17    C     0.83870   0.86390   0.32590   0.01267  Uiso   1.00
C18    C     0.79540   0.00320   0.52650   0.01267  Uiso   1.00
C19    C     0.79910   0.98750   0.61660   0.01267  Uiso   1.00
C20    C     0.74660   0.03970   0.67530   0.01267  Uiso   1.00
C21    C     0.68970   0.11030   0.64400   0.01267  Uiso   1.00
C22    C     0.68980   0.13020   0.55450   0.01267  Uiso   1.00
C23    C     0.74180   0.07620   0.49720   0.01267  Uiso   1.00
C24    C     0.56530   0.21970   0.67300   0.01267  Uiso   1.00
C25    C     0.03160   0.57930   0.33710   0.01267  Uiso   1.00
C26    C     0.07000   0.51850   0.39560   0.01267  Uiso   1.00
C27    C     0.15840   0.53660   0.44100   0.01267  Uiso   1.00
C28    C     0.20400   0.61750   0.42310   0.01267  Uiso   1.00
C29    C     0.16130   0.67410   0.36390   0.01267  Uiso   1.00
C30    C     0.20460   0.47350   0.50320   0.01267  Uiso   1.00
C31    C     0.20090   0.38340   0.48750   0.01267  Uiso   1.00
C32    C     0.25340   0.32470   0.53970   0.01267  Uiso   1.00
C33    C     0.31030   0.35600   0.61030   0.01267  Uiso   1.00
C34    C     0.31020   0.44550   0.63020   0.01267  Uiso   1.00
C35    C     0.25820   0.50280   0.57620   0.01267  Uiso   1.00
C36    C     0.43470   0.32700   0.71970   0.01267  Uiso   1.00
C37    C     0.03160   0.92070   0.16290   0.01267  Uiso   1.00
C38    C     0.07000   0.98150   0.10440   0.01267  Uiso   1.00
C39    C     0.15840   0.96340   0.05900   0.01267  Uiso   1.00
C40    C     0.20400   0.88250   0.07690   0.01267  Uiso   1.00
C41    C     0.16130   0.82590   0.13610   0.01267  Uiso   1.00
C42    C     0.20460   0.02650   0.99680   0.01267  Uiso   1.00
C43    C     0.20090   0.11660   0.01250   0.01267  Uiso   1.00
C44    C     0.25340   0.17530   0.96030   0.01267  Uiso   1.00
C45    C     0.31030   0.14400   0.88970   0.01267  Uiso   1.00
C46    C     0.31020   0.05450   0.86980   0.01267  Uiso   1.00
C47    C     0.25820   0.99720   0.92380   0.01267  Uiso   1.00
C48    C     0.43470   0.17300   0.78030   0.01267  Uiso   1.00
C49    C     0.50000   0.25000   0.75000   0.01267  Uiso   1.00
N1     N     0.92510   0.67940   0.15680   0.01267  Uiso   1.00
N2     N     0.92510   0.82060   0.34320   0.01267  Uiso   1.00
N3     N     0.07490   0.65680   0.32060   0.01267  Uiso   1.00
N4     N     0.07490   0.84320   0.17940   0.01267  Uiso   1.00
O1     O     0.63530   0.34450   0.79480   0.01267  Uiso   1.00
O2     O     0.63530   0.15550   0.70520   0.01267  Uiso   1.00
O3     O     0.36470   0.29480   0.65550   0.01267  Uiso   1.00
O4     O     0.36470   0.20520   0.84450   0.01267  Uiso   1.00
Cu2    Cu    0.00000   0.25000   0.75000   0.01267  Uiso   1.00
H41    H     0.02850   0.43460   0.69280   0.01267  Uiso   1.00
H42    H     0.96380   0.53510   0.59540   0.01267  Uiso   1.00
H43    H     0.73570   0.36690   0.54820   0.01267  Uiso   1.00
H44    H     0.80600   0.27220   0.64710   0.01267  Uiso   1.00
H45    H     0.83800   0.63800   0.55960   0.01267  Uiso   1.00
H46    H     0.74920   0.73590   0.47220   0.01267  Uiso   1.00
H47    H     0.65480   0.53340   0.32020   0.01267  Uiso   1.00
H48    H     0.74100   0.43680   0.41080   0.01267  Uiso   1.00
H49    H     0.60190   0.64790   0.23030   0.01267  Uiso   1.00
H50    H     0.52270   0.62700   0.30610   0.01267  Uiso   1.00
H51    H     0.02850   0.06540   0.80720   0.01267  Uiso   1.00
H52    H     0.96380   0.96490   0.90460   0.01267  Uiso   1.00
H53    H     0.73570   0.13310   0.95180   0.01267  Uiso   1.00
H54    H     0.80600   0.22780   0.85290   0.01267  Uiso   1.00
H55    H     0.83800   0.86200   0.94040   0.01267  Uiso   1.00
H56    H     0.74920   0.76410   0.02780   0.01267  Uiso   1.00
H57    H     0.65480   0.96660   0.17980   0.01267  Uiso   1.00
H58    H     0.74100   0.06320   0.08920   0.01267  Uiso   1.00
H59    H     0.60190   0.85210   0.26970   0.01267  Uiso   1.00
H60    H     0.52270   0.87300   0.19390   0.01267  Uiso   1.00
H61    H     0.97150   0.30720   0.93460   0.01267  Uiso   1.00
H62    H     0.03620   0.40460   0.03510   0.01267  Uiso   1.00
H63    H     0.26430   0.45180   0.86690   0.01267  Uiso   1.00
H64    H     0.19400   0.35290   0.77220   0.01267  Uiso   1.00
H65    H     0.16200   0.44040   0.13800   0.01267  Uiso   1.00
H66    H     0.25080   0.52780   0.23590   0.01267  Uiso   1.00
H67    H     0.34520   0.67980   0.03340   0.01267  Uiso   1.00
H68    H     0.25900   0.58920   0.93680   0.01267  Uiso   1.00
H69    H     0.39810   0.76970   0.14790   0.01267  Uiso   1.00
H70    H     0.47730   0.69390   0.12700   0.01267  Uiso   1.00
H71    H     0.97150   0.19280   0.56540   0.01267  Uiso   1.00
H72    H     0.03620   0.09540   0.46490   0.01267  Uiso   1.00
H73    H     0.26430   0.04820   0.63310   0.01267  Uiso   1.00
H74    H     0.19400   0.14710   0.72780   0.01267  Uiso   1.00
H75    H     0.16200   0.05960   0.36200   0.01267  Uiso   1.00
H76    H     0.25080   0.97220   0.26410   0.01267  Uiso   1.00
H77    H     0.34520   0.82020   0.46660   0.01267  Uiso   1.00
H78    H     0.25900   0.91080   0.56320   0.01267  Uiso   1.00
H79    H     0.39810   0.73030   0.35210   0.01267  Uiso   1.00
H80    H     0.47730   0.80610   0.37300   0.01267  Uiso   1.00
C50    C     0.96840   0.42070   0.66290   0.01267  Uiso   1.00
C51    C     0.93000   0.48150   0.60440   0.01267  Uiso   1.00
C52    C     0.84160   0.46340   0.55900   0.01267  Uiso   1.00
C53    C     0.79600   0.38250   0.57690   0.01267  Uiso   1.00
C54    C     0.83870   0.32590   0.63610   0.01267  Uiso   1.00
C55    C     0.79540   0.52650   0.49680   0.01267  Uiso   1.00
C56    C     0.79910   0.61660   0.51250   0.01267  Uiso   1.00
C57    C     0.74660   0.67530   0.46030   0.01267  Uiso   1.00
C58    C     0.68970   0.64400   0.38970   0.01267  Uiso   1.00
C59    C     0.68980   0.55450   0.36980   0.01267  Uiso   1.00
C60    C     0.74180   0.49720   0.42380   0.01267  Uiso   1.00
C61    C     0.56530   0.67300   0.28030   0.01267  Uiso   1.00
C62    C     0.96840   0.07930   0.83710   0.01267  Uiso   1.00
C63    C     0.93000   0.01850   0.89560   0.01267  Uiso   1.00
C64    C     0.84160   0.03660   0.94100   0.01267  Uiso   1.00
C65    C     0.79600   0.11750   0.92310   0.01267  Uiso   1.00
C66    C     0.83870   0.17410   0.86390   0.01267  Uiso   1.00
C67    C     0.79540   0.97350   0.00320   0.01267  Uiso   1.00
C68    C     0.79910   0.88340   0.98750   0.01267  Uiso   1.00
C69    C     0.74660   0.82470   0.03970   0.01267  Uiso   1.00
C70    C     0.68970   0.85600   0.11030   0.01267  Uiso   1.00
C71    C     0.68980   0.94550   0.13020   0.01267  Uiso   1.00
C72    C     0.74180   0.00280   0.07620   0.01267  Uiso   1.00
C73    C     0.56530   0.82700   0.21970   0.01267  Uiso   1.00
C74    C     0.03160   0.33710   0.92070   0.01267  Uiso   1.00
C75    C     0.07000   0.39560   0.98150   0.01267  Uiso   1.00
C76    C     0.15840   0.44100   0.96340   0.01267  Uiso   1.00
C77    C     0.20400   0.42310   0.88250   0.01267  Uiso   1.00
C78    C     0.16130   0.36390   0.82590   0.01267  Uiso   1.00
C79    C     0.20460   0.50320   0.02650   0.01267  Uiso   1.00
C80    C     0.20090   0.48750   0.11660   0.01267  Uiso   1.00
C81    C     0.25340   0.53970   0.17530   0.01267  Uiso   1.00
C82    C     0.31030   0.61030   0.14400   0.01267  Uiso   1.00
C83    C     0.31020   0.63020   0.05450   0.01267  Uiso   1.00
C84    C     0.25820   0.57620   0.99720   0.01267  Uiso   1.00
C85    C     0.43470   0.71970   0.17300   0.01267  Uiso   1.00
C86    C     0.03160   0.16290   0.57930   0.01267  Uiso   1.00
C87    C     0.07000   0.10440   0.51850   0.01267  Uiso   1.00
C88    C     0.15840   0.05900   0.53660   0.01267  Uiso   1.00
C89    C     0.20400   0.07690   0.61750   0.01267  Uiso   1.00
C90    C     0.16130   0.13610   0.67410   0.01267  Uiso   1.00
C91    C     0.20460   0.99680   0.47350   0.01267  Uiso   1.00
C92    C     0.20090   0.01250   0.38340   0.01267  Uiso   1.00
C93    C     0.25340   0.96030   0.32470   0.01267  Uiso   1.00
C94    C     0.31030   0.88970   0.35600   0.01267  Uiso   1.00
C95    C     0.31020   0.86980   0.44550   0.01267  Uiso   1.00
C96    C     0.25820   0.92380   0.50280   0.01267  Uiso   1.00
C97    C     0.43470   0.78030   0.32700   0.01267  Uiso   1.00
C98    C     0.50000   0.75000   0.25000   0.01267  Uiso   1.00
N5     N     0.92510   0.34320   0.67940   0.01267  Uiso   1.00
N6     N     0.92510   0.15680   0.82060   0.01267  Uiso   1.00
N7     N     0.07490   0.32060   0.84320   0.01267  Uiso   1.00
N8     N     0.07490   0.17940   0.65680   0.01267  Uiso   1.00
O5     O     0.63530   0.70520   0.34450   0.01267  Uiso   1.00
O6     O     0.63530   0.79480   0.15550   0.01267  Uiso   1.00
O7     O     0.36470   0.65550   0.20520   0.01267  Uiso   1.00
O8     O     0.36470   0.84450   0.29480   0.01267  Uiso   1.00
B1     B     0.75900   0.75000   0.75000   0.01267  Uiso   1.00
F1     F     0.79500   0.82200   0.78200   0.01267  Uiso   1.00
F2     F     0.79500   0.67800   0.71800   0.01267  Uiso   1.00
F3     F     0.79500   0.71800   0.82200   0.01267  Uiso   1.00
F4     F     0.79500   0.78200   0.67800   0.01267  Uiso   1.00
B2     B     0.24100   0.25000   0.25000   0.01267  Uiso   1.00
F5     F     0.20500   0.17800   0.21800   0.01267  Uiso   1.00
F6     F     0.20500   0.32200   0.28200   0.01267  Uiso   1.00
F7     F     0.20500   0.28200   0.17800   0.01267  Uiso   1.00
F8     F     0.20500   0.21800   0.32200   0.01267  Uiso   1.00
