data_image0
_cell_length_a       20.5511
_cell_length_b       21.5004
_cell_length_c       14.0681
_cell_angle_alpha    90
_cell_angle_beta     130.547
_cell_angle_gamma    90

_symmetry_space_group_name_H-M    "P 1"
_symmetry_int_tables_number       1

loop_
  _symmetry_equiv_pos_as_xyz
  'x, y, z'

loop_
  _atom_site_label
  _atom_site_occupancy
  _atom_site_fract_x
  _atom_site_fract_y
  _atom_site_fract_z
  _atom_site_thermal_displace_type
  _atom_site_B_iso_or_equiv
  _atom_site_type_symbol
  O1       1.0000 0.87250  0.97780  0.14460  Biso   1.000  O
  O2       1.0000 0.95280  0.95969  0.09610  Biso   1.000  O
  O3       1.0000 0.58820  0.61760  0.39200  Biso   1.000  O
  O4       1.0000 0.49280  0.58915  0.40870  Biso   1.000  O
  C1       1.0000 0.83460  0.87210  0.91180  Biso   1.000  C
  H1       1.0000 0.87500  0.88750  0.90760  Biso   1.000  H
  C2       1.0000 0.82880  0.89580  0.99870  Biso   1.000  C
  C3       1.0000 0.76850  0.87230  0.00500  Biso   1.000  C
  H2       1.0000 0.76490  0.88890  0.06250  Biso   1.000  H
  C4       1.0000 0.71350  0.82420  0.92630  Biso   1.000  C
  H3       1.0000 0.67450  0.80770  0.93230  Biso   1.000  H
  C5       1.0000 0.60200  0.71490  0.71070  Biso   1.000  C
  H4       1.0000 0.58210  0.71810  0.75390  Biso   1.000  H
  C6       1.0000 0.56590  0.67270  0.61450  Biso   1.000  C
  H5       1.0000 0.52210  0.64680  0.59390  Biso   1.000  H
  C7       1.0000 0.59440  0.66830  0.54730  Biso   1.000  C
  C8       1.0000 0.66170  0.70610  0.57990  Biso   1.000  C
  H6       1.0000 0.68140  0.70320  0.53640  Biso   1.000  H
  C9       1.0000 0.77440  0.79240  0.73270  Biso   1.000  C
  C10      1.0000 0.77850  0.82480  0.83150  Biso   1.000  C
  C11      1.0000 0.71840  0.80130  0.83790  Biso   1.000  C
  C12      1.0000 0.66870  0.75290  0.74250  Biso   1.000  C
  C13      1.0000 0.69880  0.74800  0.67770  Biso   1.000  C
  C14      1.0000 0.88750  0.94760  0.08480  Biso   1.000  C
  C15      1.0000 0.55670  0.62230  0.44320  Biso   1.000  C
  C16      1.0000 0.86010  0.75380  0.79670  Biso   1.000  C
  H7       1.0000 0.85380  0.73070  0.73190  Biso   1.000  H
  H8       1.0000 0.90670  0.78310  0.83210  Biso   1.000  H
  C17      1.0000 0.88410  0.71120  0.89250  Biso   1.000  C
  H9       1.0000 0.83670  0.68330  0.86030  Biso   1.000  H
  H10      1.0000 0.89650  0.73410  0.96210  Biso   1.000  H
  C18      1.0000 0.96300  0.67300  0.93880  Biso   1.000  C
  H11      1.0000 0.97680  0.64420  0.00180  Biso   1.000  H
  H12      1.0000 0.01060  0.70040  0.97370  Biso   1.000  H
  H13      1.0000 0.95100  0.65050  0.87000  Biso   1.000  H
  C19      1.0000 0.76110  0.83590  0.63650  Biso   1.000  C
  H14      1.0000 0.80980  0.86380  0.67890  Biso   1.000  H
  H15      1.0000 0.75990  0.81140  0.57750  Biso   1.000  H
  C20      1.0000 0.68500  0.87230  0.56860  Biso   1.000  C
  H16      1.0000 0.68630  0.89790  0.62660  Biso   1.000  H
  H17      1.0000 0.63580  0.84490  0.52630  Biso   1.000  H
  C21      1.0000 0.67480  0.91570  0.46840  Biso   1.000  C
  H18      1.0000 0.62320  0.93970  0.42530  Biso   1.000  H
  H19      1.0000 0.67170  0.89040  0.40940  Biso   1.000  H
  H20      1.0000 0.72310  0.94310  0.51000  Biso   1.000  H
  O5       1.0000 0.37250  0.47780  0.14460  Biso   1.000  O
  O6       1.0000 0.45280  0.45969  0.09610  Biso   1.000  O
  O7       1.0000 0.08820  0.11760  0.39200  Biso   1.000  O
  O8       1.0000 0.99280  0.08915  0.40870  Biso   1.000  O
  C22      1.0000 0.33460  0.37210  0.91180  Biso   1.000  C
  H21      1.0000 0.37500  0.38750  0.90760  Biso   1.000  H
  C23      1.0000 0.32880  0.39580  0.99870  Biso   1.000  C
  C24      1.0000 0.26850  0.37230  0.00500  Biso   1.000  C
  H22      1.0000 0.26490  0.38890  0.06250  Biso   1.000  H
  C25      1.0000 0.21350  0.32420  0.92630  Biso   1.000  C
  H23      1.0000 0.17450  0.30770  0.93230  Biso   1.000  H
  C26      1.0000 0.10200  0.21490  0.71070  Biso   1.000  C
  H24      1.0000 0.08210  0.21810  0.75390  Biso   1.000  H
  C27      1.0000 0.06590  0.17270  0.61450  Biso   1.000  C
  H25      1.0000 0.02210  0.14680  0.59390  Biso   1.000  H
  C28      1.0000 0.09440  0.16830  0.54730  Biso   1.000  C
  C29      1.0000 0.16170  0.20610  0.57990  Biso   1.000  C
  H26      1.0000 0.18140  0.20320  0.53640  Biso   1.000  H
  C30      1.0000 0.27440  0.29240  0.73270  Biso   1.000  C
  C31      1.0000 0.27850  0.32480  0.83150  Biso   1.000  C
  C32      1.0000 0.21840  0.30130  0.83790  Biso   1.000  C
  C33      1.0000 0.16870  0.25290  0.74250  Biso   1.000  C
  C34      1.0000 0.19880  0.24800  0.67770  Biso   1.000  C
  C35      1.0000 0.38750  0.44760  0.08480  Biso   1.000  C
  C36      1.0000 0.05670  0.12230  0.44320  Biso   1.000  C
  C37      1.0000 0.36010  0.25380  0.79670  Biso   1.000  C
  H27      1.0000 0.35380  0.23070  0.73190  Biso   1.000  H
  H28      1.0000 0.40670  0.28310  0.83210  Biso   1.000  H
  C38      1.0000 0.38410  0.21120  0.89250  Biso   1.000  C
  H29      1.0000 0.33670  0.18330  0.86030  Biso   1.000  H
  H30      1.0000 0.39650  0.23410  0.96210  Biso   1.000  H
  C39      1.0000 0.46300  0.17300  0.93880  Biso   1.000  C
  H31      1.0000 0.47680  0.14420  0.00180  Biso   1.000  H
  H32      1.0000 0.51060  0.20040  0.97370  Biso   1.000  H
  H33      1.0000 0.45100  0.15050  0.87000  Biso   1.000  H
  C40      1.0000 0.26110  0.33590  0.63650  Biso   1.000  C
  H34      1.0000 0.30980  0.36380  0.67890  Biso   1.000  H
  H35      1.0000 0.25990  0.31140  0.57750  Biso   1.000  H
  C41      1.0000 0.18500  0.37230  0.56860  Biso   1.000  C
  H36      1.0000 0.18630  0.39790  0.62660  Biso   1.000  H
  H37      1.0000 0.13580  0.34490  0.52630  Biso   1.000  H
  C42      1.0000 0.17480  0.41570  0.46840  Biso   1.000  C
  H38      1.0000 0.12320  0.43970  0.42530  Biso   1.000  H
  H39      1.0000 0.17170  0.39040  0.40940  Biso   1.000  H
  H40      1.0000 0.22310  0.44310  0.51000  Biso   1.000  H
  O9       1.0000 0.12750  0.97780  0.35540  Biso   1.000  O
  O10      1.0000 0.04720  0.95969  0.40390  Biso   1.000  O
  O11      1.0000 0.41180  0.61760  0.10800  Biso   1.000  O
  O12      1.0000 0.50720  0.58915  0.09130  Biso   1.000  O
  C43      1.0000 0.16540  0.87210  0.58820  Biso   1.000  C
  H41      1.0000 0.12500  0.88750  0.59240  Biso   1.000  H
  C44      1.0000 0.17120  0.89580  0.50130  Biso   1.000  C
  C45      1.0000 0.23150  0.87230  0.49500  Biso   1.000  C
  H42      1.0000 0.23510  0.88890  0.43750  Biso   1.000  H
  C46      1.0000 0.28650  0.82420  0.57370  Biso   1.000  C
  H43      1.0000 0.32550  0.80770  0.56770  Biso   1.000  H
  C47      1.0000 0.39800  0.71490  0.78930  Biso   1.000  C
  H44      1.0000 0.41790  0.71810  0.74610  Biso   1.000  H
  C48      1.0000 0.43410  0.67270  0.88550  Biso   1.000  C
  H45      1.0000 0.47790  0.64680  0.90610  Biso   1.000  H
  C49      1.0000 0.40560  0.66830  0.95270  Biso   1.000  C
  C50      1.0000 0.33830  0.70610  0.92010  Biso   1.000  C
  H46      1.0000 0.31860  0.70320  0.96360  Biso   1.000  H
  C51      1.0000 0.22560  0.79240  0.76730  Biso   1.000  C
  C52      1.0000 0.22150  0.82480  0.66850  Biso   1.000  C
  C53      1.0000 0.28160  0.80130  0.66210  Biso   1.000  C
  C54      1.0000 0.33130  0.75290  0.75750  Biso   1.000  C
  C55      1.0000 0.30120  0.74800  0.82230  Biso   1.000  C
  C56      1.0000 0.11250  0.94760  0.41520  Biso   1.000  C
  C57      1.0000 0.44330  0.62230  0.05680  Biso   1.000  C
  C58      1.0000 0.13990  0.75380  0.70330  Biso   1.000  C
  H47      1.0000 0.14620  0.73070  0.76810  Biso   1.000  H
  H48      1.0000 0.09330  0.78310  0.66790  Biso   1.000  H
  C59      1.0000 0.11590  0.71120  0.60750  Biso   1.000  C
  H49      1.0000 0.16330  0.68330  0.63970  Biso   1.000  H
  H50      1.0000 0.10350  0.73410  0.53790  Biso   1.000  H
  C60      1.0000 0.03700  0.67300  0.56120  Biso   1.000  C
  H51      1.0000 0.02320  0.64420  0.49820  Biso   1.000  H
  H52      1.0000 0.98940  0.70040  0.52630  Biso   1.000  H
  H53      1.0000 0.04900  0.65050  0.63000  Biso   1.000  H
  C61      1.0000 0.23890  0.83590  0.86350  Biso   1.000  C
  H54      1.0000 0.19020  0.86380  0.82110  Biso   1.000  H
  H55      1.0000 0.24010  0.81140  0.92250  Biso   1.000  H
  C62      1.0000 0.31500  0.87230  0.93140  Biso   1.000  C
  H56      1.0000 0.31370  0.89790  0.87340  Biso   1.000  H
  H57      1.0000 0.36420  0.84490  0.97370  Biso   1.000  H
  C63      1.0000 0.32520  0.91570  0.03160  Biso   1.000  C
  H58      1.0000 0.37680  0.93970  0.07470  Biso   1.000  H
  H59      1.0000 0.32830  0.89040  0.09060  Biso   1.000  H
  H60      1.0000 0.27690  0.94310  0.99000  Biso   1.000  H
  O13      1.0000 0.62750  0.47780  0.35540  Biso   1.000  O
  O14      1.0000 0.54720  0.45969  0.40390  Biso   1.000  O
  O15      1.0000 0.91180  0.11760  0.10800  Biso   1.000  O
  O16      1.0000 0.00720  0.08915  0.09130  Biso   1.000  O
  C64      1.0000 0.66540  0.37210  0.58820  Biso   1.000  C
  H61      1.0000 0.62500  0.38750  0.59240  Biso   1.000  H
  C65      1.0000 0.67120  0.39580  0.50130  Biso   1.000  C
  C66      1.0000 0.73150  0.37230  0.49500  Biso   1.000  C
  H62      1.0000 0.73510  0.38890  0.43750  Biso   1.000  H
  C67      1.0000 0.78650  0.32420  0.57370  Biso   1.000  C
  H63      1.0000 0.82550  0.30770  0.56770  Biso   1.000  H
  C68      1.0000 0.89800  0.21490  0.78930  Biso   1.000  C
  H64      1.0000 0.91790  0.21810  0.74610  Biso   1.000  H
  C69      1.0000 0.93410  0.17270  0.88550  Biso   1.000  C
  H65      1.0000 0.97790  0.14680  0.90610  Biso   1.000  H
  C70      1.0000 0.90560  0.16830  0.95270  Biso   1.000  C
  C71      1.0000 0.83830  0.20610  0.92010  Biso   1.000  C
  H66      1.0000 0.81860  0.20320  0.96360  Biso   1.000  H
  C72      1.0000 0.72560  0.29240  0.76730  Biso   1.000  C
  C73      1.0000 0.72150  0.32480  0.66850  Biso   1.000  C
  C74      1.0000 0.78160  0.30130  0.66210  Biso   1.000  C
  C75      1.0000 0.83130  0.25290  0.75750  Biso   1.000  C
  C76      1.0000 0.80120  0.24800  0.82230  Biso   1.000  C
  C77      1.0000 0.61250  0.44760  0.41520  Biso   1.000  C
  C78      1.0000 0.94330  0.12230  0.05680  Biso   1.000  C
  C79      1.0000 0.63990  0.25380  0.70330  Biso   1.000  C
  H67      1.0000 0.64620  0.23070  0.76810  Biso   1.000  H
  H68      1.0000 0.59330  0.28310  0.66790  Biso   1.000  H
  C80      1.0000 0.61590  0.21120  0.60750  Biso   1.000  C
  H69      1.0000 0.66330  0.18330  0.63970  Biso   1.000  H
  H70      1.0000 0.60350  0.23410  0.53790  Biso   1.000  H
  C81      1.0000 0.53700  0.17300  0.56120  Biso   1.000  C
  H71      1.0000 0.52320  0.14420  0.49820  Biso   1.000  H
  H72      1.0000 0.48940  0.20040  0.52630  Biso   1.000  H
  H73      1.0000 0.54900  0.15050  0.63000  Biso   1.000  H
  C82      1.0000 0.73890  0.33590  0.86350  Biso   1.000  C
  H74      1.0000 0.69020  0.36380  0.82110  Biso   1.000  H
  H75      1.0000 0.74010  0.31140  0.92250  Biso   1.000  H
  C83      1.0000 0.81500  0.37230  0.93140  Biso   1.000  C
  H76      1.0000 0.81370  0.39790  0.87340  Biso   1.000  H
  H77      1.0000 0.86420  0.34490  0.97370  Biso   1.000  H
  C84      1.0000 0.82520  0.41570  0.03160  Biso   1.000  C
  H78      1.0000 0.87680  0.43970  0.07470  Biso   1.000  H
  H79      1.0000 0.82830  0.39040  0.09060  Biso   1.000  H
  H80      1.0000 0.77690  0.44310  0.99000  Biso   1.000  H
  O17      1.0000 0.12750  0.02220  0.85540  Biso   1.000  O
  O18      1.0000 0.04720  0.04031  0.90390  Biso   1.000  O
  O19      1.0000 0.41180  0.38240  0.60800  Biso   1.000  O
  O20      1.0000 0.50720  0.41085  0.59130  Biso   1.000  O
  C85      1.0000 0.16540  0.12790  0.08820  Biso   1.000  C
  H81      1.0000 0.12500  0.11250  0.09240  Biso   1.000  H
  C86      1.0000 0.17120  0.10420  0.00130  Biso   1.000  C
  C87      1.0000 0.23150  0.12770  0.99500  Biso   1.000  C
  H82      1.0000 0.23510  0.11110  0.93750  Biso   1.000  H
  C88      1.0000 0.28650  0.17580  0.07370  Biso   1.000  C
  H83      1.0000 0.32550  0.19230  0.06770  Biso   1.000  H
  C89      1.0000 0.39800  0.28510  0.28930  Biso   1.000  C
  H84      1.0000 0.41790  0.28190  0.24610  Biso   1.000  H
  C90      1.0000 0.43410  0.32730  0.38550  Biso   1.000  C
  H85      1.0000 0.47790  0.35320  0.40610  Biso   1.000  H
  C91      1.0000 0.40560  0.33170  0.45270  Biso   1.000  C
  C92      1.0000 0.33830  0.29390  0.42010  Biso   1.000  C
  H86      1.0000 0.31860  0.29680  0.46360  Biso   1.000  H
  C93      1.0000 0.22560  0.20760  0.26730  Biso   1.000  C
  C94      1.0000 0.22150  0.17520  0.16850  Biso   1.000  C
  C95      1.0000 0.28160  0.19870  0.16210  Biso   1.000  C
  C96      1.0000 0.33130  0.24710  0.25750  Biso   1.000  C
  C97      1.0000 0.30120  0.25200  0.32230  Biso   1.000  C
  C98      1.0000 0.11250  0.05240  0.91520  Biso   1.000  C
  C99      1.0000 0.44330  0.37770  0.55680  Biso   1.000  C
  C100     1.0000 0.13990  0.24620  0.20330  Biso   1.000  C
  H87      1.0000 0.14620  0.26930  0.26810  Biso   1.000  H
  H88      1.0000 0.09330  0.21690  0.16790  Biso   1.000  H
  C101     1.0000 0.11590  0.28880  0.10750  Biso   1.000  C
  H89      1.0000 0.16330  0.31670  0.13970  Biso   1.000  H
  H90      1.0000 0.10350  0.26590  0.03790  Biso   1.000  H
  C102     1.0000 0.03700  0.32700  0.06120  Biso   1.000  C
  H91      1.0000 0.02320  0.35580  0.99820  Biso   1.000  H
  H92      1.0000 0.98940  0.29960  0.02630  Biso   1.000  H
  H93      1.0000 0.04900  0.34950  0.13000  Biso   1.000  H
  C103     1.0000 0.23890  0.16410  0.36350  Biso   1.000  C
  H94      1.0000 0.19020  0.13620  0.32110  Biso   1.000  H
  H95      1.0000 0.24010  0.18860  0.42250  Biso   1.000  H
  C104     1.0000 0.31500  0.12770  0.43140  Biso   1.000  C
  H96      1.0000 0.31370  0.10210  0.37340  Biso   1.000  H
  H97      1.0000 0.36420  0.15510  0.47370  Biso   1.000  H
  C105     1.0000 0.32520  0.08430  0.53160  Biso   1.000  C
  H98      1.0000 0.37680  0.06030  0.57470  Biso   1.000  H
  H99      1.0000 0.32830  0.10960  0.59060  Biso   1.000  H
  H100     1.0000 0.27690  0.05690  0.49000  Biso   1.000  H
  O21      1.0000 0.62750  0.52220  0.85540  Biso   1.000  O
  O22      1.0000 0.54720  0.54031  0.90390  Biso   1.000  O
  O23      1.0000 0.91180  0.88240  0.60800  Biso   1.000  O
  O24      1.0000 0.00720  0.91085  0.59130  Biso   1.000  O
  C106     1.0000 0.66540  0.62790  0.08820  Biso   1.000  C
  H101     1.0000 0.62500  0.61250  0.09240  Biso   1.000  H
  C107     1.0000 0.67120  0.60420  0.00130  Biso   1.000  C
  C108     1.0000 0.73150  0.62770  0.99500  Biso   1.000  C
  H102     1.0000 0.73510  0.61110  0.93750  Biso   1.000  H
  C109     1.0000 0.78650  0.67580  0.07370  Biso   1.000  C
  H103     1.0000 0.82550  0.69230  0.06770  Biso   1.000  H
  C110     1.0000 0.89800  0.78510  0.28930  Biso   1.000  C
  H104     1.0000 0.91790  0.78190  0.24610  Biso   1.000  H
  C111     1.0000 0.93410  0.82730  0.38550  Biso   1.000  C
  H105     1.0000 0.97790  0.85320  0.40610  Biso   1.000  H
  C112     1.0000 0.90560  0.83170  0.45270  Biso   1.000  C
  C113     1.0000 0.83830  0.79390  0.42010  Biso   1.000  C
  H106     1.0000 0.81860  0.79680  0.46360  Biso   1.000  H
  C114     1.0000 0.72560  0.70760  0.26730  Biso   1.000  C
  C115     1.0000 0.72150  0.67520  0.16850  Biso   1.000  C
  C116     1.0000 0.78160  0.69870  0.16210  Biso   1.000  C
  C117     1.0000 0.83130  0.74710  0.25750  Biso   1.000  C
  C118     1.0000 0.80120  0.75200  0.32230  Biso   1.000  C
  C119     1.0000 0.61250  0.55240  0.91520  Biso   1.000  C
  C120     1.0000 0.94330  0.87770  0.55680  Biso   1.000  C
  C121     1.0000 0.63990  0.74620  0.20330  Biso   1.000  C
  H107     1.0000 0.64620  0.76930  0.26810  Biso   1.000  H
  H108     1.0000 0.59330  0.71690  0.16790  Biso   1.000  H
  C122     1.0000 0.61590  0.78880  0.10750  Biso   1.000  C
  H109     1.0000 0.66330  0.81670  0.13970  Biso   1.000  H
  H110     1.0000 0.60350  0.76590  0.03790  Biso   1.000  H
  C123     1.0000 0.53700  0.82700  0.06120  Biso   1.000  C
  H111     1.0000 0.52320  0.85580  0.99820  Biso   1.000  H
  H112     1.0000 0.48940  0.79960  0.02630  Biso   1.000  H
  H113     1.0000 0.54900  0.84950  0.13000  Biso   1.000  H
  C124     1.0000 0.73890  0.66410  0.36350  Biso   1.000  C
  H114     1.0000 0.69020  0.63620  0.32110  Biso   1.000  H
  H115     1.0000 0.74010  0.68860  0.42250  Biso   1.000  H
  C125     1.0000 0.81500  0.62770  0.43140  Biso   1.000  C
  H116     1.0000 0.81370  0.60210  0.37340  Biso   1.000  H
  H117     1.0000 0.86420  0.65510  0.47370  Biso   1.000  H
  C126     1.0000 0.82520  0.58430  0.53160  Biso   1.000  C
  H118     1.0000 0.87680  0.56030  0.57470  Biso   1.000  H
  H119     1.0000 0.82830  0.60960  0.59060  Biso   1.000  H
  H120     1.0000 0.77690  0.55690  0.49000  Biso   1.000  H
  O25      1.0000 0.87250  0.02220  0.64460  Biso   1.000  O
  O26      1.0000 0.95280  0.04031  0.59610  Biso   1.000  O
  O27      1.0000 0.58820  0.38240  0.89200  Biso   1.000  O
  O28      1.0000 0.49280  0.41085  0.90870  Biso   1.000  O
  C127     1.0000 0.83460  0.12790  0.41180  Biso   1.000  C
  H121     1.0000 0.87500  0.11250  0.40760  Biso   1.000  H
  C128     1.0000 0.82880  0.10420  0.49870  Biso   1.000  C
  C129     1.0000 0.76850  0.12770  0.50500  Biso   1.000  C
  H122     1.0000 0.76490  0.11110  0.56250  Biso   1.000  H
  C130     1.0000 0.71350  0.17580  0.42630  Biso   1.000  C
  H123     1.0000 0.67450  0.19230  0.43230  Biso   1.000  H
  C131     1.0000 0.60200  0.28510  0.21070  Biso   1.000  C
  H124     1.0000 0.58210  0.28190  0.25390  Biso   1.000  H
  C132     1.0000 0.56590  0.32730  0.11450  Biso   1.000  C
  H125     1.0000 0.52210  0.35320  0.09390  Biso   1.000  H
  C133     1.0000 0.59440  0.33170  0.04730  Biso   1.000  C
  C134     1.0000 0.66170  0.29390  0.07990  Biso   1.000  C
  H126     1.0000 0.68140  0.29680  0.03640  Biso   1.000  H
  C135     1.0000 0.77440  0.20760  0.23270  Biso   1.000  C
  C136     1.0000 0.77850  0.17520  0.33150  Biso   1.000  C
  C137     1.0000 0.71840  0.19870  0.33790  Biso   1.000  C
  C138     1.0000 0.66870  0.24710  0.24250  Biso   1.000  C
  C139     1.0000 0.69880  0.25200  0.17770  Biso   1.000  C
  C140     1.0000 0.88750  0.05240  0.58480  Biso   1.000  C
  C141     1.0000 0.55670  0.37770  0.94320  Biso   1.000  C
  C142     1.0000 0.86010  0.24620  0.29670  Biso   1.000  C
  H127     1.0000 0.85380  0.26930  0.23190  Biso   1.000  H
  H128     1.0000 0.90670  0.21690  0.33210  Biso   1.000  H
  C143     1.0000 0.88410  0.28880  0.39250  Biso   1.000  C
  H129     1.0000 0.83670  0.31670  0.36030  Biso   1.000  H
  H130     1.0000 0.89650  0.26590  0.46210  Biso   1.000  H
  C144     1.0000 0.96300  0.32700  0.43880  Biso   1.000  C
  H131     1.0000 0.97680  0.35580  0.50180  Biso   1.000  H
  H132     1.0000 0.01060  0.29960  0.47370  Biso   1.000  H
  H133     1.0000 0.95100  0.34950  0.37000  Biso   1.000  H
  C145     1.0000 0.76110  0.16410  0.13650  Biso   1.000  C
  H134     1.0000 0.80980  0.13620  0.17890  Biso   1.000  H
  H135     1.0000 0.75990  0.18860  0.07750  Biso   1.000  H
  C146     1.0000 0.68500  0.12770  0.06860  Biso   1.000  C
  H136     1.0000 0.68630  0.10210  0.12660  Biso   1.000  H
  H137     1.0000 0.63580  0.15510  0.02630  Biso   1.000  H
  C147     1.0000 0.67480  0.08430  0.96840  Biso   1.000  C
  H138     1.0000 0.62320  0.06030  0.92530  Biso   1.000  H
  H139     1.0000 0.67170  0.10960  0.90940  Biso   1.000  H
  H140     1.0000 0.72310  0.05690  0.01000  Biso   1.000  H
  O29      1.0000 0.37250  0.52220  0.64460  Biso   1.000  O
  O30      1.0000 0.45280  0.54031  0.59610  Biso   1.000  O
  O31      1.0000 0.08820  0.88240  0.89200  Biso   1.000  O
  O32      1.0000 0.99280  0.91085  0.90870  Biso   1.000  O
  C148     1.0000 0.33460  0.62790  0.41180  Biso   1.000  C
  H141     1.0000 0.37500  0.61250  0.40760  Biso   1.000  H
  C149     1.0000 0.32880  0.60420  0.49870  Biso   1.000  C
  C150     1.0000 0.26850  0.62770  0.50500  Biso   1.000  C
  H142     1.0000 0.26490  0.61110  0.56250  Biso   1.000  H
  C151     1.0000 0.21350  0.67580  0.42630  Biso   1.000  C
  H143     1.0000 0.17450  0.69230  0.43230  Biso   1.000  H
  C152     1.0000 0.10200  0.78510  0.21070  Biso   1.000  C
  H144     1.0000 0.08210  0.78190  0.25390  Biso   1.000  H
  C153     1.0000 0.06590  0.82730  0.11450  Biso   1.000  C
  H145     1.0000 0.02210  0.85320  0.09390  Biso   1.000  H
  C154     1.0000 0.09440  0.83170  0.04730  Biso   1.000  C
  C155     1.0000 0.16170  0.79390  0.07990  Biso   1.000  C
  H146     1.0000 0.18140  0.79680  0.03640  Biso   1.000  H
  C156     1.0000 0.27440  0.70760  0.23270  Biso   1.000  C
  C157     1.0000 0.27850  0.67520  0.33150  Biso   1.000  C
  C158     1.0000 0.21840  0.69870  0.33790  Biso   1.000  C
  C159     1.0000 0.16870  0.74710  0.24250  Biso   1.000  C
  C160     1.0000 0.19880  0.75200  0.17770  Biso   1.000  C
  C161     1.0000 0.38750  0.55240  0.58480  Biso   1.000  C
  C162     1.0000 0.05670  0.87770  0.94320  Biso   1.000  C
  C163     1.0000 0.36010  0.74620  0.29670  Biso   1.000  C
  H147     1.0000 0.35380  0.76930  0.23190  Biso   1.000  H
  H148     1.0000 0.40670  0.71690  0.33210  Biso   1.000  H
  C164     1.0000 0.38410  0.78880  0.39250  Biso   1.000  C
  H149     1.0000 0.33670  0.81670  0.36030  Biso   1.000  H
  H150     1.0000 0.39650  0.76590  0.46210  Biso   1.000  H
  C165     1.0000 0.46300  0.82700  0.43880  Biso   1.000  C
  H151     1.0000 0.47680  0.85580  0.50180  Biso   1.000  H
  H152     1.0000 0.51060  0.79960  0.47370  Biso   1.000  H
  H153     1.0000 0.45100  0.84950  0.37000  Biso   1.000  H
  C166     1.0000 0.26110  0.66410  0.13650  Biso   1.000  C
  H154     1.0000 0.30980  0.63620  0.17890  Biso   1.000  H
  H155     1.0000 0.25990  0.68860  0.07750  Biso   1.000  H
  C167     1.0000 0.18500  0.62770  0.06860  Biso   1.000  C
  H156     1.0000 0.18630  0.60210  0.12660  Biso   1.000  H
  H157     1.0000 0.13580  0.65510  0.02630  Biso   1.000  H
  C168     1.0000 0.17480  0.58430  0.96840  Biso   1.000  C
  H158     1.0000 0.12320  0.56030  0.92530  Biso   1.000  H
  H159     1.0000 0.17170  0.60960  0.90940  Biso   1.000  H
  H160     1.0000 0.22310  0.55690  0.01000  Biso   1.000  H
  Cd1      1.0000 0.00000  0.04131  0.25000  Biso   1.000  Cd
  Cd2      1.0000 0.50000  0.54131  0.25000  Biso   1.000  Cd
  Cd3      1.0000 0.00000  0.95869  0.75000  Biso   1.000  Cd
  Cd4      1.0000 0.50000  0.45869  0.75000  Biso   1.000  Cd
  Cd5      1.0000 0.00000  0.00000  0.00000  Biso   1.000  Cd
  Cd6      1.0000 0.50000  0.50000  0.00000  Biso   1.000  Cd
  Cd7      1.0000 0.00000  0.00000  0.50000  Biso   1.000  Cd
  Cd8      1.0000 0.50000  0.50000  0.50000  Biso   1.000  Cd
