data_MOYYEF_clean
_audit_creation_date              2014-07-02
_audit_creation_method            'Materials Studio'
_symmetry_space_group_name_H-M    'P1'
_symmetry_Int_Tables_number       1
_symmetry_cell_setting            triclinic
loop_
_symmetry_equiv_pos_as_xyz
  x,y,z
_cell_length_a                    12.9350
_cell_length_b                    14.3519
_cell_length_c                    14.3519
_cell_angle_alpha                 78.2832
_cell_angle_beta                  63.2154
_cell_angle_gamma                 63.2154
loop_
_atom_site_label
_atom_site_type_symbol
_atom_site_fract_x
_atom_site_fract_y
_atom_site_fract_z
_atom_site_U_iso_or_equiv
_atom_site_adp_type
_atom_site_occupancy
Cu1    Cu    0.46437   0.39979   0.47697   0.01267  Uiso   1.00
Cu2    Cu    0.34113   0.60021   0.52303   0.01267  Uiso   1.00
Cu3    Cu    0.19134   0.02303   0.89979   0.01267  Uiso   1.00
Cu4    Cu    0.11416   0.97697   0.10021   0.01267  Uiso   1.00
H1     H     0.58850   0.72350   0.29590   0.01267  Uiso   1.00
H2     H     0.73980   0.77150   0.16250   0.01267  Uiso   1.00
H3     H     0.97440   0.46710   0.09930   0.01267  Uiso   1.00
H4     H     0.81870   0.42240   0.22940   0.01267  Uiso   1.00
H5     H     0.03880   0.54380   0.93080   0.01267  Uiso   1.00
H6     H     0.19690   0.58430   0.79630   0.01267  Uiso   1.00
H7     H     0.21670   0.73260   0.81320   0.01267  Uiso   1.00
H8     H     0.93560   0.78140   0.09920   0.01267  Uiso   1.00
H9     H     0.60790   0.27650   0.70410   0.01267  Uiso   1.00
H10    H     0.67380   0.22850   0.83750   0.01267  Uiso   1.00
H11    H     0.54080   0.53290   0.90070   0.01267  Uiso   1.00
H12    H     0.47050   0.57760   0.77060   0.01267  Uiso   1.00
H13    H     0.51340   0.45620   0.06920   0.01267  Uiso   1.00
H14    H     0.57750   0.41570   0.20370   0.01267  Uiso   1.00
H15    H     0.76250   0.26740   0.18680   0.01267  Uiso   1.00
H16    H     0.81620   0.21860   0.90080   0.01267  Uiso   1.00
H17    H     0.13440   0.20410   0.22350   0.01267  Uiso   1.00
H18    H     0.15230   0.33750   0.27150   0.01267  Uiso   1.00
H19    H     0.32370   0.40070   0.96710   0.01267  Uiso   1.00
H20    H     0.29810   0.27060   0.92240   0.01267  Uiso   1.00
H21    H     0.21960   0.56920   0.04380   0.01267  Uiso   1.00
H22    H     0.24320   0.70370   0.08430   0.01267  Uiso   1.00
H23    H     0.27990   0.68680   0.23260   0.01267  Uiso   1.00
H24    H     0.28480   0.40080   0.28140   0.01267  Uiso   1.00
H25    H     0.56200   0.79590   0.77650   0.01267  Uiso   1.00
H26    H     0.76130   0.66250   0.72850   0.01267  Uiso   1.00
H27    H     0.69150   0.59930   0.03290   0.01267  Uiso   1.00
H28    H     0.49110   0.72940   0.07760   0.01267  Uiso   1.00
H29    H     0.83260   0.43080   0.95620   0.01267  Uiso   1.00
H30    H     0.03120   0.29630   0.91570   0.01267  Uiso   1.00
H31    H     0.19930   0.31320   0.76740   0.01267  Uiso   1.00
H32    H     0.96700   0.59920   0.71860   0.01267  Uiso   1.00
C1     C     0.59020   0.53840   0.36280   0.01267  Uiso   1.00
C2     C     0.68620   0.56750   0.28090   0.01267  Uiso   1.00
C3     C     0.66600   0.67170   0.25670   0.01267  Uiso   1.00
C4     C     0.75780   0.70090   0.17590   0.01267  Uiso   1.00
C5     C     0.87470   0.62770   0.11550   0.01267  Uiso   1.00
C6     C     0.89690   0.51910   0.13830   0.01267  Uiso   1.00
C7     C     0.80340   0.49270   0.21750   0.01267  Uiso   1.00
C8     C     0.97790   0.65150   0.03210   0.01267  Uiso   1.00
C9     C     0.05190   0.59960   0.93920   0.01267  Uiso   1.00
C10    C     0.14500   0.62460   0.85660   0.01267  Uiso   1.00
C11    C     0.15750   0.71120   0.86760   0.01267  Uiso   1.00
C12    C     0.08260   0.76570   0.95870   0.01267  Uiso   1.00
C13    C     0.98960   0.73970   0.03990   0.01267  Uiso   1.00
C14    C     0.10340   0.85940   0.97460   0.01267  Uiso   1.00
C15    C     0.49140   0.46160   0.63720   0.01267  Uiso   1.00
C16    C     0.53460   0.43250   0.71910   0.01267  Uiso   1.00
C17    C     0.59440   0.32830   0.74330   0.01267  Uiso   1.00
C18    C     0.63460   0.29910   0.82410   0.01267  Uiso   1.00
C19    C     0.61790   0.37230   0.88450   0.01267  Uiso   1.00
C20    C     0.55430   0.48090   0.86170   0.01267  Uiso   1.00
C21    C     0.51360   0.50730   0.78250   0.01267  Uiso   1.00
C22    C     0.66150   0.34850   0.96790   0.01267  Uiso   1.00
C23    C     0.59070   0.40040   0.06080   0.01267  Uiso   1.00
C24    C     0.62620   0.37540   0.14340   0.01267  Uiso   1.00
C25    C     0.73630   0.28880   0.13240   0.01267  Uiso   1.00
C26    C     0.80700   0.23430   0.04130   0.01267  Uiso   1.00
C27    C     0.76920   0.26030   0.96010   0.01267  Uiso   1.00
C28    C     0.93740   0.14060   0.02540   0.01267  Uiso   1.00
C29    C     0.20300   0.13720   0.03840   0.01267  Uiso   1.00
C30    C     0.21710   0.21910   0.06750   0.01267  Uiso   1.00
C31    C     0.17270   0.24330   0.17170   0.01267  Uiso   1.00
C32    C     0.18370   0.32410   0.20090   0.01267  Uiso   1.00
C33    C     0.24020   0.38450   0.12770   0.01267  Uiso   1.00
C34    C     0.28520   0.36170   0.01910   0.01267  Uiso   1.00
C35    C     0.27090   0.28250   0.99270   0.01267  Uiso   1.00
C36    C     0.26000   0.46790   0.15150   0.01267  Uiso   1.00
C37    C     0.24110   0.56080   0.09960   0.01267  Uiso   1.00
C38    C     0.25160   0.64340   0.12460   0.01267  Uiso   1.00
C39    C     0.27510   0.63240   0.21120   0.01267  Uiso   1.00
C40    C     0.29130   0.54130   0.26570   0.01267  Uiso   1.00
C41    C     0.27950   0.46010   0.23970   0.01267  Uiso   1.00
C42    C     0.32800   0.52540   0.35940   0.01267  Uiso   1.00
C43    C     0.37860   0.86280   0.96160   0.01267  Uiso   1.00
C44    C     0.50370   0.78090   0.93250   0.01267  Uiso   1.00
C45    C     0.58770   0.75670   0.82830   0.01267  Uiso   1.00
C46    C     0.70870   0.67590   0.79910   0.01267  Uiso   1.00
C47    C     0.75240   0.61550   0.87230   0.01267  Uiso   1.00
C48    C     0.66600   0.63830   0.98090   0.01267  Uiso   1.00
C49    C     0.54610   0.71750   0.00730   0.01267  Uiso   1.00
C50    C     0.87940   0.53210   0.84850   0.01267  Uiso   1.00
C51    C     0.90150   0.43920   0.90040   0.01267  Uiso   1.00
C52    C     0.01960   0.35660   0.87540   0.01267  Uiso   1.00
C53    C     0.11870   0.36760   0.78880   0.01267  Uiso   1.00
C54    C     0.09830   0.45870   0.73430   0.01267  Uiso   1.00
C55    C     0.97930   0.53990   0.76030   0.01267  Uiso   1.00
C56    C     0.21280   0.47460   0.64060   0.01267  Uiso   1.00
O1     O     0.59130   0.45220   0.36800   0.01267  Uiso   1.00
O2     O     0.49740   0.61170   0.42650   0.01267  Uiso   1.00
O3     O     0.05800   0.88700   0.06460   0.01267  Uiso   1.00
O4     O     0.16050   0.89960   0.89440   0.01267  Uiso   1.00
O5     O     0.41150   0.54780   0.63200   0.01267  Uiso   1.00
O6     O     0.53560   0.38830   0.57350   0.01267  Uiso   1.00
O7     O     0.00960   0.11300   0.93540   0.01267  Uiso   1.00
O8     O     0.95450   0.10040   0.10560   0.01267  Uiso   1.00
O9     O     0.20930   0.13200   0.95220   0.01267  Uiso   1.00
O10    O     0.17390   0.07350   0.11170   0.01267  Uiso   1.00
O11    O     0.37260   0.43540   0.38700   0.01267  Uiso   1.00
O12    O     0.30490   0.60560   0.39960   0.01267  Uiso   1.00
O13    O     0.29350   0.86800   0.04780   0.01267  Uiso   1.00
O14    O     0.35910   0.92650   0.88830   0.01267  Uiso   1.00
O15    O     0.19500   0.56460   0.61300   0.01267  Uiso   1.00
O16    O     0.31010   0.39440   0.60040   0.01267  Uiso   1.00
