data_MOYYIJ_clean
_audit_creation_date              2014-07-02
_audit_creation_method            'Materials Studio'
_symmetry_space_group_name_H-M    'P1'
_symmetry_Int_Tables_number       1
_symmetry_cell_setting            triclinic
loop_
_symmetry_equiv_pos_as_xyz
  x,y,z
_cell_length_a                    14.2970
_cell_length_b                    18.9017
_cell_length_c                    18.9017
_cell_angle_alpha                 66.1310
_cell_angle_beta                  75.3965
_cell_angle_gamma                 104.6030
loop_
_atom_site_label
_atom_site_type_symbol
_atom_site_fract_x
_atom_site_fract_y
_atom_site_fract_z
_atom_site_U_iso_or_equiv
_atom_site_adp_type
_atom_site_occupancy
Cu1    Cu    0.55191   0.57997   0.97501   0.01267  Uiso   1.00
Cu2    Cu    0.52692   0.97501   0.44502   0.01267  Uiso   1.00
Cu3    Cu    0.97194   0.44502   0.57997   0.01267  Uiso   1.00
Cu4    Cu    0.44809   0.42003   0.02499   0.01267  Uiso   1.00
Cu5    Cu    0.47308   0.02499   0.55498   0.01267  Uiso   1.00
Cu6    Cu    0.02806   0.55498   0.42003   0.01267  Uiso   1.00
H1     H     0.25470   0.54770   0.61010   0.01267  Uiso   1.00
H2     H     0.52960   0.74830   0.48370   0.01267  Uiso   1.00
H3     H     0.49630   0.78820   0.36310   0.01267  Uiso   1.00
H4     H     0.34110   0.71200   0.36670   0.01267  Uiso   1.00
H5     H     0.34680   0.49320   0.68820   0.01267  Uiso   1.00
H6     H     0.38000   0.45440   0.80720   0.01267  Uiso   1.00
H7     H     0.52210   0.69690   0.73650   0.01267  Uiso   1.00
H8     H     0.49080   0.73640   0.61580   0.01267  Uiso   1.00
H9     H     0.86480   0.61010   0.84220   0.01267  Uiso   1.00
H10    H     0.01330   0.48370   0.76800   0.01267  Uiso   1.00
H11    H     0.85940   0.36310   0.84870   0.01267  Uiso   1.00
H12    H     0.70780   0.36670   0.92130   0.01267  Uiso   1.00
H13    H     0.03500   0.68820   0.81860   0.01267  Uiso   1.00
H14    H     0.18720   0.80720   0.73840   0.01267  Uiso   1.00
H15    H     0.25860   0.73650   0.56660   0.01267  Uiso   1.00
H16    H     0.10660   0.61580   0.64780   0.01267  Uiso   1.00
H17    H     0.70700   0.84220   0.54770   0.01267  Uiso   1.00
H18    H     0.78130   0.76800   0.74830   0.01267  Uiso   1.00
H19    H     0.70810   0.84870   0.78820   0.01267  Uiso   1.00
H20    H     0.62910   0.92130   0.71200   0.01267  Uiso   1.00
H21    H     0.85360   0.81860   0.49320   0.01267  Uiso   1.00
H22    H     0.92560   0.73840   0.45440   0.01267  Uiso   1.00
H23    H     0.82520   0.56660   0.69690   0.01267  Uiso   1.00
H24    H     0.75440   0.64780   0.73640   0.01267  Uiso   1.00
H25    H     0.74530   0.45230   0.38990   0.01267  Uiso   1.00
H26    H     0.47040   0.25170   0.51630   0.01267  Uiso   1.00
H27    H     0.50370   0.21180   0.63690   0.01267  Uiso   1.00
H28    H     0.65890   0.28800   0.63330   0.01267  Uiso   1.00
H29    H     0.65320   0.50680   0.31180   0.01267  Uiso   1.00
H30    H     0.62000   0.54560   0.19280   0.01267  Uiso   1.00
H31    H     0.47790   0.30310   0.26350   0.01267  Uiso   1.00
H32    H     0.50920   0.26360   0.38420   0.01267  Uiso   1.00
H33    H     0.13520   0.38990   0.15780   0.01267  Uiso   1.00
H34    H     0.98670   0.51630   0.23200   0.01267  Uiso   1.00
H35    H     0.14060   0.63690   0.15130   0.01267  Uiso   1.00
H36    H     0.29220   0.63330   0.07870   0.01267  Uiso   1.00
H37    H     0.96500   0.31180   0.18140   0.01267  Uiso   1.00
H38    H     0.81280   0.19280   0.26160   0.01267  Uiso   1.00
H39    H     0.74140   0.26350   0.43340   0.01267  Uiso   1.00
H40    H     0.89340   0.38420   0.35220   0.01267  Uiso   1.00
H41    H     0.29300   0.15780   0.45230   0.01267  Uiso   1.00
H42    H     0.21870   0.23200   0.25170   0.01267  Uiso   1.00
H43    H     0.29190   0.15130   0.21180   0.01267  Uiso   1.00
H44    H     0.37090   0.07870   0.28800   0.01267  Uiso   1.00
H45    H     0.14640   0.18140   0.50680   0.01267  Uiso   1.00
H46    H     0.07440   0.26160   0.54560   0.01267  Uiso   1.00
H47    H     0.17480   0.43340   0.30310   0.01267  Uiso   1.00
H48    H     0.24560   0.35220   0.26360   0.01267  Uiso   1.00
C1     C     0.17688   0.57490   0.49390   0.01267  Uiso   1.00
C2     C     0.28207   0.62304   0.48915   0.01267  Uiso   1.00
C3     C     0.30317   0.59714   0.56054   0.01267  Uiso   1.00
C4     C     0.39696   0.64466   0.55916   0.01267  Uiso   1.00
C5     C     0.46733   0.71587   0.48544   0.01267  Uiso   1.00
C6     C     0.44675   0.74034   0.41319   0.01267  Uiso   1.00
C7     C     0.35489   0.69488   0.41507   0.01267  Uiso   1.00
C8     C     0.41640   0.61912   0.63739   0.01267  Uiso   1.00
C9     C     0.38323   0.53495   0.69713   0.01267  Uiso   1.00
C10    C     0.40237   0.51147   0.76869   0.01267  Uiso   1.00
C11    C     0.45484   0.57209   0.78470   0.01267  Uiso   1.00
C12    C     0.48704   0.65561   0.72662   0.01267  Uiso   1.00
C13    C     0.46843   0.67949   0.65396   0.01267  Uiso   1.00
C14    C     0.47482   0.54665   0.86405   0.01267  Uiso   1.00
C15    C     0.67078   0.49390   0.93120   0.01267  Uiso   1.00
C16    C     0.77122   0.48915   0.88781   0.01267  Uiso   1.00
C17    C     0.86371   0.56054   0.84232   0.01267  Uiso   1.00
C18    C     0.95612   0.55916   0.79618   0.01267  Uiso   1.00
C19    C     0.95277   0.48544   0.79869   0.01267  Uiso   1.00
C20    C     0.85994   0.41319   0.84647   0.01267  Uiso   1.00
C21    C     0.76996   0.41507   0.89005   0.01267  Uiso   1.00
C22    C     0.05379   0.63739   0.74349   0.01267  Uiso   1.00
C23    C     0.08036   0.69713   0.76792   0.01267  Uiso   1.00
C24    C     0.17106   0.76869   0.71984   0.01267  Uiso   1.00
C25    C     0.23954   0.78470   0.64321   0.01267  Uiso   1.00
C26    C     0.21366   0.72662   0.61777   0.01267  Uiso   1.00
C27    C     0.12239   0.65396   0.66655   0.01267  Uiso   1.00
C28    C     0.33887   0.86405   0.58930   0.01267  Uiso   1.00
C29    C     0.60198   0.93120   0.57490   0.01267  Uiso   1.00
C30    C     0.65903   0.88781   0.62304   0.01267  Uiso   1.00
C31    C     0.70603   0.84232   0.59714   0.01267  Uiso   1.00
C32    C     0.75230   0.79618   0.64466   0.01267  Uiso   1.00
C33    C     0.75146   0.79869   0.71587   0.01267  Uiso   1.00
C34    C     0.70641   0.84647   0.74034   0.01267  Uiso   1.00
C35    C     0.66001   0.89005   0.69488   0.01267  Uiso   1.00
C36    C     0.79728   0.74349   0.61912   0.01267  Uiso   1.00
C37    C     0.84828   0.76792   0.53495   0.01267  Uiso   1.00
C38    C     0.89090   0.71984   0.51147   0.01267  Uiso   1.00
C39    C     0.88275   0.64321   0.57209   0.01267  Uiso   1.00
C40    C     0.83143   0.61777   0.65561   0.01267  Uiso   1.00
C41    C     0.78894   0.66655   0.67949   0.01267  Uiso   1.00
C42    C     0.92817   0.58930   0.54665   0.01267  Uiso   1.00
C43    C     0.82312   0.42510   0.50610   0.01267  Uiso   1.00
C44    C     0.71793   0.37696   0.51085   0.01267  Uiso   1.00
C45    C     0.69683   0.40286   0.43946   0.01267  Uiso   1.00
C46    C     0.60304   0.35534   0.44084   0.01267  Uiso   1.00
C47    C     0.53267   0.28413   0.51456   0.01267  Uiso   1.00
C48    C     0.55325   0.25966   0.58681   0.01267  Uiso   1.00
C49    C     0.64511   0.30512   0.58493   0.01267  Uiso   1.00
C50    C     0.58360   0.38088   0.36261   0.01267  Uiso   1.00
C51    C     0.61677   0.46505   0.30287   0.01267  Uiso   1.00
C52    C     0.59763   0.48853   0.23131   0.01267  Uiso   1.00
C53    C     0.54516   0.42791   0.21530   0.01267  Uiso   1.00
C54    C     0.51296   0.34439   0.27338   0.01267  Uiso   1.00
C55    C     0.53157   0.32051   0.34604   0.01267  Uiso   1.00
C56    C     0.52518   0.45335   0.13595   0.01267  Uiso   1.00
C57    C     0.32922   0.50610   0.06880   0.01267  Uiso   1.00
C58    C     0.22878   0.51085   0.11219   0.01267  Uiso   1.00
C59    C     0.13629   0.43946   0.15768   0.01267  Uiso   1.00
C60    C     0.04388   0.44084   0.20382   0.01267  Uiso   1.00
C61    C     0.04723   0.51456   0.20131   0.01267  Uiso   1.00
C62    C     0.14006   0.58681   0.15353   0.01267  Uiso   1.00
C63    C     0.23004   0.58493   0.10995   0.01267  Uiso   1.00
C64    C     0.94621   0.36261   0.25651   0.01267  Uiso   1.00
C65    C     0.91964   0.30287   0.23208   0.01267  Uiso   1.00
C66    C     0.82894   0.23131   0.28016   0.01267  Uiso   1.00
C67    C     0.76046   0.21530   0.35679   0.01267  Uiso   1.00
C68    C     0.78634   0.27338   0.38223   0.01267  Uiso   1.00
C69    C     0.87761   0.34604   0.33345   0.01267  Uiso   1.00
C70    C     0.66113   0.13595   0.41070   0.01267  Uiso   1.00
C71    C     0.39802   0.06880   0.42510   0.01267  Uiso   1.00
C72    C     0.34097   0.11219   0.37696   0.01267  Uiso   1.00
C73    C     0.29397   0.15768   0.40286   0.01267  Uiso   1.00
C74    C     0.24770   0.20382   0.35534   0.01267  Uiso   1.00
C75    C     0.24854   0.20131   0.28413   0.01267  Uiso   1.00
C76    C     0.29359   0.15353   0.25966   0.01267  Uiso   1.00
C77    C     0.33999   0.10995   0.30512   0.01267  Uiso   1.00
C78    C     0.20272   0.25651   0.38088   0.01267  Uiso   1.00
C79    C     0.15172   0.23208   0.46505   0.01267  Uiso   1.00
C80    C     0.10910   0.28016   0.48853   0.01267  Uiso   1.00
C81    C     0.11725   0.35679   0.42791   0.01267  Uiso   1.00
C82    C     0.16857   0.38223   0.34439   0.01267  Uiso   1.00
C83    C     0.21106   0.33345   0.32051   0.01267  Uiso   1.00
C84    C     0.07183   0.41070   0.45335   0.01267  Uiso   1.00
O1     O     0.11325   0.51188   0.56285   0.01267  Uiso   1.00
O2     O     0.16190   0.60436   0.42661   0.01267  Uiso   1.00
O3     O     0.43763   0.46924   0.91507   0.01267  Uiso   1.00
O4     O     0.52470   0.60445   0.87343   0.01267  Uiso   1.00
O5     O     0.67610   0.56285   0.92527   0.01267  Uiso   1.00
O6     O     0.58851   0.42661   0.96903   0.01267  Uiso   1.00
O7     O     0.35270   0.91507   0.61569   0.01267  Uiso   1.00
O8     O     0.39813   0.87343   0.52212   0.01267  Uiso   1.00
O9     O     0.60137   0.92527   0.51188   0.01267  Uiso   1.00
O10    O     0.55754   0.96903   0.60436   0.01267  Uiso   1.00
O11    O     0.96839   0.61569   0.46924   0.01267  Uiso   1.00
O12    O     0.92025   0.52212   0.60445   0.01267  Uiso   1.00
O13    O     0.88675   0.48812   0.43715   0.01267  Uiso   1.00
O14    O     0.83810   0.39564   0.57339   0.01267  Uiso   1.00
O15    O     0.56237   0.53076   0.08493   0.01267  Uiso   1.00
O16    O     0.47530   0.39555   0.12657   0.01267  Uiso   1.00
O17    O     0.32390   0.43715   0.07473   0.01267  Uiso   1.00
O18    O     0.41149   0.57339   0.03097   0.01267  Uiso   1.00
O19    O     0.64730   0.08493   0.38431   0.01267  Uiso   1.00
O20    O     0.60187   0.12657   0.47788   0.01267  Uiso   1.00
O21    O     0.39863   0.07473   0.48812   0.01267  Uiso   1.00
O22    O     0.44246   0.03097   0.39564   0.01267  Uiso   1.00
O23    O     0.03161   0.38431   0.53076   0.01267  Uiso   1.00
O24    O     0.07975   0.47788   0.39555   0.01267  Uiso   1.00
