data_MUBZOA
_audit_creation_date              2015-10-10
_audit_creation_method            'Materials Studio'
_symmetry_space_group_name_H-M    'P1'
_symmetry_Int_Tables_number       1
_symmetry_cell_setting            triclinic
loop_
_symmetry_equiv_pos_as_xyz
  x,y,z
_cell_length_a                    22.0710
_cell_length_b                    22.0710
_cell_length_c                    22.0710
_cell_angle_alpha                 90.0000
_cell_angle_beta                  90.0000
_cell_angle_gamma                 90.0000
loop_
_atom_site_label
_atom_site_type_symbol
_atom_site_fract_x
_atom_site_fract_y
_atom_site_fract_z
_atom_site_U_iso_or_equiv
_atom_site_adp_type
_atom_site_occupancy
C1     C     0.49826   1.00048  -0.66360   0.00000  Uiso   1.00
X2     C     0.44337   1.00434  -0.63173   0.00000  Uiso   1.00
C3     C     0.44438   1.00585  -0.56786   0.00000  Uiso   1.00
C4     C     0.49963   1.00089  -0.53463   0.00000  Uiso   1.00
C5     C     0.55396   0.99572  -0.56892   0.00000  Uiso   1.00
X6     C     0.55358   0.99681  -0.63259   0.00000  Uiso   1.00
C7     C     0.50071   1.00090  -0.46529   0.00000  Uiso   1.00
C8     C     0.55595   1.00593  -0.43206   0.00000  Uiso   1.00
X9     C     0.55695   1.00445  -0.36818   0.00000  Uiso   1.00
C10    C     0.50207   1.00056  -0.33632   0.00000  Uiso   1.00
X11    C     0.44675   0.99682  -0.36733   0.00000  Uiso   1.00
C12    C     0.44638   0.99569  -0.43100   0.00000  Uiso   1.00
H13    H     0.49805   1.00029  -0.71277   0.00000  Uiso   1.00
H14    H     0.40145   1.01133  -0.54521   0.00000  Uiso   1.00
H15    H     0.59741   0.99034  -0.54730   0.00000  Uiso   1.00
H16    H     0.59887   1.01145  -0.45472   0.00000  Uiso   1.00
H17    H     0.50228   1.00040  -0.28715   0.00000  Uiso   1.00
H18    H     0.40294   0.99025  -0.45261   0.00000  Uiso   1.00
C19    C    -0.66501   1.50032   0.00019   0.00000  Uiso   1.00
X20    C    -0.63329   1.44528   0.00366   0.00000  Uiso   1.00
C21    C    -0.56942   1.44605   0.00493   0.00000  Uiso   1.00
C22    C    -0.53591   1.50115   0.00029   0.00000  Uiso   1.00
C23    C    -0.57004   1.55574  -0.00439   0.00000  Uiso   1.00
X24    C    -0.63386   1.55569  -0.00322   0.00000  Uiso   1.00
C25    C    -0.46644   1.50170   0.00022   0.00000  Uiso   1.00
C26    C    -0.43283   1.55676   0.00482   0.00000  Uiso   1.00
X27    C    -0.36893   1.55737   0.00350   0.00000  Uiso   1.00
C28    C    -0.33737   1.50227  -0.00001   0.00000  Uiso   1.00
X29    C    -0.36863   1.44705  -0.00342   0.00000  Uiso   1.00
C30    C    -0.43237   1.44708  -0.00452   0.00000  Uiso   1.00
H31    H    -0.71420   1.50007   0.00014   0.00000  Uiso   1.00
H32    H    -0.54697   1.40298   0.00999   0.00000  Uiso   1.00
H33    H    -0.54809   1.59908  -0.00941   0.00000  Uiso   1.00
H34    H    -0.45520   1.59988   0.00988   0.00000  Uiso   1.00
H35    H    -0.28820   1.50223  -0.00010   0.00000  Uiso   1.00
H36    H    -0.45418   1.40369  -0.00954   0.00000  Uiso   1.00
C37    C     0.00029   0.33393   0.50004   0.00000  Uiso   1.00
X38    C     0.00399   0.36539   0.44488   0.00000  Uiso   1.00
C39    C     0.00527   0.42919   0.44523   0.00000  Uiso   1.00
C40    C     0.00022   0.46294   0.50002   0.00000  Uiso   1.00
C41    C    -0.00480   0.42920   0.55482   0.00000  Uiso   1.00
X42    C    -0.00344   0.36541   0.55519   0.00000  Uiso   1.00
C43    C     0.00018   0.53228   0.50001   0.00000  Uiso   1.00
C44    C     0.00532   0.56607   0.55479   0.00000  Uiso   1.00
X45    C     0.00398   0.62982   0.55505   0.00000  Uiso   1.00
C46    C     0.00009   0.66123   0.50000   0.00000  Uiso   1.00
X47    C    -0.00376   0.62981   0.44495   0.00000  Uiso   1.00
C48    C    -0.00501   0.56605   0.44523   0.00000  Uiso   1.00
H49    H     0.00032   0.28474   0.50005   0.00000  Uiso   1.00
H50    H     0.01068   0.45144   0.40207   0.00000  Uiso   1.00
H51    H    -0.01024   0.45145   0.59797   0.00000  Uiso   1.00
H52    H     0.01084   0.54405   0.59801   0.00000  Uiso   1.00
H53    H     0.00006   0.71037   0.49999   0.00000  Uiso   1.00
H54    H    -0.01050   0.54402   0.40200   0.00000  Uiso   1.00
O55    O    -0.15650   1.00275  -0.08162   0.00000  Uiso   1.00
O56    O     0.15686   0.99763  -0.08090   0.00000  Uiso   1.00
O57    O    -0.00202   1.08141  -0.15666   0.00000  Uiso   1.00
O58    O     0.00258   0.91891  -0.15660   0.00000  Uiso   1.00
O59    O     0.00223   0.84399  -0.08382   0.00000  Uiso   1.00
O60    O    -0.00183   1.15648  -0.08402   0.00000  Uiso   1.00
O61    O     0.08421   0.99794  -0.15599   0.00000  Uiso   1.00
O62    O    -0.08363   1.00242  -0.15644   0.00000  Uiso   1.00
Zr63   Zr    0.00023   1.00023  -0.10704   0.00000  Uiso   1.00
O64    O     0.05509   0.94532  -0.05477   0.00000  Uiso   1.00
O65    O    -0.05469   1.05531  -0.05502   0.00000  Uiso   1.00
X66    C    -0.13995   1.00389  -0.13799   0.00000  Uiso   1.00
X67    C     0.14040   0.99630  -0.13726   0.00000  Uiso   1.00
X68    C    -0.00331   1.13780  -0.14026   0.00000  Uiso   1.00
X69    C     0.00372   0.86254  -0.14006   0.00000  Uiso   1.00
H70    H     0.08097   1.08084  -0.08053   0.00000  Uiso   1.00
O71    O     0.05508   1.05500  -0.05467   0.00000  Uiso   1.00
H72    H    -0.08056   0.91966  -0.08084   0.00000  Uiso   1.00
O73    O    -0.05471   0.94548  -0.05491   0.00000  Uiso   1.00
O74    O     0.15684   1.00239   0.08164   0.00000  Uiso   1.00
O75    O    -0.15653   0.99785   0.08095   0.00000  Uiso   1.00
O76    O     0.08155   1.15705   0.00229   0.00000  Uiso   1.00
O77    O     0.08117   0.84351  -0.00229   0.00000  Uiso   1.00
O78    O    -0.08146   0.84362   0.00206   0.00000  Uiso   1.00
O79    O    -0.08093   1.15705  -0.00225   0.00000  Uiso   1.00
O80    O     0.00246   1.08134   0.15674   0.00000  Uiso   1.00
O81    O    -0.00237   0.91886   0.15661   0.00000  Uiso   1.00
O82    O     0.00243   1.15644   0.08412   0.00000  Uiso   1.00
O83    O    -0.00231   0.84397   0.08380   0.00000  Uiso   1.00
O84    O     0.15654   1.08432   0.00229   0.00000  Uiso   1.00
O85    O    -0.15601   1.08441  -0.00226   0.00000  Uiso   1.00
O86    O    -0.15633   0.91644   0.00174   0.00000  Uiso   1.00
O87    O     0.15632   0.91610  -0.00185   0.00000  Uiso   1.00
O88    O     0.08397   1.00219   0.15646   0.00000  Uiso   1.00
O89    O    -0.08389   0.99802   0.15604   0.00000  Uiso   1.00
Zr90   Zr    0.10732   1.00022   0.00027   0.00000  Uiso   1.00
Zr91   Zr   -0.10698   1.00036  -0.00023   0.00000  Uiso   1.00
Zr92   Zr    0.00029   1.10739   0.00004   0.00000  Uiso   1.00
Zr93   Zr   -0.00004   0.89317  -0.00000   0.00000  Uiso   1.00
Zr94   Zr    0.00009   1.00018   0.10708   0.00000  Uiso   1.00
O95    O    -0.05497   0.94536   0.05485   0.00000  Uiso   1.00
O96    O     0.05515   1.05522   0.05511   0.00000  Uiso   1.00
X97    C     0.14029   1.00353   0.13802   0.00000  Uiso   1.00
X98    C    -0.14007   0.99648   0.13731   0.00000  Uiso   1.00
X99    C     0.13796   1.14064   0.00355   0.00000  Uiso   1.00
X100   C     0.13759   0.85986  -0.00340   0.00000  Uiso   1.00
X101   C    -0.13786   0.86012   0.00308   0.00000  Uiso   1.00
X102   C    -0.13733   1.14065  -0.00354   0.00000  Uiso   1.00
X103   C     0.00385   1.13774   0.14035   0.00000  Uiso   1.00
X104   C    -0.00368   0.86249   0.14005   0.00000  Uiso   1.00
H105   H    -0.08048   1.08091   0.08059   0.00000  Uiso   1.00
O106   O    -0.05463   1.05505   0.05471   0.00000  Uiso   1.00
H107   H     0.08065   0.91947   0.08077   0.00000  Uiso   1.00
O108   O     0.05486   0.94536   0.05487   0.00000  Uiso   1.00
C109   C     0.29074   1.00768   0.26576   0.00000  Uiso   1.00
C110   C     0.23104   1.00070   0.28713   0.00000  Uiso   1.00
C111   C     0.18161   0.99998   0.24638   0.00000  Uiso   1.00
X116   C     0.19109   1.00597   0.18344   0.00000  Uiso   1.00
C113   C     0.25128   1.01354   0.16296   0.00000  Uiso   1.00
C114   C     0.30013   1.01435   0.20344   0.00000  Uiso   1.00
C115   C     0.34322   1.00701   0.30618   0.00000  Uiso   1.00
X112   C     0.38936   1.00612   0.33659   0.00000  Uiso   1.00
H117   H     0.22267   0.99542   0.33519   0.00000  Uiso   1.00
H118   H     0.13622   0.99410   0.26403   0.00000  Uiso   1.00
H119   H     0.26110   1.01869   0.11518   0.00000  Uiso   1.00
H120   H     0.34563   1.01982   0.18581   0.00000  Uiso   1.00
C121   C    -0.29101   0.99205   0.26346   0.00000  Uiso   1.00
C122   C    -0.29944   0.98075   0.20172   0.00000  Uiso   1.00
C123   C    -0.25027   0.98138   0.16177   0.00000  Uiso   1.00
X128   C    -0.19087   0.99342   0.18233   0.00000  Uiso   1.00
C125   C    -0.18228   1.00369   0.24478   0.00000  Uiso   1.00
C126   C    -0.23204   1.00319   0.28499   0.00000  Uiso   1.00
C127   C    -0.34376   0.99332   0.30315   0.00000  Uiso   1.00
X124   C    -0.38982   0.99459   0.33340   0.00000  Uiso   1.00
H129   H    -0.34442   0.97194   0.18412   0.00000  Uiso   1.00
H130   H    -0.25918   0.97265   0.11432   0.00000  Uiso   1.00
H131   H    -0.13746   1.01311   0.26235   0.00000  Uiso   1.00
H132   H    -0.22457   1.01205   0.33267   0.00000  Uiso   1.00
C133   C    -0.29040   1.00807  -0.26571   0.00000  Uiso   1.00
C134   C    -0.29970   1.01544  -0.20345   0.00000  Uiso   1.00
C135   C    -0.25085   1.01467  -0.16299   0.00000  Uiso   1.00
X140   C    -0.19073   1.00644  -0.18341   0.00000  Uiso   1.00
C137   C    -0.18131   0.99981  -0.24630   0.00000  Uiso   1.00
C138   C    -0.23076   1.00048  -0.28704   0.00000  Uiso   1.00
C139   C    -0.34290   1.00729  -0.30610   0.00000  Uiso   1.00
X136   C    -0.38904   1.00631  -0.33651   0.00000  Uiso   1.00
H141   H    -0.34516   1.02140  -0.18587   0.00000  Uiso   1.00
H142   H    -0.26059   1.02035  -0.11525   0.00000  Uiso   1.00
H143   H    -0.13598   0.99340  -0.26391   0.00000  Uiso   1.00
H144   H    -0.22245   0.99465  -0.33504   0.00000  Uiso   1.00
C145   C     0.29134   0.99192  -0.26341   0.00000  Uiso   1.00
C146   C     0.29973   0.98040  -0.20170   0.00000  Uiso   1.00
C147   C     0.25055   0.98100  -0.16176   0.00000  Uiso   1.00
X152   C     0.19119   0.99322  -0.18229   0.00000  Uiso   1.00
C149   C     0.18262   1.00370  -0.24472   0.00000  Uiso   1.00
C150   C     0.23239   1.00323  -0.28492   0.00000  Uiso   1.00
C151   C     0.34409   0.99325  -0.30308   0.00000  Uiso   1.00
X148   C     0.39015   0.99455  -0.33333   0.00000  Uiso   1.00
H153   H     0.34469   0.97146  -0.18413   0.00000  Uiso   1.00
H154   H     0.25944   0.97211  -0.11433   0.00000  Uiso   1.00
H155   H     0.13782   1.01327  -0.26226   0.00000  Uiso   1.00
H156   H     0.22494   1.01227  -0.33257   0.00000  Uiso   1.00
C157   C     0.26474   1.29208   0.00728   0.00000  Uiso   1.00
C158   C     0.20248   1.30084   0.01525   0.00000  Uiso   1.00
C159   C     0.16239   1.25166   0.01467   0.00000  Uiso   1.00
X164   C     0.18315   1.19170   0.00602   0.00000  Uiso   1.00
C161   C     0.24605   1.18281  -0.00119   0.00000  Uiso   1.00
C162   C     0.28643   1.23259  -0.00070   0.00000  Uiso   1.00
C163   C     0.30476   1.34493   0.00639   0.00000  Uiso   1.00
X160   C     0.33496   1.39124   0.00540   0.00000  Uiso   1.00
H165   H     0.18460   1.34613   0.02156   0.00000  Uiso   1.00
H166   H     0.11463   1.26105   0.02083   0.00000  Uiso   1.00
H167   H     0.26393   1.13763  -0.00795   0.00000  Uiso   1.00
H168   H     0.33444   1.22466  -0.00698   0.00000  Uiso   1.00
C169   C     0.26391   0.70843  -0.00724   0.00000  Uiso   1.00
C170   C     0.28561   0.76769   0.00209   0.00000  Uiso   1.00
C171   C     0.24538   0.81752   0.00253   0.00000  Uiso   1.00
X176   C     0.18265   0.80884  -0.00607   0.00000  Uiso   1.00
C173   C     0.16188   0.74912  -0.01617   0.00000  Uiso   1.00
C174   C     0.20185   0.69988  -0.01670   0.00000  Uiso   1.00
C175   C     0.30374   0.65557  -0.00616   0.00000  Uiso   1.00
X172   C     0.33399   0.60938  -0.00506   0.00000  Uiso   1.00
H177   H     0.33350   0.77537   0.00952   0.00000  Uiso   1.00
H178   H     0.26320   0.86254   0.01042   0.00000  Uiso   1.00
H179   H     0.11424   0.73998  -0.02348   0.00000  Uiso   1.00
H180   H     0.18402   0.65473  -0.02409   0.00000  Uiso   1.00
C181   C    -0.26577   0.70967   0.00674   0.00000  Uiso   1.00
C182   C    -0.20338   0.70017   0.01271   0.00000  Uiso   1.00
C183   C    -0.16284   0.74899   0.01203   0.00000  Uiso   1.00
X188   C    -0.18330   0.80929   0.00529   0.00000  Uiso   1.00
C185   C    -0.24629   0.81888  -0.00005   0.00000  Uiso   1.00
C186   C    -0.28710   0.76948   0.00056   0.00000  Uiso   1.00
C187   C    -0.30633   0.65726   0.00608   0.00000  Uiso   1.00
X184   C    -0.33694   0.61123   0.00520   0.00000  Uiso   1.00
H189   H    -0.18576   0.65460   0.01757   0.00000  Uiso   1.00
H190   H    -0.11502   0.73907   0.01662   0.00000  Uiso   1.00
H191   H    -0.26396   0.86434  -0.00528   0.00000  Uiso   1.00
H192   H    -0.33520   0.77797  -0.00417   0.00000  Uiso   1.00
C193   C    -0.26413   1.29159  -0.00737   0.00000  Uiso   1.00
C194   C    -0.28574   1.23215   0.00084   0.00000  Uiso   1.00
C195   C    -0.24530   1.18250   0.00134   0.00000  Uiso   1.00
X200   C    -0.18247   1.19157  -0.00607   0.00000  Uiso   1.00
C197   C    -0.16178   1.25150  -0.01498   0.00000  Uiso   1.00
C198   C    -0.20195   1.30055  -0.01558   0.00000  Uiso   1.00
C199   C    -0.30422   1.34422  -0.00642   0.00000  Uiso   1.00
X196   C    -0.33467   1.39025  -0.00538   0.00000  Uiso   1.00
H201   H    -0.33372   1.22416   0.00730   0.00000  Uiso   1.00
H202   H    -0.26307   1.13731   0.00830   0.00000  Uiso   1.00
H203   H    -0.11406   1.26093  -0.02132   0.00000  Uiso   1.00
H204   H    -0.18420   1.34587  -0.02206   0.00000  Uiso   1.00
C205   C     0.00818   1.26385   0.29180   0.00000  Uiso   1.00
C206   C     0.01853   1.20190   0.30015   0.00000  Uiso   1.00
C207   C     0.01787   1.16202   0.25088   0.00000  Uiso   1.00
X212   C     0.00676   1.18276   0.19134   0.00000  Uiso   1.00
C209   C    -0.00264   1.24539   0.18282   0.00000  Uiso   1.00
C210   C    -0.00210   1.28555   0.23270   0.00000  Uiso   1.00
C211   C     0.00707   1.30351   0.34474   0.00000  Uiso   1.00
X208   C     0.00593   1.33356   0.39104   0.00000  Uiso   1.00
H213   H     0.02665   1.18410   0.34518   0.00000  Uiso   1.00
H214   H     0.02588   1.11445   0.25984   0.00000  Uiso   1.00
H215   H    -0.01133   1.26316   0.13793   0.00000  Uiso   1.00
H216   H    -0.01023   1.33335   0.22520   0.00000  Uiso   1.00
C217   C    -0.00761   1.26391  -0.29170   0.00000  Uiso   1.00
C218   C    -0.01807   1.20199  -0.30004   0.00000  Uiso   1.00
C219   C    -0.01743   1.16211  -0.25076   0.00000  Uiso   1.00
X224   C    -0.00621   1.18283  -0.19123   0.00000  Uiso   1.00
C221   C     0.00332   1.24544  -0.18273   0.00000  Uiso   1.00
C222   C     0.00279   1.28560  -0.23262   0.00000  Uiso   1.00
C223   C    -0.00649   1.30356  -0.34465   0.00000  Uiso   1.00
X220   C    -0.00536   1.33359  -0.39096   0.00000  Uiso   1.00
H225   H    -0.02629   1.18419  -0.34506   0.00000  Uiso   1.00
H226   H    -0.02554   1.11456  -0.25971   0.00000  Uiso   1.00
H227   H     0.01209   1.26320  -0.13786   0.00000  Uiso   1.00
H228   H     0.01101   1.33339  -0.22513   0.00000  Uiso   1.00
C229   C     0.00795   0.73483  -0.29005   0.00000  Uiso   1.00
C230   C     0.01560   0.79701  -0.29954   0.00000  Uiso   1.00
C231   C     0.01483   0.83754  -0.25079   0.00000  Uiso   1.00
X236   C     0.00632   0.81718  -0.19071   0.00000  Uiso   1.00
C233   C    -0.00057   0.75437  -0.18114   0.00000  Uiso   1.00
C234   C     0.00011   0.71358  -0.23045   0.00000  Uiso   1.00
C235   C     0.00711   0.69437  -0.34232   0.00000  Uiso   1.00
X232   C     0.00607   0.66371  -0.38817   0.00000  Uiso   1.00
H237   H     0.02177   0.81446  -0.34501   0.00000  Uiso   1.00
H238   H     0.02073   0.88525  -0.26058   0.00000  Uiso   1.00
H239   H    -0.00720   0.73687  -0.13579   0.00000  Uiso   1.00
H240   H    -0.00594   0.66560  -0.22210   0.00000  Uiso   1.00
C241   C    -0.00789   0.73479   0.29004   0.00000  Uiso   1.00
C242   C     0.00017   0.71355   0.23046   0.00000  Uiso   1.00
C243   C     0.00081   0.75434   0.18114   0.00000  Uiso   1.00
X248   C    -0.00631   0.81712   0.19069   0.00000  Uiso   1.00
C245   C    -0.01505   0.83746   0.25074   0.00000  Uiso   1.00
C246   C    -0.01579   0.79694   0.29949   0.00000  Uiso   1.00
C247   C    -0.00698   0.69434   0.34231   0.00000  Uiso   1.00
X244   C    -0.00590   0.66368   0.38817   0.00000  Uiso   1.00
H249   H     0.00642   0.66560   0.22213   0.00000  Uiso   1.00
H250   H     0.00764   0.73686   0.13582   0.00000  Uiso   1.00
H251   H    -0.02114   0.88515   0.26051   0.00000  Uiso   1.00
H252   H    -0.02213   0.81437   0.34495   0.00000  Uiso   1.00
loop_
_geom_bond_atom_site_label_1
_geom_bond_atom_site_label_2
_geom_bond_distance
_geom_bond_site_symmetry_2
_ccdc_geom_bond_type
C1     X2      1.403   .     A
C1     X6      1.402   .     A
C1     H13     1.085   .     S
X2     C3      1.410   .     A
X2     X112    1.383   1_554 A
C3     C4      1.427   .     A
C3     H14     1.078   .     S
C4     C5      1.422   .     A
C4     C7      1.531   .     S
C5     X6      1.406   .     A
C5     H15     1.078   .     S
X6     X124    1.458   1_654 S
C7     C8      1.427   .     A
C7     C12     1.422   .     A
C8     X9      1.410   .     A
C8     H16     1.078   .     S
X9     C10     1.403   .     A
X9     X136    1.383   1_655 A
C10    X11     1.402   .     A
C10    H17     1.085   .     S
X11    C12     1.406   .     A
X11    X148    1.458   .     S
C12    H18     1.078   .     S
C19    X20     1.404   .     A
C19    X24     1.404   .     A
C19    H31     1.086   .     S
X20    C21     1.410   .     A
X20    X160    1.384   1_455 A
C21    C22     1.427   .     A
C21    H32     1.078   .     S
C22    C23     1.425   .     A
C22    C25     1.533   .     S
C23    X24     1.409   .     A
C23    H33     1.078   .     S
X24    X172    1.382   1_465 A
C25    C26     1.427   .     A
C25    C30     1.425   .     A
C26    X27     1.411   .     A
C26    H34     1.078   .     S
X27    C28     1.404   .     A
X27    X184    1.383   1_565 A
C28    X29     1.402   .     A
C28    H35     1.085   .     S
X29    C30     1.407   .     A
X29    X196    1.461   .     S
C30    H36     1.077   .     S
C37    X38     1.404   .     A
C37    X42     1.404   .     A
C37    H49     1.086   .     S
X38    C39     1.408   .     A
X38    X208    1.381   1_545 A
C39    C40     1.425   .     A
C39    H50     1.078   .     S
C40    C41     1.425   .     A
C40    C43     1.531   .     S
C41    X42     1.408   .     A
C41    H51     1.078   .     S
X42    X220    1.381   1_546 A
C43    C44     1.425   .     A
C43    C48     1.425   .     A
C44    X45     1.407   .     A
C44    H52     1.078   .     S
X45    C46     1.402   .     A
X45    X232    1.460   1_556 S
C46    X47     1.402   .     A
C46    H53     1.085   .     S
X47    C48     1.407   .     A
X47    X244    1.460   .     S
C48    H54     1.078   .     S
O55    Zr91    2.103   .     S
O55    X66     1.297   .     A
O56    Zr90    2.100   .     S
O56    X67     1.296   .     A
O57    Zr63    2.100   .     S
O57    X68     1.296   .     A
O58    Zr63    2.102   .     S
O58    X69     1.297   .     A
O59    Zr93    2.146   .     S
O59    X69     1.307   .     A
O60    Zr92    2.149   .     S
O60    X68     1.308   .     A
O61    Zr63    2.146   .     S
O61    X67     1.308   .     A
O62    Zr63    2.149   .     S
O62    X66     1.308   .     A
Zr63   O64     2.066   .     S
Zr63   O65     2.065   .     S
Zr63   O73     2.063   .     S
Zr63   O71     2.065   .     S
O64    Zr90    2.067   .     S
O64    Zr93    2.065   .     S
O65    Zr91    2.065   .     S
O65    Zr92    2.067   .     S
X66    X140    1.505   .     S
X67    X152    1.500   .     S
X68    X224    1.503   .     S
X69    X236    1.502   .     S
H70    O71     0.989   .     S
O71    Zr90    2.064   .     S
O71    Zr92    2.063   .     S
H72    O73     0.989   .     S
O73    Zr91    2.063   .     S
O73    Zr93    2.063   .     S
O74    Zr90    2.103   .     S
O74    X97     1.297   .     A
O75    Zr91    2.100   .     S
O75    X98     1.296   .     A
O76    Zr92    2.102   .     S
O76    X99     1.297   .     A
O77    Zr93    2.102   .     S
O77    X100    1.297   .     A
O78    Zr93    2.104   .     S
O78    X101    1.297   .     A
O79    Zr92    2.102   .     S
O79    X102    1.297   .     A
O80    Zr94    2.101   .     S
O80    X103    1.296   .     A
O81    Zr94    2.102   .     S
O81    X104    1.297   .     A
O82    Zr92    2.149   .     S
O82    X103    1.308   .     A
O83    Zr93    2.146   .     S
O83    X104    1.307   .     A
O84    Zr90    2.151   .     S
O84    X99     1.309   .     A
O85    Zr91    2.148   .     S
O85    X102    1.308   .     A
O86    Zr91    2.149   .     S
O86    X101    1.308   .     A
O87    Zr90    2.149   .     S
O87    X100    1.309   .     A
O88    Zr94    2.149   .     S
O88    X97     1.308   .     A
O89    Zr94    2.146   .     S
O89    X98     1.308   .     A
Zr90   O96     2.065   .     S
Zr90   O108    2.064   .     S
Zr91   O95     2.066   .     S
Zr91   O106    2.065   .     S
Zr92   O96     2.066   .     S
Zr92   O106    2.064   .     S
Zr93   O95     2.065   .     S
Zr93   O108    2.064   .     S
Zr94   O95     2.066   .     S
Zr94   O96     2.066   .     S
Zr94   O108    2.062   .     S
Zr94   O106    2.064   .     S
X97    X116    1.505   .     S
X98    X128    1.500   .     S
X99    X164    1.506   .     S
X100   X176    1.504   .     S
X101   X188    1.506   .     S
X102   X200    1.503   .     S
X103   X212    1.503   .     S
X104   X248    1.502   .     S
H105   O106    0.989   .     S
H107   O108    0.989   .     S
C109   C110    1.408   .     A
C109   C114    1.399   .     A
C109   C115    1.462   .     S
C110   C111    1.414   .     A
C110   H117    1.083   .     S
C111   X116    1.411   .     A
C111   H118    1.083   .     S
X116   C113    1.413   .     A
C113   C114    1.400   .     A
C113   H119    1.083   .     S
C114   H120    1.084   .     S
C115   X112    1.220   .     T
X112   X2      1.383   1_556 A
C121   C122    1.398   .     A
C121   C126    1.407   .     A
C121   C127    1.457   .     S
C122   C123    1.398   .     A
C122   H129    1.084   .     S
C123   X128    1.412   .     A
C123   H130    1.083   .     S
X128   C125    1.410   .     A
C125   C126    1.412   .     A
C125   H131    1.083   .     S
C126   H132    1.083   .     S
C127   X124    1.217   .     T
X124   X6      1.458   1_456 S
C133   C134    1.399   .     A
C133   C138    1.408   .     A
C133   C139    1.462   .     S
C134   C135    1.400   .     A
C134   H141    1.084   .     S
C135   X140    1.413   .     A
C135   H142    1.083   .     S
X140   C137    1.411   .     A
C137   C138    1.414   .     A
C137   H143    1.083   .     S
C138   H144    1.083   .     S
C139   X136    1.220   .     T
X136   X9      1.383   1_455 A
C145   C146    1.398   .     A
C145   C150    1.407   .     A
C145   C151    1.457   .     S
C146   C147    1.398   .     A
C146   H153    1.084   .     S
C147   X152    1.412   .     A
C147   H154    1.083   .     S
X152   C149    1.410   .     A
C149   C150    1.412   .     A
C149   H155    1.083   .     S
C150   H156    1.083   .     S
C151   X148    1.217   .     T
C157   C158    1.399   .     A
C157   C162    1.409   .     A
C157   C163    1.463   .     S
C158   C159    1.401   .     A
C158   H165    1.084   .     S
C159   X164    1.414   .     A
C159   H166    1.083   .     S
X164   C161    1.411   .     A
C161   C162    1.415   .     A
C161   H167    1.083   .     S
C162   H168    1.083   .     S
C163   X160    1.220   .     T
X160   X20     1.384   1_655 A
C169   C170    1.408   .     A
C169   C174    1.398   .     A
C169   C175    1.461   .     S
C170   C171    1.414   .     A
C170   H177    1.083   .     S
C171   X176    1.411   .     A
C171   H178    1.083   .     S
X176   C173    1.413   .     A
C173   C174    1.400   .     A
C173   H179    1.083   .     S
C174   H180    1.084   .     S
C175   X172    1.219   .     T
X172   X24     1.382   1_645 A
C181   C182    1.399   .     A
C181   C186    1.408   .     A
C181   C187    1.463   .     S
C182   C183    1.401   .     A
C182   H189    1.084   .     S
C183   X188    1.413   .     A
C183   H190    1.083   .     S
X188   C185    1.411   .     A
C185   C186    1.414   .     A
C185   H191    1.083   .     S
C186   H192    1.083   .     S
C187   X184    1.220   .     T
X184   X27     1.383   1_545 A
C193   C194    1.408   .     A
C193   C198    1.398   .     A
C193   C199    1.460   .     S
C194   C195    1.413   .     A
C194   H201    1.083   .     S
C195   X200    1.410   .     A
C195   H202    1.083   .     S
X200   C197    1.413   .     A
C197   C198    1.399   .     A
C197   H203    1.083   .     S
C198   H204    1.084   .     S
C199   X196    1.218   .     T
C205   C206    1.398   .     A
C205   C210    1.408   .     A
C205   C211    1.460   .     S
C206   C207    1.399   .     A
C206   H213    1.084   .     S
C207   X212    1.413   .     A
C207   H214    1.083   .     S
X212   C209    1.410   .     A
C209   C210    1.413   .     A
C209   H215    1.083   .     S
C210   H216    1.083   .     S
C211   X208    1.219   .     T
X208   X38     1.381   1_565 A
C217   C218    1.398   .     A
C217   C222    1.408   .     A
C217   C223    1.460   .     S
C218   C219    1.399   .     A
C218   H225    1.084   .     S
C219   X224    1.413   .     A
C219   H226    1.083   .     S
X224   C221    1.410   .     A
C221   C222    1.413   .     A
C221   H227    1.083   .     S
C222   H228    1.083   .     S
C223   X220    1.219   .     T
X220   X42     1.381   1_564 A
C229   C230    1.398   .     A
C229   C234    1.407   .     A
C229   C235    1.459   .     S
C230   C231    1.399   .     A
C230   H237    1.084   .     S
C231   X236    1.413   .     A
C231   H238    1.083   .     S
X236   C233    1.410   .     A
C233   C234    1.413   .     A
C233   H239    1.083   .     S
C234   H240    1.083   .     S
C235   X232    1.218   .     T
X232   X45     1.460   1_554 S
C241   C242    1.407   .     A
C241   C246    1.398   .     A
C241   C247    1.459   .     S
C242   C243    1.413   .     A
C242   H249    1.083   .     S
C243   X248    1.410   .     A
C243   H250    1.083   .     S
X248   C245    1.413   .     A
C245   C246    1.399   .     A
C245   H251    1.083   .     S
C246   H252    1.084   .     S
C247   X244    1.218   .     T
