data_MUDLIH_clean5b
_audit_creation_date              2014-07-02
_audit_creation_method            'Materials Studio'
_symmetry_space_group_name_H-M    'P1'
_symmetry_Int_Tables_number       1
_symmetry_cell_setting            triclinic
loop_
_symmetry_equiv_pos_as_xyz
  x,y,z
_cell_length_a                    18.2721
_cell_length_b                    18.2721
_cell_length_c                    18.2721
_cell_angle_alpha                 105.0510
_cell_angle_beta                  105.0510
_cell_angle_gamma                 118.7280
loop_
_atom_site_label
_atom_site_type_symbol
_atom_site_fract_x
_atom_site_fract_y
_atom_site_fract_z
_atom_site_U_iso_or_equiv
_atom_site_adp_type
_atom_site_occupancy
Cd1    Cd    0.40960   0.92216   0.12310   0.01267  Uiso   1.00
Cd2    Cd    0.56678   0.18620   0.21506   0.01267  Uiso   1.00
Cd3    Cd    0.57085   0.82989   0.20624   0.01267  Uiso   1.00
H1     H     0.77154   0.27209   0.42492   0.01267  Uiso   1.00
H2     H     0.81689   0.27384   0.34471   0.01267  Uiso   1.00
H3     H     0.85104   0.23603   0.42466   0.01267  Uiso   1.00
H4     H     0.14673   0.71055   0.15890   0.01267  Uiso   1.00
H5     H     0.19974   0.79094   0.11352   0.01267  Uiso   1.00
H6     H     0.22800   0.83943   0.22803   0.01267  Uiso   1.00
C1     C     0.70980   0.13720   0.32400   0.01267  Uiso   1.00
C2     C     0.79210   0.23550   0.38300   0.01267  Uiso   1.00
C3     C     0.29290   0.77290   0.19380   0.01267  Uiso   1.00
C4     C     0.21210   0.77880   0.17230   0.01267  Uiso   1.00
N1     N     0.62940   0.11170   0.26450   0.01267  Uiso   1.00
N2     N     0.57500   0.01710   0.22670   0.01267  Uiso   1.00
N3     N     0.62020   0.98850   0.26170   0.01267  Uiso   1.00
N4     N     0.70500   0.06180   0.32360   0.01267  Uiso   1.00
N5     N     0.45910   0.00040   0.04170   0.01267  Uiso   1.00
N6     N     0.52040   0.09350   0.07050   0.01267  Uiso   1.00
N7     N     0.29730   0.71370   0.22260   0.01267  Uiso   1.00
N8     N     0.37980   0.73020   0.23300   0.01267  Uiso   1.00
N9     N     0.42430   0.79610   0.21180   0.01267  Uiso   1.00
N10    N     0.37080   0.82530   0.18790   0.01267  Uiso   1.00
N11    N     0.50410   0.80490   0.06880   0.01267  Uiso   1.00
N12    N     0.43940   0.82060   0.04140   0.01267  Uiso   1.00
Cl1    Cl    0.41523   0.05790   0.21295   0.01267  Uiso   1.00
Cl2    Cl    0.49393   0.26310   0.16135   0.01267  Uiso   1.00
Cd4    Cd    0.79906   0.28650   0.87690   0.01267  Uiso   1.00
Cd5    Cd    0.97114   0.35172   0.78494   0.01267  Uiso   1.00
Cd6    Cd    0.62365   0.36461   0.79376   0.01267  Uiso   1.00
H7     H     0.92772   0.47493   0.65520   0.01267  Uiso   1.00
H8     H     0.80854   0.42187   0.57252   0.01267  Uiso   1.00
H9     H     0.85140   0.34839   0.57799   0.01267  Uiso   1.00
H10    H     0.61608   0.00368   0.77379   0.01267  Uiso   1.00
H11    H     0.54932   0.98469   0.83682   0.01267  Uiso   1.00
H12    H     0.67506   0.08565   0.88894   0.01267  Uiso   1.00
C5     C     0.81320   0.38580   0.67600   0.01267  Uiso   1.00
C6     C     0.85250   0.40910   0.61700   0.01267  Uiso   1.00
C7     C     0.57910   0.09910   0.80620   0.01267  Uiso   1.00
C8     C     0.60650   0.03980   0.82770   0.01267  Uiso   1.00
N13    N     0.84720   0.36490   0.73550   0.01267  Uiso   1.00
N14    N     0.79040   0.34830   0.77330   0.01267  Uiso   1.00
N15    N     0.72680   0.35850   0.73830   0.01267  Uiso   1.00
N16    N     0.73820   0.38140   0.67640   0.01267  Uiso   1.00
N17    N     0.95870   0.41740   0.95830   0.01267  Uiso   1.00
N18    N     0.02300   0.44990   0.92950   0.01267  Uiso   1.00
N19    N     0.49110   0.07470   0.77740   0.01267  Uiso   1.00
N20    N     0.49720   0.14680   0.76700   0.01267  Uiso   1.00
N21    N     0.58430   0.21250   0.78820   0.01267  Uiso   1.00
N22    N     0.63740   0.18290   0.81210   0.01267  Uiso   1.00
N23    N     0.73610   0.43530   0.93120   0.01267  Uiso   1.00
N24    N     0.77920   0.39800   0.95860   0.01267  Uiso   1.00
Cl3    Cl    0.84495   0.20228   0.78705   0.01267  Uiso   1.00
Cl4    Cl    0.10175   0.33258   0.83865   0.01267  Uiso   1.00
Cd7    Cd    0.07784   0.20094   0.48744   0.01267  Uiso   1.00
Cd8    Cd    0.81380   0.02886   0.38058   0.01267  Uiso   1.00
Cd9    Cd    0.17011   0.37635   0.74097   0.01267  Uiso   1.00
H13    H     0.76396   0.19261   0.61253   0.01267  Uiso   1.00
H14    H     0.72806   0.07296   0.54900   0.01267  Uiso   1.00
H15    H     0.72603   0.14676   0.49599   0.01267  Uiso   1.00
H16    H     0.25526   0.35550   0.42557   0.01267  Uiso   1.00
H17    H     0.25926   0.45891   0.42438   0.01267  Uiso   1.00
H18    H     0.14456   0.34513   0.38360   0.01267  Uiso   1.00
C9     C     0.86280   0.18680   0.57260   0.01267  Uiso   1.00
C10    C     0.76450   0.14750   0.55660   0.01267  Uiso   1.00
C11    C     0.22710   0.42090   0.52000   0.01267  Uiso   1.00
C12    C     0.22120   0.39350   0.43330   0.01267  Uiso   1.00
N25    N     0.88830   0.15280   0.51770   0.01267  Uiso   1.00
N26    N     0.98290   0.20960   0.55790   0.01267  Uiso   1.00
N27    N     0.01150   0.27320   0.63170   0.01267  Uiso   1.00
N28    N     0.93820   0.26180   0.64320   0.01267  Uiso   1.00
N29    N     0.99960   0.04130   0.45870   0.01267  Uiso   1.00
N30    N     0.90650   0.97700   0.42690   0.01267  Uiso   1.00
N31    N     0.28630   0.50890   0.58360   0.01267  Uiso   1.00
N32    N     0.26980   0.50280   0.64960   0.01267  Uiso   1.00
N33    N     0.20390   0.41570   0.62820   0.01267  Uiso   1.00
N34    N     0.17470   0.36260   0.54550   0.01267  Uiso   1.00
N35    N     0.19510   0.26390   0.69920   0.01267  Uiso   1.00
N36    N     0.17940   0.22080   0.61880   0.01267  Uiso   1.00
Cl5    Cl    0.94210   0.15505   0.35733   0.01267  Uiso   1.00
Cl6    Cl    0.73690   0.89825   0.23083   0.01267  Uiso   1.00
Cd10   Cd    0.71350   0.59040   0.51256   0.01267  Uiso   1.00
Cd11   Cd    0.64828   0.43322   0.61942   0.01267  Uiso   1.00
Cd12   Cd    0.63539   0.42915   0.25904   0.01267  Uiso   1.00
H19    H     0.53499   0.18971   0.46639   0.01267  Uiso   1.00
H20    H     0.65646   0.22521   0.49406   0.01267  Uiso   1.00
H21    H     0.56337   0.14561   0.38204   0.01267  Uiso   1.00
H22    H     0.00819   0.85441   0.56299   0.01267  Uiso   1.00
H23    H     0.00437   0.77449   0.61013   0.01267  Uiso   1.00
H24    H     0.91342   0.79663   0.59332   0.01267  Uiso   1.00
C13    C     0.61420   0.29020   0.42740   0.01267  Uiso   1.00
C14    C     0.59090   0.20790   0.44340   0.01267  Uiso   1.00
C15    C     0.90090   0.70710   0.48000   0.01267  Uiso   1.00
C16    C     0.96020   0.78790   0.56670   0.01267  Uiso   1.00
N37    N     0.63510   0.37060   0.48230   0.01267  Uiso   1.00
N38    N     0.65170   0.42500   0.44210   0.01267  Uiso   1.00
N39    N     0.64150   0.37980   0.36830   0.01267  Uiso   1.00
N40    N     0.61860   0.29500   0.35680   0.01267  Uiso   1.00
N41    N     0.58260   0.54090   0.54130   0.01267  Uiso   1.00
N42    N     0.55010   0.47960   0.57310   0.01267  Uiso   1.00
N43    N     0.92530   0.70270   0.41640   0.01267  Uiso   1.00
N44    N     0.85320   0.62020   0.35040   0.01267  Uiso   1.00
N45    N     0.78750   0.57570   0.37180   0.01267  Uiso   1.00
N46    N     0.81710   0.62920   0.45450   0.01267  Uiso   1.00
N47    N     0.56470   0.49590   0.30080   0.01267  Uiso   1.00
N48    N     0.60200   0.56060   0.38120   0.01267  Uiso   1.00
Cl7    Cl    0.79772   0.58477   0.64267   0.01267  Uiso   1.00
Cl8    Cl    0.66742   0.50607   0.76917   0.01267  Uiso   1.00
Cd13   Cd    0.20094   0.07784   0.48744   0.01267  Uiso   1.00
Cd14   Cd    0.02886   0.81380   0.38058   0.01267  Uiso   1.00
Cd15   Cd    0.37635   0.17011   0.74097   0.01267  Uiso   1.00
H25    H     0.07926   0.73248   0.56201   0.01267  Uiso   1.00
H26    H     0.19978   0.76327   0.60552   0.01267  Uiso   1.00
H27    H     0.13330   0.72229   0.48999   0.01267  Uiso   1.00
H28    H     0.40075   0.16919   0.39154   0.01267  Uiso   1.00
H29    H     0.44108   0.29316   0.43778   0.01267  Uiso   1.00
H30    H     0.31770   0.19673   0.40423   0.01267  Uiso   1.00
C17    C     0.18680   0.86280   0.57260   0.01267  Uiso   1.00
C18    C     0.14750   0.76450   0.55660   0.01267  Uiso   1.00
C19    C     0.42090   0.22710   0.52000   0.01267  Uiso   1.00
C20    C     0.39350   0.22120   0.43330   0.01267  Uiso   1.00
N49    N     0.15280   0.88830   0.51770   0.01267  Uiso   1.00
N50    N     0.20960   0.98290   0.55790   0.01267  Uiso   1.00
N51    N     0.27320   0.01150   0.63170   0.01267  Uiso   1.00
N52    N     0.26180   0.93820   0.64320   0.01267  Uiso   1.00
N53    N     0.04130   0.99960   0.45870   0.01267  Uiso   1.00
N54    N     0.97700   0.90650   0.42690   0.01267  Uiso   1.00
N55    N     0.50890   0.28630   0.58360   0.01267  Uiso   1.00
N56    N     0.50280   0.26980   0.64960   0.01267  Uiso   1.00
N57    N     0.41570   0.20390   0.62820   0.01267  Uiso   1.00
N58    N     0.36260   0.17470   0.54550   0.01267  Uiso   1.00
N59    N     0.26390   0.19510   0.69920   0.01267  Uiso   1.00
N60    N     0.22080   0.17940   0.61880   0.01267  Uiso   1.00
Cl9    Cl    0.15505   0.94210   0.35733   0.01267  Uiso   1.00
Cl10   Cl    0.89825   0.73690   0.23083   0.01267  Uiso   1.00
Cd16   Cd    0.59040   0.71350   0.51256   0.01267  Uiso   1.00
Cd17   Cd    0.43322   0.64828   0.61942   0.01267  Uiso   1.00
Cd18   Cd    0.42915   0.63539   0.25904   0.01267  Uiso   1.00
H31    H     0.23177   0.64590   0.50837   0.01267  Uiso   1.00
H32    H     0.17312   0.51910   0.44207   0.01267  Uiso   1.00
H33    H     0.15563   0.58981   0.39205   0.01267  Uiso   1.00
H34    H     0.84802   0.02310   0.56738   0.01267  Uiso   1.00
H35    H     0.81182   0.91729   0.58449   0.01267  Uiso   1.00
H36    H     0.76569   0.98559   0.61457   0.01267  Uiso   1.00
C21    C     0.29020   0.61420   0.42740   0.01267  Uiso   1.00
C22    C     0.20790   0.59090   0.44340   0.01267  Uiso   1.00
C23    C     0.70710   0.90090   0.48000   0.01267  Uiso   1.00
C24    C     0.78790   0.96020   0.56670   0.01267  Uiso   1.00
N61    N     0.37060   0.63510   0.48230   0.01267  Uiso   1.00
N62    N     0.42500   0.65170   0.44210   0.01267  Uiso   1.00
N63    N     0.37980   0.64150   0.36830   0.01267  Uiso   1.00
N64    N     0.29500   0.61860   0.35680   0.01267  Uiso   1.00
N65    N     0.54090   0.58260   0.54130   0.01267  Uiso   1.00
N66    N     0.47960   0.55010   0.57310   0.01267  Uiso   1.00
N67    N     0.70270   0.92530   0.41640   0.01267  Uiso   1.00
N68    N     0.62020   0.85320   0.35040   0.01267  Uiso   1.00
N69    N     0.57570   0.78750   0.37180   0.01267  Uiso   1.00
N70    N     0.62920   0.81710   0.45450   0.01267  Uiso   1.00
N71    N     0.49590   0.56470   0.30080   0.01267  Uiso   1.00
N72    N     0.56060   0.60200   0.38120   0.01267  Uiso   1.00
Cl11   Cl    0.58477   0.79772   0.64267   0.01267  Uiso   1.00
Cl12   Cl    0.50607   0.66742   0.76917   0.01267  Uiso   1.00
Cd19   Cd    0.28650   0.79906   0.87690   0.01267  Uiso   1.00
Cd20   Cd    0.35172   0.97114   0.78494   0.01267  Uiso   1.00
Cd21   Cd    0.36461   0.62365   0.79376   0.01267  Uiso   1.00
H37    H     0.48214   0.92153   0.65352   0.01267  Uiso   1.00
H38    H     0.35577   0.86525   0.58791   0.01267  Uiso   1.00
H39    H     0.40727   0.80089   0.56428   0.01267  Uiso   1.00
H40    H     0.98415   0.54893   0.83606   0.01267  Uiso   1.00
H41    H     0.00436   0.61692   0.77414   0.01267  Uiso   1.00
H42    H     0.08551   0.67461   0.88935   0.01267  Uiso   1.00
C25    C     0.38580   0.81320   0.67600   0.01267  Uiso   1.00
C26    C     0.40910   0.85250   0.61700   0.01267  Uiso   1.00
C27    C     0.09910   0.57910   0.80620   0.01267  Uiso   1.00
C28    C     0.03980   0.60650   0.82770   0.01267  Uiso   1.00
N73    N     0.36490   0.84720   0.73550   0.01267  Uiso   1.00
N74    N     0.34830   0.79040   0.77330   0.01267  Uiso   1.00
N75    N     0.35850   0.72680   0.73830   0.01267  Uiso   1.00
N76    N     0.38140   0.73820   0.67640   0.01267  Uiso   1.00
N77    N     0.41740   0.95870   0.95830   0.01267  Uiso   1.00
N78    N     0.44990   0.02300   0.92950   0.01267  Uiso   1.00
N79    N     0.07470   0.49110   0.77740   0.01267  Uiso   1.00
N80    N     0.14680   0.49720   0.76700   0.01267  Uiso   1.00
N81    N     0.21250   0.58430   0.78820   0.01267  Uiso   1.00
N82    N     0.18290   0.63740   0.81210   0.01267  Uiso   1.00
N83    N     0.43530   0.73610   0.93120   0.01267  Uiso   1.00
N84    N     0.39800   0.77920   0.95860   0.01267  Uiso   1.00
Cl13   Cl    0.20228   0.84495   0.78705   0.01267  Uiso   1.00
Cl14   Cl    0.33258   0.10175   0.83865   0.01267  Uiso   1.00
Cd22   Cd    0.92216   0.40960   0.12310   0.01267  Uiso   1.00
Cd23   Cd    0.18620   0.56678   0.21506   0.01267  Uiso   1.00
Cd24   Cd    0.82989   0.57085   0.20624   0.01267  Uiso   1.00
H43    H     0.23709   0.84022   0.43851   0.01267  Uiso   1.00
H44    H     0.26619   0.83189   0.34767   0.01267  Uiso   1.00
H45    H     0.27867   0.76736   0.40810   0.01267  Uiso   1.00
H46    H     0.74627   0.17130   0.10027   0.01267  Uiso   1.00
H47    H     0.73928   0.16422   0.19831   0.01267  Uiso   1.00
H48    H     0.85536   0.23896   0.20187   0.01267  Uiso   1.00
C29    C     0.13720   0.70980   0.32400   0.01267  Uiso   1.00
C30    C     0.23550   0.79210   0.38300   0.01267  Uiso   1.00
C31    C     0.77290   0.29290   0.19380   0.01267  Uiso   1.00
C32    C     0.77880   0.21210   0.17230   0.01267  Uiso   1.00
N85    N     0.11170   0.62940   0.26450   0.01267  Uiso   1.00
N86    N     0.01710   0.57500   0.22670   0.01267  Uiso   1.00
N87    N     0.98850   0.62020   0.26170   0.01267  Uiso   1.00
N88    N     0.06180   0.70500   0.32360   0.01267  Uiso   1.00
N89    N     0.00040   0.45910   0.04170   0.01267  Uiso   1.00
N90    N     0.09350   0.52040   0.07050   0.01267  Uiso   1.00
N91    N     0.71370   0.29730   0.22260   0.01267  Uiso   1.00
N92    N     0.73020   0.37980   0.23300   0.01267  Uiso   1.00
N93    N     0.79610   0.42430   0.21180   0.01267  Uiso   1.00
N94    N     0.82530   0.37080   0.18790   0.01267  Uiso   1.00
N95    N     0.80490   0.50410   0.06880   0.01267  Uiso   1.00
N96    N     0.82060   0.43940   0.04140   0.01267  Uiso   1.00
Cl15   Cl    0.05790   0.41523   0.21295   0.01267  Uiso   1.00
Cl16   Cl    0.26310   0.49393   0.16135   0.01267  Uiso   1.00
C33    C     0.51290   0.10490  -0.00000   0.01267  Uiso   1.00
C34    C     0.56690   0.19910  -0.00000   0.01267  Uiso   1.00
C35    C     0.50160   0.75440   0.00000   0.01267  Uiso   1.00
C36    C     0.56020   0.72020   0.00000   0.01267  Uiso   1.00
Cl17   Cl    0.24448   0.81942  -0.00000   0.01267  Uiso   1.00
C37    C     0.10490   0.51290  -0.00000   0.01267  Uiso   1.00
C38    C     0.19910   0.56690  -0.00000   0.01267  Uiso   1.00
C39    C     0.75440   0.50160   0.00000   0.01267  Uiso   1.00
C40    C     0.72020   0.56020   0.00000   0.01267  Uiso   1.00
Cl18   Cl    0.81942   0.24448  -0.00000   0.01267  Uiso   1.00
C41    C     0.89510   0.89510   0.40800   0.01267  Uiso   1.00
C42    C     0.80090   0.80090   0.36780   0.01267  Uiso   1.00
C43    C     0.24560   0.24560   0.74720   0.01267  Uiso   1.00
C44    C     0.27980   0.27980   0.84000   0.01267  Uiso   1.00
Cl19   Cl    0.18058   0.18058   0.42506   0.01267  Uiso   1.00
C45    C     0.48710   0.48710   0.59200   0.01267  Uiso   1.00
C46    C     0.43310   0.43310   0.63220   0.01267  Uiso   1.00
C47    C     0.49840   0.49840   0.25280   0.01267  Uiso   1.00
C48    C     0.43980   0.43980   0.16000   0.01267  Uiso   1.00
Cl20   Cl    0.75552   0.75552   0.57494   0.01267  Uiso   1.00
Cl21   Cl    0.50000   0.65788   0.15788   0.01267  Uiso   1.00
Cl22   Cl    0.50000   0.34212   0.84212   0.01267  Uiso   1.00
Cl23   Cl    0.34212   0.50000   0.84212   0.01267  Uiso   1.00
Cl24   Cl    0.65788   0.50000   0.15788   0.01267  Uiso   1.00
H49    H     0.54186   0.18919   0.93186   0.01267  Uiso   1.00
H50    H     0.64486   0.23094   0.02924   0.01267  Uiso   1.00
H51    H     0.55455   0.24793   0.03890   0.01267  Uiso   1.00
H52    H     0.56995   0.71108   0.93992   0.01267  Uiso   1.00
H53    H     0.52442   0.65002   0.00179   0.01267  Uiso   1.00
H54    H     0.63147   0.77309   0.05829   0.01267  Uiso   1.00
H55    H     0.18997   0.58068   0.94205   0.01267  Uiso   1.00
H56    H     0.22851   0.52413   0.99757   0.01267  Uiso   1.00
H57    H     0.24957   0.63645   0.06038   0.01267  Uiso   1.00
H58    H     0.65591   0.53016   0.01175   0.01267  Uiso   1.00
H59    H     0.70071   0.56098   0.93580   0.01267  Uiso   1.00
H60    H     0.77758   0.63471   0.05245   0.01267  Uiso   1.00
H61    H     0.81208   0.74661   0.37564   0.01267  Uiso   1.00
H62    H     0.76262   0.77830   0.29724   0.01267  Uiso   1.00
H63    H     0.75725   0.80704   0.40033   0.01267  Uiso   1.00
H64    H     0.33697   0.35848   0.87387   0.01267  Uiso   1.00
H65    H     0.30949   0.24254   0.86176   0.01267  Uiso   1.00
H66    H     0.21934   0.26479   0.85602   0.01267  Uiso   1.00
H67    H     0.43558   0.37039   0.62354   0.01267  Uiso   1.00
H68    H     0.35715   0.40758   0.60030   0.01267  Uiso   1.00
H69    H     0.46601   0.48077   0.70295   0.01267  Uiso   1.00
H70    H     0.44133   0.37628   0.13935   0.01267  Uiso   1.00
H71    H     0.46818   0.48250   0.12583   0.01267  Uiso   1.00
H72    H     0.36465   0.41538   0.14317   0.01267  Uiso   1.00
