data_MUDLON_clean
_audit_creation_date              2014-07-02
_audit_creation_method            'Materials Studio'
_symmetry_space_group_name_H-M    'P1'
_symmetry_Int_Tables_number       1
_symmetry_cell_setting            triclinic
loop_
_symmetry_equiv_pos_as_xyz
  x,y,z
_cell_length_a                    15.7272
_cell_length_b                    23.5550
_cell_length_c                    23.5550
_cell_angle_alpha                 64.5617
_cell_angle_beta                  70.4980
_cell_angle_gamma                 70.4980
loop_
_atom_site_label
_atom_site_type_symbol
_atom_site_fract_x
_atom_site_fract_y
_atom_site_fract_z
_atom_site_U_iso_or_equiv
_atom_site_adp_type
_atom_site_occupancy
Mg1    Mg    0.16901   0.49487   0.49487   0.01267  Uiso   1.00
Mg2    Mg    0.65875   0.00513   0.00513   0.01267  Uiso   1.00
H1     H     0.94230   0.64380   0.24660   0.01267  Uiso   1.00
H2     H     0.00410   0.59830   0.33630   0.01267  Uiso   1.00
H3     H     0.24130   0.52330   0.23670   0.01267  Uiso   1.00
H4     H     0.17820   0.56860   0.14660   0.01267  Uiso   1.00
H5     H     0.04980   0.73470   0.13670   0.01267  Uiso   1.00
H6     H     0.96310   0.84090   0.11670   0.01267  Uiso   1.00
H7     H     0.79460   0.80170   0.04990   0.01267  Uiso   1.00
H8     H     0.87510   0.69540   0.07660   0.01267  Uiso   1.00
H9     H     0.02280   0.51780   0.16220   0.01267  Uiso   1.00
H10    H     0.06420   0.45900   0.09760   0.01267  Uiso   1.00
H11    H     0.10780   0.61230   0.94230   0.01267  Uiso   1.00
H12    H     0.06730   0.67500   0.00740   0.01267  Uiso   1.00
H13    H     0.33270   0.85620   0.25340   0.01267  Uiso   1.00
H14    H     0.43870   0.90170   0.16370   0.01267  Uiso   1.00
H15    H     0.50130   0.97670   0.26330   0.01267  Uiso   1.00
H16    H     0.39340   0.93140   0.35340   0.01267  Uiso   1.00
H17    H     0.42120   0.76530   0.36330   0.01267  Uiso   1.00
H18    H     0.42070   0.65910   0.38330   0.01267  Uiso   1.00
H19    H     0.14620   0.69830   0.45010   0.01267  Uiso   1.00
H20    H     0.14710   0.80460   0.42340   0.01267  Uiso   1.00
H21    H     0.20280   0.98220   0.33780   0.01267  Uiso   1.00
H22    H     0.12080   0.04100   0.40240   0.01267  Uiso   1.00
H23    H     0.16240   0.88770   0.55770   0.01267  Uiso   1.00
H24    H     0.24970   0.82500   0.49260   0.01267  Uiso   1.00
H25    H     0.33270   0.25340   0.85620   0.01267  Uiso   1.00
H26    H     0.43870   0.16370   0.90170   0.01267  Uiso   1.00
H27    H     0.50130   0.26330   0.97670   0.01267  Uiso   1.00
H28    H     0.39340   0.35340   0.93140   0.01267  Uiso   1.00
H29    H     0.42120   0.36330   0.76530   0.01267  Uiso   1.00
H30    H     0.42070   0.38330   0.65910   0.01267  Uiso   1.00
H31    H     0.14620   0.45010   0.69830   0.01267  Uiso   1.00
H32    H     0.14710   0.42340   0.80460   0.01267  Uiso   1.00
H33    H     0.20280   0.33780   0.98220   0.01267  Uiso   1.00
H34    H     0.12080   0.40240   0.04100   0.01267  Uiso   1.00
H35    H     0.16240   0.55770   0.88770   0.01267  Uiso   1.00
H36    H     0.24970   0.49260   0.82500   0.01267  Uiso   1.00
H37    H     0.94230   0.24660   0.64380   0.01267  Uiso   1.00
H38    H     0.00410   0.33630   0.59830   0.01267  Uiso   1.00
H39    H     0.24130   0.23670   0.52330   0.01267  Uiso   1.00
H40    H     0.17820   0.14660   0.56860   0.01267  Uiso   1.00
H41    H     0.04980   0.13670   0.73470   0.01267  Uiso   1.00
H42    H     0.96310   0.11670   0.84090   0.01267  Uiso   1.00
H43    H     0.79460   0.04990   0.80170   0.01267  Uiso   1.00
H44    H     0.87510   0.07660   0.69540   0.01267  Uiso   1.00
H45    H     0.02280   0.16220   0.51780   0.01267  Uiso   1.00
H46    H     0.06420   0.09760   0.45900   0.01267  Uiso   1.00
H47    H     0.10780   0.94230   0.61230   0.01267  Uiso   1.00
H48    H     0.06730   0.00740   0.67500   0.01267  Uiso   1.00
C1     C     0.05386   0.61049   0.18819   0.01267  Uiso   1.00
C2     C     0.00257   0.61919   0.24447   0.01267  Uiso   1.00
C3     C     0.04000   0.59157   0.29843   0.01267  Uiso   1.00
C4     C     0.12748   0.55502   0.29762   0.01267  Uiso   1.00
C5     C     0.18057   0.54713   0.23913   0.01267  Uiso   1.00
C6     C     0.14293   0.57457   0.18497   0.01267  Uiso   1.00
C7     C     0.17409   0.52421   0.35221   0.01267  Uiso   1.00
C8     C     0.96479   0.70491   0.11411   0.01267  Uiso   1.00
C9     C     0.99596   0.74784   0.12184   0.01267  Uiso   1.00
C10    C     0.94595   0.81225   0.10725   0.01267  Uiso   1.00
C11    C     0.87143   0.83341   0.07893   0.01267  Uiso   1.00
C12    C     0.84504   0.78847   0.06845   0.01267  Uiso   1.00
C13    C     0.89230   0.72460   0.08500   0.01267  Uiso   1.00
C14    C     0.81587   0.90193   0.05853   0.01267  Uiso   1.00
C15    C     0.03895   0.60205   0.09245   0.01267  Uiso   1.00
C16    C     0.04049   0.53781   0.11781   0.01267  Uiso   1.00
C17    C     0.06763   0.50217   0.07877   0.01267  Uiso   1.00
C18    C     0.10018   0.52812   0.01212   0.01267  Uiso   1.00
C19    C     0.09390   0.59230   0.98690   0.01267  Uiso   1.00
C20    C     0.06660   0.63130   0.02610   0.01267  Uiso   1.00
C21    C     0.35254   0.88951   0.31181   0.01267  Uiso   1.00
C22    C     0.36623   0.88081   0.25553   0.01267  Uiso   1.00
C23    C     0.43000   0.90843   0.20157   0.01267  Uiso   1.00
C24    C     0.48012   0.94498   0.20238   0.01267  Uiso   1.00
C25    C     0.46683   0.95287   0.26087   0.01267  Uiso   1.00
C26    C     0.40247   0.92543   0.31503   0.01267  Uiso   1.00
C27    C     0.55051   0.97579   0.14779   0.01267  Uiso   1.00
C28    C     0.28381   0.79509   0.38589   0.01267  Uiso   1.00
C29    C     0.36564   0.75216   0.37816   0.01267  Uiso   1.00
C30    C     0.36545   0.68775   0.39275   0.01267  Uiso   1.00
C31    C     0.28377   0.66659   0.42107   0.01267  Uiso   1.00
C32    C     0.20196   0.71153   0.43155   0.01267  Uiso   1.00
C33    C     0.20190   0.77540   0.41500   0.01267  Uiso   1.00
C34    C     0.27633   0.59807   0.44147   0.01267  Uiso   1.00
C35    C     0.23345   0.89795   0.40755   0.01267  Uiso   1.00
C36    C     0.19611   0.96219   0.38219   0.01267  Uiso   1.00
C37    C     0.14857   0.99783   0.42123   0.01267  Uiso   1.00
C38    C     0.14042   0.97188   0.48788   0.01267  Uiso   1.00
C39    C     0.17310   0.90770   0.51310   0.01267  Uiso   1.00
C40    C     0.22400   0.86870   0.47390   0.01267  Uiso   1.00
C41    C     0.35254   0.31181   0.88951   0.01267  Uiso   1.00
C42    C     0.36623   0.25553   0.88081   0.01267  Uiso   1.00
C43    C     0.43000   0.20157   0.90843   0.01267  Uiso   1.00
C44    C     0.48012   0.20238   0.94498   0.01267  Uiso   1.00
C45    C     0.46683   0.26087   0.95287   0.01267  Uiso   1.00
C46    C     0.40247   0.31503   0.92543   0.01267  Uiso   1.00
C47    C     0.55051   0.14779   0.97579   0.01267  Uiso   1.00
C48    C     0.28381   0.38589   0.79509   0.01267  Uiso   1.00
C49    C     0.36564   0.37816   0.75216   0.01267  Uiso   1.00
C50    C     0.36545   0.39275   0.68775   0.01267  Uiso   1.00
C51    C     0.28377   0.42107   0.66659   0.01267  Uiso   1.00
C52    C     0.20196   0.43155   0.71153   0.01267  Uiso   1.00
C53    C     0.20190   0.41500   0.77540   0.01267  Uiso   1.00
C54    C     0.27633   0.44147   0.59807   0.01267  Uiso   1.00
C55    C     0.23345   0.40755   0.89795   0.01267  Uiso   1.00
C56    C     0.19611   0.38219   0.96219   0.01267  Uiso   1.00
C57    C     0.14857   0.42123   0.99783   0.01267  Uiso   1.00
C58    C     0.14042   0.48788   0.97188   0.01267  Uiso   1.00
C59    C     0.17310   0.51310   0.90770   0.01267  Uiso   1.00
C60    C     0.22400   0.47390   0.86870   0.01267  Uiso   1.00
C61    C     0.05386   0.18819   0.61049   0.01267  Uiso   1.00
C62    C     0.00257   0.24447   0.61919   0.01267  Uiso   1.00
C63    C     0.04000   0.29843   0.59157   0.01267  Uiso   1.00
C64    C     0.12748   0.29762   0.55502   0.01267  Uiso   1.00
C65    C     0.18057   0.23913   0.54713   0.01267  Uiso   1.00
C66    C     0.14293   0.18497   0.57457   0.01267  Uiso   1.00
C67    C     0.17409   0.35221   0.52421   0.01267  Uiso   1.00
C68    C     0.96479   0.11411   0.70491   0.01267  Uiso   1.00
C69    C     0.99596   0.12184   0.74784   0.01267  Uiso   1.00
C70    C     0.94595   0.10725   0.81225   0.01267  Uiso   1.00
C71    C     0.87143   0.07893   0.83341   0.01267  Uiso   1.00
C72    C     0.84504   0.06845   0.78847   0.01267  Uiso   1.00
C73    C     0.89230   0.08500   0.72460   0.01267  Uiso   1.00
C74    C     0.81587   0.05853   0.90193   0.01267  Uiso   1.00
C75    C     0.03895   0.09245   0.60205   0.01267  Uiso   1.00
C76    C     0.04049   0.11781   0.53781   0.01267  Uiso   1.00
C77    C     0.06763   0.07877   0.50217   0.01267  Uiso   1.00
C78    C     0.10018   0.01212   0.52812   0.01267  Uiso   1.00
C79    C     0.09390   0.98690   0.59230   0.01267  Uiso   1.00
C80    C     0.06660   0.02610   0.63130   0.01267  Uiso   1.00
N1     N     0.01603   0.63917   0.13197   0.01267  Uiso   1.00
N2     N     0.28717   0.86083   0.36803   0.01267  Uiso   1.00
N3     N     0.28717   0.36803   0.86083   0.01267  Uiso   1.00
N4     N     0.01603   0.13197   0.63917   0.01267  Uiso   1.00
O1     O     0.74844   0.91855   0.03757   0.01267  Uiso   1.00
O2     O     0.85398   0.93920   0.06624   0.01267  Uiso   1.00
O3     O     0.12420   0.52598   0.40762   0.01267  Uiso   1.00
O4     O     0.25866   0.50004   0.34184   0.01267  Uiso   1.00
O5     O     0.20456   0.58145   0.46243   0.01267  Uiso   1.00
O6     O     0.35942   0.56080   0.43376   0.01267  Uiso   1.00
O7     O     0.55780   0.97402   0.09238   0.01267  Uiso   1.00
O8     O     0.60054   0.99996   0.15816   0.01267  Uiso   1.00
O9     O     0.20456   0.46243   0.58145   0.01267  Uiso   1.00
O10    O     0.35942   0.43376   0.56080   0.01267  Uiso   1.00
O11    O     0.55780   0.09238   0.97402   0.01267  Uiso   1.00
O12    O     0.60054   0.15816   0.99996   0.01267  Uiso   1.00
O13    O     0.74844   0.03757   0.91855   0.01267  Uiso   1.00
O14    O     0.85398   0.06624   0.93920   0.01267  Uiso   1.00
O15    O     0.12420   0.40762   0.52598   0.01267  Uiso   1.00
O16    O     0.25866   0.34184   0.50004   0.01267  Uiso   1.00
Mg3    Mg    0.34125   0.99487   0.99487   0.01267  Uiso   1.00
Mg4    Mg    0.83099   0.50513   0.50513   0.01267  Uiso   1.00
H49    H     0.66730   0.74660   0.14380   0.01267  Uiso   1.00
H50    H     0.56130   0.83630   0.09830   0.01267  Uiso   1.00
H51    H     0.49870   0.73670   0.02330   0.01267  Uiso   1.00
H52    H     0.60660   0.64660   0.06860   0.01267  Uiso   1.00
H53    H     0.57880   0.63670   0.23470   0.01267  Uiso   1.00
H54    H     0.57930   0.61670   0.34090   0.01267  Uiso   1.00
H55    H     0.85380   0.54990   0.30170   0.01267  Uiso   1.00
H56    H     0.85290   0.57660   0.19540   0.01267  Uiso   1.00
H57    H     0.79720   0.66220   0.01780   0.01267  Uiso   1.00
H58    H     0.87920   0.59760   0.95900   0.01267  Uiso   1.00
H59    H     0.83760   0.44230   0.11230   0.01267  Uiso   1.00
H60    H     0.75030   0.50740   0.17500   0.01267  Uiso   1.00
H61    H     0.05770   0.75340   0.35620   0.01267  Uiso   1.00
H62    H     0.99590   0.66370   0.40170   0.01267  Uiso   1.00
H63    H     0.75870   0.76330   0.47670   0.01267  Uiso   1.00
H64    H     0.82180   0.85340   0.43140   0.01267  Uiso   1.00
H65    H     0.95020   0.86330   0.26530   0.01267  Uiso   1.00
H66    H     0.03690   0.88330   0.15910   0.01267  Uiso   1.00
H67    H     0.20540   0.95010   0.19830   0.01267  Uiso   1.00
H68    H     0.12490   0.92340   0.30460   0.01267  Uiso   1.00
H69    H     0.97720   0.83780   0.48220   0.01267  Uiso   1.00
H70    H     0.93580   0.90240   0.54100   0.01267  Uiso   1.00
H71    H     0.89220   0.05770   0.38770   0.01267  Uiso   1.00
H72    H     0.93270   0.99260   0.32500   0.01267  Uiso   1.00
H73    H     0.05770   0.35620   0.75340   0.01267  Uiso   1.00
H74    H     0.99590   0.40170   0.66370   0.01267  Uiso   1.00
H75    H     0.75870   0.47670   0.76330   0.01267  Uiso   1.00
H76    H     0.82180   0.43140   0.85340   0.01267  Uiso   1.00
H77    H     0.95020   0.26530   0.86330   0.01267  Uiso   1.00
H78    H     0.03690   0.15910   0.88330   0.01267  Uiso   1.00
H79    H     0.20540   0.19830   0.95010   0.01267  Uiso   1.00
H80    H     0.12490   0.30460   0.92340   0.01267  Uiso   1.00
H81    H     0.97720   0.48220   0.83780   0.01267  Uiso   1.00
H82    H     0.93580   0.54100   0.90240   0.01267  Uiso   1.00
H83    H     0.89220   0.38770   0.05770   0.01267  Uiso   1.00
H84    H     0.93270   0.32500   0.99260   0.01267  Uiso   1.00
H85    H     0.66730   0.14380   0.74660   0.01267  Uiso   1.00
H86    H     0.56130   0.09830   0.83630   0.01267  Uiso   1.00
H87    H     0.49870   0.02330   0.73670   0.01267  Uiso   1.00
H88    H     0.60660   0.06860   0.64660   0.01267  Uiso   1.00
H89    H     0.57880   0.23470   0.63670   0.01267  Uiso   1.00
H90    H     0.57930   0.34090   0.61670   0.01267  Uiso   1.00
H91    H     0.85380   0.30170   0.54990   0.01267  Uiso   1.00
H92    H     0.85290   0.19540   0.57660   0.01267  Uiso   1.00
H93    H     0.79720   0.01780   0.66220   0.01267  Uiso   1.00
H94    H     0.87920   0.95900   0.59760   0.01267  Uiso   1.00
H95    H     0.83760   0.11230   0.44230   0.01267  Uiso   1.00
H96    H     0.75030   0.17500   0.50740   0.01267  Uiso   1.00
C81    C     0.64746   0.68819   0.11049   0.01267  Uiso   1.00
C82    C     0.63377   0.74447   0.11919   0.01267  Uiso   1.00
C83    C     0.57000   0.79843   0.09157   0.01267  Uiso   1.00
C84    C     0.51988   0.79762   0.05502   0.01267  Uiso   1.00
C85    C     0.53317   0.73913   0.04713   0.01267  Uiso   1.00
C86    C     0.59753   0.68497   0.07457   0.01267  Uiso   1.00
C87    C     0.44949   0.85221   0.02421   0.01267  Uiso   1.00
C88    C     0.71619   0.61411   0.20491   0.01267  Uiso   1.00
C89    C     0.63436   0.62184   0.24784   0.01267  Uiso   1.00
C90    C     0.63455   0.60725   0.31225   0.01267  Uiso   1.00
C91    C     0.71623   0.57893   0.33341   0.01267  Uiso   1.00
C92    C     0.79804   0.56845   0.28847   0.01267  Uiso   1.00
C93    C     0.79810   0.58500   0.22460   0.01267  Uiso   1.00
C94    C     0.72367   0.55853   0.40193   0.01267  Uiso   1.00
C95    C     0.76655   0.59245   0.10205   0.01267  Uiso   1.00
C96    C     0.80389   0.61781   0.03781   0.01267  Uiso   1.00
C97    C     0.85143   0.57877   0.00217   0.01267  Uiso   1.00
C98    C     0.85958   0.51212   0.02812   0.01267  Uiso   1.00
C99    C     0.82690   0.48690   0.09230   0.01267  Uiso   1.00
C100   C     0.77600   0.52610   0.13130   0.01267  Uiso   1.00
C101   C     0.94614   0.81181   0.38951   0.01267  Uiso   1.00
C102   C     0.99743   0.75553   0.38081   0.01267  Uiso   1.00
C103   C     0.96000   0.70157   0.40843   0.01267  Uiso   1.00
C104   C     0.87252   0.70238   0.44498   0.01267  Uiso   1.00
C105   C     0.81943   0.76087   0.45287   0.01267  Uiso   1.00
C106   C     0.85707   0.81503   0.42543   0.01267  Uiso   1.00
C107   C     0.82591   0.64779   0.47579   0.01267  Uiso   1.00
C108   C     0.03521   0.88589   0.29509   0.01267  Uiso   1.00
C109   C     0.00404   0.87816   0.25216   0.01267  Uiso   1.00
C110   C     0.05405   0.89275   0.18775   0.01267  Uiso   1.00
C111   C     0.12857   0.92107   0.16659   0.01267  Uiso   1.00
C112   C     0.15496   0.93155   0.21153   0.01267  Uiso   1.00
C113   C     0.10770   0.91500   0.27540   0.01267  Uiso   1.00
C114   C     0.18413   0.94147   0.09807   0.01267  Uiso   1.00
C115   C     0.96105   0.90755   0.39795   0.01267  Uiso   1.00
C116   C     0.95951   0.88219   0.46219   0.01267  Uiso   1.00
C117   C     0.93237   0.92123   0.49783   0.01267  Uiso   1.00
C118   C     0.89982   0.98788   0.47188   0.01267  Uiso   1.00
C119   C     0.90610   0.01310   0.40770   0.01267  Uiso   1.00
C120   C     0.93340   0.97390   0.36870   0.01267  Uiso   1.00
C121   C     0.94614   0.38951   0.81181   0.01267  Uiso   1.00
C122   C     0.99743   0.38081   0.75553   0.01267  Uiso   1.00
C123   C     0.96000   0.40843   0.70157   0.01267  Uiso   1.00
C124   C     0.87252   0.44498   0.70238   0.01267  Uiso   1.00
C125   C     0.81943   0.45287   0.76087   0.01267  Uiso   1.00
C126   C     0.85707   0.42543   0.81503   0.01267  Uiso   1.00
C127   C     0.82591   0.47579   0.64779   0.01267  Uiso   1.00
C128   C     0.03521   0.29509   0.88589   0.01267  Uiso   1.00
C129   C     0.00404   0.25216   0.87816   0.01267  Uiso   1.00
C130   C     0.05405   0.18775   0.89275   0.01267  Uiso   1.00
C131   C     0.12857   0.16659   0.92107   0.01267  Uiso   1.00
C132   C     0.15496   0.21153   0.93155   0.01267  Uiso   1.00
C133   C     0.10770   0.27540   0.91500   0.01267  Uiso   1.00
C134   C     0.18413   0.09807   0.94147   0.01267  Uiso   1.00
C135   C     0.96105   0.39795   0.90755   0.01267  Uiso   1.00
C136   C     0.95951   0.46219   0.88219   0.01267  Uiso   1.00
C137   C     0.93237   0.49783   0.92123   0.01267  Uiso   1.00
C138   C     0.89982   0.47188   0.98788   0.01267  Uiso   1.00
C139   C     0.90610   0.40770   0.01310   0.01267  Uiso   1.00
C140   C     0.93340   0.36870   0.97390   0.01267  Uiso   1.00
C141   C     0.64746   0.11049   0.68819   0.01267  Uiso   1.00
C142   C     0.63377   0.11919   0.74447   0.01267  Uiso   1.00
C143   C     0.57000   0.09157   0.79843   0.01267  Uiso   1.00
C144   C     0.51988   0.05502   0.79762   0.01267  Uiso   1.00
C145   C     0.53317   0.04713   0.73913   0.01267  Uiso   1.00
C146   C     0.59753   0.07457   0.68497   0.01267  Uiso   1.00
C147   C     0.44949   0.02421   0.85221   0.01267  Uiso   1.00
C148   C     0.71619   0.20491   0.61411   0.01267  Uiso   1.00
C149   C     0.63436   0.24784   0.62184   0.01267  Uiso   1.00
C150   C     0.63455   0.31225   0.60725   0.01267  Uiso   1.00
C151   C     0.71623   0.33341   0.57893   0.01267  Uiso   1.00
C152   C     0.79804   0.28847   0.56845   0.01267  Uiso   1.00
C153   C     0.79810   0.22460   0.58500   0.01267  Uiso   1.00
C154   C     0.72367   0.40193   0.55853   0.01267  Uiso   1.00
C155   C     0.76655   0.10205   0.59245   0.01267  Uiso   1.00
C156   C     0.80389   0.03781   0.61781   0.01267  Uiso   1.00
C157   C     0.85143   0.00217   0.57877   0.01267  Uiso   1.00
C158   C     0.85958   0.02812   0.51212   0.01267  Uiso   1.00
C159   C     0.82690   0.09230   0.48690   0.01267  Uiso   1.00
C160   C     0.77600   0.13130   0.52610   0.01267  Uiso   1.00
N5     N     0.71283   0.63197   0.13917   0.01267  Uiso   1.00
N6     N     0.98397   0.86803   0.36083   0.01267  Uiso   1.00
N7     N     0.98397   0.36083   0.86803   0.01267  Uiso   1.00
N8     N     0.71283   0.13917   0.63197   0.01267  Uiso   1.00
O17    O     0.79544   0.53757   0.41855   0.01267  Uiso   1.00
O18    O     0.64058   0.56624   0.43920   0.01267  Uiso   1.00
O19    O     0.44220   0.90762   0.02598   0.01267  Uiso   1.00
O20    O     0.39946   0.84184   0.00004   0.01267  Uiso   1.00
O21    O     0.25156   0.96243   0.08145   0.01267  Uiso   1.00
O22    O     0.14602   0.93376   0.06080   0.01267  Uiso   1.00
O23    O     0.87580   0.59238   0.47402   0.01267  Uiso   1.00
O24    O     0.74134   0.65816   0.49996   0.01267  Uiso   1.00
O25    O     0.25156   0.08145   0.96243   0.01267  Uiso   1.00
O26    O     0.14602   0.06080   0.93376   0.01267  Uiso   1.00
O27    O     0.87580   0.47402   0.59238   0.01267  Uiso   1.00
O28    O     0.74134   0.49996   0.65816   0.01267  Uiso   1.00
O29    O     0.79544   0.41855   0.53757   0.01267  Uiso   1.00
O30    O     0.64058   0.43920   0.56624   0.01267  Uiso   1.00
O31    O     0.44220   0.02598   0.90762   0.01267  Uiso   1.00
O32    O     0.39946   0.00004   0.84184   0.01267  Uiso   1.00
