data_MUFHUR_clean
_audit_creation_date              2014-07-02
_audit_creation_method            'Materials Studio'
_symmetry_space_group_name_H-M    'P1'
_symmetry_Int_Tables_number       1
_symmetry_cell_setting            triclinic
loop_
_symmetry_equiv_pos_as_xyz
  x,y,z
_cell_length_a                    7.9841
_cell_length_b                    8.3577
_cell_length_c                    17.5930
_cell_angle_alpha                 90.0000
_cell_angle_beta                  90.0000
_cell_angle_gamma                 109.4900
loop_
_atom_site_label
_atom_site_type_symbol
_atom_site_fract_x
_atom_site_fract_y
_atom_site_fract_z
_atom_site_U_iso_or_equiv
_atom_site_adp_type
_atom_site_occupancy
Nd1    Nd    0.74129   0.71817   0.47788   0.01267  Uiso   1.00
Nd2    Nd    0.75871   0.28183   0.97788   0.01267  Uiso   1.00
Nd3    Nd    0.25871   0.28183   0.52212   0.01267  Uiso   1.00
Nd4    Nd    0.24129   0.71817   0.02212   0.01267  Uiso   1.00
H1     H     0.66230   0.37280   0.21020   0.01267  Uiso   1.00
H2     H     0.36760   0.09410   0.37200   0.01267  Uiso   1.00
H3     H     0.83770   0.62720   0.71020   0.01267  Uiso   1.00
H4     H     0.13240   0.90590   0.87200   0.01267  Uiso   1.00
H5     H     0.33770   0.62720   0.78980   0.01267  Uiso   1.00
H6     H     0.63240   0.90590   0.62800   0.01267  Uiso   1.00
H7     H     0.16230   0.37280   0.28980   0.01267  Uiso   1.00
H8     H     0.86760   0.09410   0.12800   0.01267  Uiso   1.00
C1     C     0.07100   0.56400   0.47450   0.01267  Uiso   1.00
C2     C     0.60700   0.41310   0.37500   0.01267  Uiso   1.00
C3     C     0.54970   0.28000   0.31540   0.01267  Uiso   1.00
C4     C     0.58670   0.28180   0.23740   0.01267  Uiso   1.00
C5     C     0.49340   0.12830   0.20900   0.01267  Uiso   1.00
C6     C     0.48300   0.05890   0.13110   0.01267  Uiso   1.00
C7     C     0.42900   0.43600   0.97450   0.01267  Uiso   1.00
C8     C     0.89300   0.58690   0.87500   0.01267  Uiso   1.00
C9     C     0.95030   0.72000   0.81540   0.01267  Uiso   1.00
C10    C     0.91330   0.71820   0.73740   0.01267  Uiso   1.00
C11    C     0.00660   0.87170   0.70900   0.01267  Uiso   1.00
C12    C     0.01700   0.94110   0.63110   0.01267  Uiso   1.00
C13    C     0.92900   0.43600   0.52550   0.01267  Uiso   1.00
C14    C     0.39300   0.58690   0.62500   0.01267  Uiso   1.00
C15    C     0.45030   0.72000   0.68460   0.01267  Uiso   1.00
C16    C     0.41330   0.71820   0.76260   0.01267  Uiso   1.00
C17    C     0.50660   0.87170   0.79100   0.01267  Uiso   1.00
C18    C     0.51700   0.94110   0.86890   0.01267  Uiso   1.00
C19    C     0.57100   0.56400   0.02550   0.01267  Uiso   1.00
C20    C     0.10700   0.41310   0.12500   0.01267  Uiso   1.00
C21    C     0.04970   0.28000   0.18460   0.01267  Uiso   1.00
C22    C     0.08670   0.28180   0.26260   0.01267  Uiso   1.00
C23    C     0.99340   0.12830   0.29100   0.01267  Uiso   1.00
C24    C     0.98300   0.05890   0.36890   0.01267  Uiso   1.00
N1     N     0.42100   0.12560   0.32920   0.01267  Uiso   1.00
N2     N     0.39050   0.03300   0.26600   0.01267  Uiso   1.00
N3     N     0.07900   0.87440   0.82920   0.01267  Uiso   1.00
N4     N     0.10950   0.96700   0.76600   0.01267  Uiso   1.00
N5     N     0.57900   0.87440   0.67080   0.01267  Uiso   1.00
N6     N     0.60950   0.96700   0.73400   0.01267  Uiso   1.00
N7     N     0.92100   0.12560   0.17080   0.01267  Uiso   1.00
N8     N     0.89050   0.03300   0.23400   0.01267  Uiso   1.00
O1     O     0.04970   0.70230   0.45910   0.01267  Uiso   1.00
O2     O     0.20050   0.52210   0.45690   0.01267  Uiso   1.00
O3     O     0.50850   0.39110   0.43440   0.01267  Uiso   1.00
O4     O     0.73970   0.53140   0.36750   0.01267  Uiso   1.00
O5     O     0.58280   0.15080   0.08330   0.01267  Uiso   1.00
O6     O     0.37400   0.91820   0.11910   0.01267  Uiso   1.00
O7     O     0.45030   0.29770   0.95910   0.01267  Uiso   1.00
O8     O     0.29950   0.47790   0.95690   0.01267  Uiso   1.00
O9     O     0.99150   0.60890   0.93440   0.01267  Uiso   1.00
O10    O     0.76030   0.46860   0.86750   0.01267  Uiso   1.00
O11    O     0.91720   0.84920   0.58330   0.01267  Uiso   1.00
O12    O     0.12600   0.08180   0.61910   0.01267  Uiso   1.00
O13    O     0.95030   0.29770   0.54090   0.01267  Uiso   1.00
O14    O     0.79950   0.47790   0.54310   0.01267  Uiso   1.00
O15    O     0.49150   0.60890   0.56560   0.01267  Uiso   1.00
O16    O     0.26030   0.46860   0.63250   0.01267  Uiso   1.00
O17    O     0.41720   0.84920   0.91670   0.01267  Uiso   1.00
O18    O     0.62600   0.08180   0.88090   0.01267  Uiso   1.00
O19    O     0.54970   0.70230   0.04090   0.01267  Uiso   1.00
O20    O     0.70050   0.52210   0.04310   0.01267  Uiso   1.00
O21    O     0.00850   0.39110   0.06560   0.01267  Uiso   1.00
O22    O     0.23970   0.53140   0.13250   0.01267  Uiso   1.00
O23    O     0.08280   0.15080   0.41670   0.01267  Uiso   1.00
O24    O     0.87400   0.91820   0.38090   0.01267  Uiso   1.00
