data_MUFJAZ_clean
_audit_creation_date              2014-07-02
_audit_creation_method            'Materials Studio'
_symmetry_space_group_name_H-M    'P1'
_symmetry_Int_Tables_number       1
_symmetry_cell_setting            triclinic
loop_
_symmetry_equiv_pos_as_xyz
  x,y,z
_cell_length_a                    7.9204
_cell_length_b                    8.3210
_cell_length_c                    17.4809
_cell_angle_alpha                 90.0000
_cell_angle_beta                  90.0000
_cell_angle_gamma                 109.0690
loop_
_atom_site_label
_atom_site_type_symbol
_atom_site_fract_x
_atom_site_fract_y
_atom_site_fract_z
_atom_site_U_iso_or_equiv
_atom_site_adp_type
_atom_site_occupancy
Eu1    Eu    0.74424   0.71999   0.52220   0.01267  Uiso   1.00
Eu2    Eu    0.75576   0.28001   0.02220   0.01267  Uiso   1.00
Eu3    Eu    0.25576   0.28001   0.47780   0.01267  Uiso   1.00
Eu4    Eu    0.24424   0.71999   0.97780   0.01267  Uiso   1.00
H1     H     0.83870   0.63210   0.28930   0.01267  Uiso   1.00
H2     H     0.17460   0.07360   0.23870   0.01267  Uiso   1.00
H3     H     0.66130   0.36790   0.78930   0.01267  Uiso   1.00
H4     H     0.32540   0.92640   0.73870   0.01267  Uiso   1.00
H5     H     0.16130   0.36790   0.71070   0.01267  Uiso   1.00
H6     H     0.82540   0.92640   0.76130   0.01267  Uiso   1.00
H7     H     0.33870   0.63210   0.21070   0.01267  Uiso   1.00
H8     H     0.67460   0.07360   0.26130   0.01267  Uiso   1.00
C1     C     0.02100   0.93900   0.37120   0.01267  Uiso   1.00
C2     C     0.01300   0.87600   0.29090   0.01267  Uiso   1.00
C3     C     0.91500   0.72200   0.26180   0.01267  Uiso   1.00
C4     C     0.94800   0.72400   0.18500   0.01267  Uiso   1.00
C5     C     0.90500   0.59200   0.12270   0.01267  Uiso   1.00
C6     C     0.92800   0.43500   0.47510   0.01267  Uiso   1.00
C7     C     0.47900   0.06100   0.87120   0.01267  Uiso   1.00
C8     C     0.48700   0.12400   0.79090   0.01267  Uiso   1.00
C9     C     0.58500   0.27800   0.76180   0.01267  Uiso   1.00
C10    C     0.55200   0.27600   0.68500   0.01267  Uiso   1.00
C11    C     0.59500   0.40800   0.62270   0.01267  Uiso   1.00
C12    C     0.57200   0.56500   0.97510   0.01267  Uiso   1.00
C13    C     0.97900   0.06100   0.62880   0.01267  Uiso   1.00
C14    C     0.98700   0.12400   0.70910   0.01267  Uiso   1.00
C15    C     0.08500   0.27800   0.73820   0.01267  Uiso   1.00
C16    C     0.05200   0.27600   0.81500   0.01267  Uiso   1.00
C17    C     0.09500   0.40800   0.87730   0.01267  Uiso   1.00
C18    C     0.07200   0.56500   0.52490   0.01267  Uiso   1.00
C19    C     0.52100   0.93900   0.12880   0.01267  Uiso   1.00
C20    C     0.51300   0.87600   0.20910   0.01267  Uiso   1.00
C21    C     0.41500   0.72200   0.23820   0.01267  Uiso   1.00
C22    C     0.44800   0.72400   0.31500   0.01267  Uiso   1.00
C23    C     0.40500   0.59200   0.37730   0.01267  Uiso   1.00
C24    C     0.42800   0.43500   0.02490   0.01267  Uiso   1.00
N1     N     0.10700   0.96900   0.23450   0.01267  Uiso   1.00
N2     N     0.08300   0.87800   0.17030   0.01267  Uiso   1.00
N3     N     0.39300   0.03100   0.73450   0.01267  Uiso   1.00
N4     N     0.41700   0.12200   0.67030   0.01267  Uiso   1.00
N5     N     0.89300   0.03100   0.76550   0.01267  Uiso   1.00
N6     N     0.91700   0.12200   0.82970   0.01267  Uiso   1.00
N7     N     0.60700   0.96900   0.26550   0.01267  Uiso   1.00
N8     N     0.58300   0.87800   0.32970   0.01267  Uiso   1.00
O1     O     0.92500   0.84750   0.41860   0.01267  Uiso   1.00
O2     O     0.12560   0.08250   0.38260   0.01267  Uiso   1.00
O3     O     0.76650   0.46960   0.12920   0.01267  Uiso   1.00
O4     O     0.00000   0.61800   0.06390   0.01267  Uiso   1.00
O5     O     0.79580   0.48000   0.45750   0.01267  Uiso   1.00
O6     O     0.95130   0.29840   0.45670   0.01267  Uiso   1.00
O7     O     0.57500   0.15250   0.91860   0.01267  Uiso   1.00
O8     O     0.37440   0.91750   0.88260   0.01267  Uiso   1.00
O9     O     0.73350   0.53040   0.62920   0.01267  Uiso   1.00
O10    O     0.50000   0.38200   0.56390   0.01267  Uiso   1.00
O11    O     0.70420   0.52000   0.95750   0.01267  Uiso   1.00
O12    O     0.54870   0.70160   0.95670   0.01267  Uiso   1.00
O13    O     0.07500   0.15250   0.58140   0.01267  Uiso   1.00
O14    O     0.87440   0.91750   0.61740   0.01267  Uiso   1.00
O15    O     0.23350   0.53040   0.87080   0.01267  Uiso   1.00
O16    O     0.00000   0.38200   0.93610   0.01267  Uiso   1.00
O17    O     0.20420   0.52000   0.54250   0.01267  Uiso   1.00
O18    O     0.04870   0.70160   0.54330   0.01267  Uiso   1.00
O19    O     0.42500   0.84750   0.08140   0.01267  Uiso   1.00
O20    O     0.62560   0.08250   0.11740   0.01267  Uiso   1.00
O21    O     0.26650   0.46960   0.37080   0.01267  Uiso   1.00
O22    O     0.50000   0.61800   0.43610   0.01267  Uiso   1.00
O23    O     0.29580   0.48000   0.04250   0.01267  Uiso   1.00
O24    O     0.45130   0.29840   0.04330   0.01267  Uiso   1.00
