data_image0
_cell_length_a       10.188
_cell_length_b       10.8386
_cell_length_c       13.8721
_cell_angle_alpha    78.673
_cell_angle_beta     79.281
_cell_angle_gamma    86.126

_symmetry_space_group_name_H-M    "P 1"
_symmetry_int_tables_number       1

loop_
  _symmetry_equiv_pos_as_xyz
  'x, y, z'

loop_
  _atom_site_label
  _atom_site_occupancy
  _atom_site_fract_x
  _atom_site_fract_y
  _atom_site_fract_z
  _atom_site_thermal_displace_type
  _atom_site_B_iso_or_equiv
  _atom_site_type_symbol
  C1       1.0000 0.59520  0.90070  0.21430  Biso   1.000  C
  C2       1.0000 0.73660  0.88590  0.16740  Biso   1.000  C
  C3       1.0000 0.84400  0.89540  0.21430  Biso   1.000  C
  H1       1.0000 0.82710  0.91210  0.27880  Biso   1.000  H
  C4       1.0000 0.97300  0.88100  0.16860  Biso   1.000  C
  C5       1.0000 0.00040  0.85480  0.07170  Biso   1.000  C
  H2       1.0000 0.08820  0.84810  0.03900  Biso   1.000  H
  C6       1.0000 0.89390  0.83890  0.02490  Biso   1.000  C
  C7       1.0000 0.76410  0.85800  0.07090  Biso   1.000  C
  H3       1.0000 0.69400  0.85240  0.03760  Biso   1.000  H
  C8       1.0000 0.09210  0.89290  0.21620  Biso   1.000  C
  C9       1.0000 0.00420  0.70450  0.91150  Biso   1.000  C
  C10      1.0000 0.00840  0.66600  0.81320  Biso   1.000  C
  C11      1.0000 0.01520  0.74770  0.72250  Biso   1.000  C
  H4       1.0000 0.01360  0.83430  0.71900  Biso   1.000  H
  C12      1.0000 0.02440  0.69750  0.63670  Biso   1.000  C
  H5       1.0000 0.03220  0.75230  0.57550  Biso   1.000  H
  C13      1.0000 0.01550  0.49680  0.72560  Biso   1.000  C
  H6       1.0000 0.01320  0.41080  0.72720  Biso   1.000  H
  C14      1.0000 0.01120  0.53780  0.81600  Biso   1.000  C
  H7       1.0000 0.01030  0.48070  0.87570  Biso   1.000  H
  C15      1.0000 0.27250  0.60550  0.35270  Biso   1.000  C
  C16      1.0000 0.30030  0.52730  0.27310  Biso   1.000  C
  C17      1.0000 0.32310  0.58350  0.17240  Biso   1.000  C
  H8       1.0000 0.32910  0.67050  0.15440  Biso   1.000  H
  C18      1.0000 0.33700  0.51130  0.09820  Biso   1.000  C
  C19      1.0000 0.33560  0.38060  0.12660  Biso   1.000  C
  H9       1.0000 0.34680  0.33050  0.07830  Biso   1.000  H
  C20      1.0000 0.31770  0.32540  0.22690  Biso   1.000  C
  C21      1.0000 0.29890  0.39820  0.29960  Biso   1.000  C
  H10      1.0000 0.28520  0.36010  0.36670  Biso   1.000  H
  C22      1.0000 0.31260  0.18900  0.25210  Biso   1.000  C
  C23      1.0000 0.33390  0.51850  0.92100  Biso   1.000  C
  C24      1.0000 0.34840  0.60210  0.81930  Biso   1.000  C
  C25      1.0000 0.34810  0.73170  0.80040  Biso   1.000  C
  H11      1.0000 0.34340  0.77570  0.85220  Biso   1.000  H
  C26      1.0000 0.35500  0.79550  0.70260  Biso   1.000  C
  H12      1.0000 0.35710  0.88290  0.69030  Biso   1.000  H
  C27      1.0000 0.35930  0.61470  0.64270  Biso   1.000  C
  H13      1.0000 0.36280  0.57430  0.58900  Biso   1.000  H
  C28      1.0000 0.35490  0.54260  0.73660  Biso   1.000  C
  H14      1.0000 0.35620  0.45530  0.74550  Biso   1.000  H
  N1       1.0000 0.91800  0.80150  0.93080  Biso   1.000  N
  H15      1.0000 0.87690  0.84130  0.88460  Biso   1.000  H
  N2       1.0000 0.02270  0.57410  0.63800  Biso   1.000  N
  N3       1.0000 0.35450  0.57050  0.99700  Biso   1.000  N
  H16      1.0000 0.38070  0.64670  0.98260  Biso   1.000  H
  N4       1.0000 0.35870  0.73880  0.62570  Biso   1.000  N
  O1       1.0000 0.56250  0.90090  0.30760  Biso   1.000  O
  O2       1.0000 0.50570  0.91450  0.16170  Biso   1.000  O
  O3       1.0000 0.07160  0.90530  0.30830  Biso   1.000  O
  O4       1.0000 0.20580  0.88820  0.16600  Biso   1.000  O
  O5       1.0000 0.07640  0.65280  0.96850  Biso   1.000  O
  O6       1.0000 0.32130  0.71190  0.33350  Biso   1.000  O
  O7       1.0000 0.19960  0.56230  0.43350  Biso   1.000  O
  O8       1.0000 0.32550  0.13070  0.33910  Biso   1.000  O
  O9       1.0000 0.29590  0.12630  0.18920  Biso   1.000  O
  O10      1.0000 0.30490  0.41140  0.92880  Biso   1.000  O
  Sm1      1.0000 0.31986  0.92336  0.29666  Biso   1.000  Sm
  C29      1.0000 0.40480  0.09930  0.78570  Biso   1.000  C
  C30      1.0000 0.26340  0.11410  0.83260  Biso   1.000  C
  C31      1.0000 0.15600  0.10460  0.78570  Biso   1.000  C
  H17      1.0000 0.17290  0.08790  0.72120  Biso   1.000  H
  C32      1.0000 0.02700  0.11900  0.83140  Biso   1.000  C
  C33      1.0000 0.99960  0.14520  0.92830  Biso   1.000  C
  H18      1.0000 0.91180  0.15190  0.96100  Biso   1.000  H
  C34      1.0000 0.10610  0.16110  0.97510  Biso   1.000  C
  C35      1.0000 0.23590  0.14200  0.92910  Biso   1.000  C
  H19      1.0000 0.30600  0.14760  0.96240  Biso   1.000  H
  C36      1.0000 0.90790  0.10710  0.78380  Biso   1.000  C
  C37      1.0000 0.99580  0.29550  0.08850  Biso   1.000  C
  C38      1.0000 0.99160  0.33400  0.18680  Biso   1.000  C
  C39      1.0000 0.98480  0.25230  0.27750  Biso   1.000  C
  H20      1.0000 0.98640  0.16570  0.28100  Biso   1.000  H
  C40      1.0000 0.97560  0.30250  0.36330  Biso   1.000  C
  H21      1.0000 0.96780  0.24770  0.42450  Biso   1.000  H
  C41      1.0000 0.98450  0.50320  0.27440  Biso   1.000  C
  H22      1.0000 0.98680  0.58920  0.27280  Biso   1.000  H
  C42      1.0000 0.98880  0.46220  0.18400  Biso   1.000  C
  H23      1.0000 0.98970  0.51930  0.12430  Biso   1.000  H
  C43      1.0000 0.72750  0.39450  0.64730  Biso   1.000  C
  C44      1.0000 0.69970  0.47270  0.72690  Biso   1.000  C
  C45      1.0000 0.67690  0.41650  0.82760  Biso   1.000  C
  H24      1.0000 0.67090  0.32950  0.84560  Biso   1.000  H
  C46      1.0000 0.66300  0.48870  0.90180  Biso   1.000  C
  C47      1.0000 0.66440  0.61940  0.87340  Biso   1.000  C
  H25      1.0000 0.65320  0.66950  0.92170  Biso   1.000  H
  C48      1.0000 0.68230  0.67460  0.77310  Biso   1.000  C
  C49      1.0000 0.70110  0.60180  0.70040  Biso   1.000  C
  H26      1.0000 0.71480  0.63990  0.63330  Biso   1.000  H
  C50      1.0000 0.68740  0.81100  0.74790  Biso   1.000  C
  C51      1.0000 0.66610  0.48150  0.07900  Biso   1.000  C
  C52      1.0000 0.65160  0.39790  0.18070  Biso   1.000  C
  C53      1.0000 0.65190  0.26830  0.19960  Biso   1.000  C
  H27      1.0000 0.65660  0.22430  0.14780  Biso   1.000  H
  C54      1.0000 0.64500  0.20450  0.29740  Biso   1.000  C
  H28      1.0000 0.64290  0.11710  0.30970  Biso   1.000  H
  C55      1.0000 0.64070  0.38530  0.35730  Biso   1.000  C
  H29      1.0000 0.63720  0.42570  0.41100  Biso   1.000  H
  C56      1.0000 0.64510  0.45740  0.26340  Biso   1.000  C
  H30      1.0000 0.64380  0.54470  0.25450  Biso   1.000  H
  N5       1.0000 0.08200  0.19850  0.06920  Biso   1.000  N
  H31      1.0000 0.12310  0.15870  0.11540  Biso   1.000  H
  N6       1.0000 0.97730  0.42590  0.36200  Biso   1.000  N
  N7       1.0000 0.64550  0.42950  0.00300  Biso   1.000  N
  H32      1.0000 0.61930  0.35330  0.01740  Biso   1.000  H
  N8       1.0000 0.64130  0.26120  0.37430  Biso   1.000  N
  O11      1.0000 0.43750  0.09910  0.69240  Biso   1.000  O
  O12      1.0000 0.49430  0.08550  0.83830  Biso   1.000  O
  O13      1.0000 0.92840  0.09470  0.69170  Biso   1.000  O
  O14      1.0000 0.79420  0.11180  0.83400  Biso   1.000  O
  O15      1.0000 0.92360  0.34720  0.03150  Biso   1.000  O
  O16      1.0000 0.67870  0.28810  0.66650  Biso   1.000  O
  O17      1.0000 0.80040  0.43770  0.56650  Biso   1.000  O
  O18      1.0000 0.67450  0.86930  0.66090  Biso   1.000  O
  O19      1.0000 0.70410  0.87370  0.81080  Biso   1.000  O
  O20      1.0000 0.69510  0.58860  0.07120  Biso   1.000  O
  Sm2      1.0000 0.68014  0.07664  0.70334  Biso   1.000  Sm
  Mn1      1.0000 0.00000  0.50000  0.50000  Biso   1.000  Mn
