data_MUGFOK_clean
_audit_creation_date              2014-07-02
_audit_creation_method            'Materials Studio'
_symmetry_space_group_name_H-M    'P1'
_symmetry_Int_Tables_number       1
_symmetry_cell_setting            triclinic
loop_
_symmetry_equiv_pos_as_xyz
  x,y,z
_cell_length_a                    15.4810
_cell_length_b                    15.8657
_cell_length_c                    15.8657
_cell_angle_alpha                 76.2302
_cell_angle_beta                  60.7990
_cell_angle_gamma                 60.7990
loop_
_atom_site_label
_atom_site_type_symbol
_atom_site_fract_x
_atom_site_fract_y
_atom_site_fract_z
_atom_site_U_iso_or_equiv
_atom_site_adp_type
_atom_site_occupancy
Ni1    Ni    0.50000   0.00000   0.00000   0.01267  Uiso   1.00
Ni2    Ni    0.00000   0.50000   0.50000   0.01267  Uiso   1.00
Ni3    Ni    0.00000   1.00000   0.50000   0.01267  Uiso   1.00
Ni4    Ni    0.00000   0.50000  -0.00000   0.01267  Uiso   1.00
Mo1    Mo    0.87500   0.75000   0.75000   0.01267  Uiso   1.00
Mo2    Mo    0.12500   0.25000   0.25000   0.01267  Uiso   1.00
H1     H     0.28960   0.97710   0.08850   0.01267  Uiso   1.00
H2     H     0.32260   0.86900   0.07320   0.01267  Uiso   1.00
H3     H     0.47440   0.81180   0.89180   0.01267  Uiso   1.00
H4     H     0.41990   0.83560   0.17640   0.01267  Uiso   1.00
H5     H     0.38860   0.94680   0.17360   0.01267  Uiso   1.00
H6     H     0.49800   0.83820   0.00680   0.01267  Uiso   1.00
H7     H     0.85520   0.52290   0.41150   0.01267  Uiso   1.00
H8     H     0.76480   0.63100   0.42680   0.01267  Uiso   1.00
H9     H     0.67800   0.68820   0.60820   0.01267  Uiso   1.00
H10    H     0.93190   0.66440   0.32360   0.01267  Uiso   1.00
H11    H     0.00900   0.55320   0.32640   0.01267  Uiso   1.00
H12    H     0.84300   0.66180   0.49320   0.01267  Uiso   1.00
H13    H     0.87810   0.91150   0.47710   0.01267  Uiso   1.00
H14    H     0.89580   0.92680   0.36900   0.01267  Uiso   1.00
H15    H     0.86620   0.10820   0.31180   0.01267  Uiso   1.00
H16    H     0.09630   0.82360   0.33560   0.01267  Uiso   1.00
H17    H     0.06220   0.82640   0.44680   0.01267  Uiso   1.00
H18    H     0.00480   0.99320   0.33820   0.01267  Uiso   1.00
H19    H     0.76670   0.58850   0.02290   0.01267  Uiso   1.00
H20    H     0.69160   0.57320   0.13100   0.01267  Uiso   1.00
H21    H     0.78620   0.39180   0.18820   0.01267  Uiso   1.00
H22    H     0.75550   0.67640   0.16440   0.01267  Uiso   1.00
H23    H     0.83540   0.67360   0.05320   0.01267  Uiso   1.00
H24    H     0.83620   0.50680   0.16180   0.01267  Uiso   1.00
H25    H     0.14480   0.58850   0.47710   0.01267  Uiso   1.00
H26    H     0.23520   0.57320   0.36900   0.01267  Uiso   1.00
H27    H     0.32200   0.39180   0.31180   0.01267  Uiso   1.00
H28    H     0.06810   0.67640   0.33560   0.01267  Uiso   1.00
H29    H     0.99100   0.67360   0.44680   0.01267  Uiso   1.00
H30    H     0.15700   0.50680   0.33820   0.01267  Uiso   1.00
H31    H     0.71040   0.91150   0.02290   0.01267  Uiso   1.00
H32    H     0.67740   0.92680   0.13100   0.01267  Uiso   1.00
H33    H     0.52560   0.10820   0.18820   0.01267  Uiso   1.00
H34    H     0.58010   0.82360   0.16440   0.01267  Uiso   1.00
H35    H     0.61140   0.82640   0.05320   0.01267  Uiso   1.00
H36    H     0.50200   0.99320   0.16180   0.01267  Uiso   1.00
H37    H     0.23330   0.97710   0.41150   0.01267  Uiso   1.00
H38    H     0.30840   0.86900   0.42680   0.01267  Uiso   1.00
H39    H     0.21380   0.81180   0.60820   0.01267  Uiso   1.00
H40    H     0.24450   0.83560   0.32360   0.01267  Uiso   1.00
H41    H     0.16460   0.94680   0.32640   0.01267  Uiso   1.00
H42    H     0.16380   0.83820   0.49320   0.01267  Uiso   1.00
H43    H     0.12190   0.52290   0.08850   0.01267  Uiso   1.00
H44    H     0.10420   0.63100   0.07320   0.01267  Uiso   1.00
H45    H     0.13380   0.68820   0.89180   0.01267  Uiso   1.00
H46    H     0.90370   0.66440   0.17640   0.01267  Uiso   1.00
H47    H     0.93780   0.55320   0.17360   0.01267  Uiso   1.00
H48    H     0.99520   0.66180   0.00680   0.01267  Uiso   1.00
H49    H     0.71040   0.02290   0.91150   0.01267  Uiso   1.00
H50    H     0.67740   0.13100   0.92680   0.01267  Uiso   1.00
H51    H     0.52560   0.18820   0.10820   0.01267  Uiso   1.00
H52    H     0.58010   0.16440   0.82360   0.01267  Uiso   1.00
H53    H     0.61140   0.05320   0.82640   0.01267  Uiso   1.00
H54    H     0.50200   0.16180   0.99320   0.01267  Uiso   1.00
H55    H     0.14480   0.47710   0.58850   0.01267  Uiso   1.00
H56    H     0.23520   0.36900   0.57320   0.01267  Uiso   1.00
H57    H     0.32200   0.31180   0.39180   0.01267  Uiso   1.00
H58    H     0.06810   0.33560   0.67640   0.01267  Uiso   1.00
H59    H     0.99100   0.44680   0.67360   0.01267  Uiso   1.00
H60    H     0.15700   0.33820   0.50680   0.01267  Uiso   1.00
H61    H     0.12190   0.08850   0.52290   0.01267  Uiso   1.00
H62    H     0.10420   0.07320   0.63100   0.01267  Uiso   1.00
H63    H     0.13380   0.89180   0.68820   0.01267  Uiso   1.00
H64    H     0.90370   0.17640   0.66440   0.01267  Uiso   1.00
H65    H     0.93780   0.17360   0.55320   0.01267  Uiso   1.00
H66    H     0.99520   0.00680   0.66180   0.01267  Uiso   1.00
H67    H     0.23330   0.41150   0.97710   0.01267  Uiso   1.00
H68    H     0.30840   0.42680   0.86900   0.01267  Uiso   1.00
H69    H     0.21380   0.60820   0.81180   0.01267  Uiso   1.00
H70    H     0.24450   0.32360   0.83560   0.01267  Uiso   1.00
H71    H     0.16460   0.32640   0.94680   0.01267  Uiso   1.00
H72    H     0.16380   0.49320   0.83820   0.01267  Uiso   1.00
H73    H     0.85520   0.41150   0.52290   0.01267  Uiso   1.00
H74    H     0.76480   0.42680   0.63100   0.01267  Uiso   1.00
H75    H     0.67800   0.60820   0.68820   0.01267  Uiso   1.00
H76    H     0.93190   0.32360   0.66440   0.01267  Uiso   1.00
H77    H     0.00900   0.32640   0.55320   0.01267  Uiso   1.00
H78    H     0.84300   0.49320   0.66180   0.01267  Uiso   1.00
H79    H     0.28960   0.08850   0.97710   0.01267  Uiso   1.00
H80    H     0.32260   0.07320   0.86900   0.01267  Uiso   1.00
H81    H     0.47440   0.89180   0.81180   0.01267  Uiso   1.00
H82    H     0.41990   0.17640   0.83560   0.01267  Uiso   1.00
H83    H     0.38860   0.17360   0.94680   0.01267  Uiso   1.00
H84    H     0.49800   0.00680   0.83820   0.01267  Uiso   1.00
H85    H     0.76670   0.02290   0.58850   0.01267  Uiso   1.00
H86    H     0.69160   0.13100   0.57320   0.01267  Uiso   1.00
H87    H     0.78620   0.18820   0.39180   0.01267  Uiso   1.00
H88    H     0.75550   0.16440   0.67640   0.01267  Uiso   1.00
H89    H     0.83540   0.05320   0.67360   0.01267  Uiso   1.00
H90    H     0.83620   0.16180   0.50680   0.01267  Uiso   1.00
H91    H     0.87810   0.47710   0.91150   0.01267  Uiso   1.00
H92    H     0.89580   0.36900   0.92680   0.01267  Uiso   1.00
H93    H     0.86620   0.31180   0.10820   0.01267  Uiso   1.00
H94    H     0.09630   0.33560   0.82360   0.01267  Uiso   1.00
H95    H     0.06220   0.44680   0.82640   0.01267  Uiso   1.00
H96    H     0.00480   0.33820   0.99320   0.01267  Uiso   1.00
H97    H     0.28100   0.95610   0.95610   0.01267  Uiso   1.00
H98    H     0.69320   0.54390   0.54390   0.01267  Uiso   1.00
H99    H     0.73710   0.04390   0.45610   0.01267  Uiso   1.00
H100   H     0.73710   0.45610   0.04390   0.01267  Uiso   1.00
H101   H     0.30680   0.45610   0.45610   0.01267  Uiso   1.00
H102   H     0.71900   0.04390   0.04390   0.01267  Uiso   1.00
H103   H     0.26290   0.95610   0.54390   0.01267  Uiso   1.00
H104   H     0.26290   0.54390   0.95610   0.01267  Uiso   1.00
C1     C     0.34417   0.92122   0.04674   0.01267  Uiso   1.00
C2     C     0.44022   0.88637   0.13857   0.01267  Uiso   1.00
C3     C     0.81213   0.57878   0.45326   0.01267  Uiso   1.00
C4     C     0.96516   0.61363   0.36143   0.01267  Uiso   1.00
C5     C     0.89091   0.95326   0.42122   0.01267  Uiso   1.00
C6     C     0.07879   0.86143   0.38637   0.01267  Uiso   1.00
C7     C     0.76539   0.54674   0.07878   0.01267  Uiso   1.00
C8     C     0.82659   0.63857   0.11363   0.01267  Uiso   1.00
C9     C     0.18787   0.54674   0.42122   0.01267  Uiso   1.00
C10    C     0.03484   0.63857   0.38637   0.01267  Uiso   1.00
C11    C     0.65583   0.95326   0.07878   0.01267  Uiso   1.00
C12    C     0.55978   0.86143   0.11363   0.01267  Uiso   1.00
C13    C     0.23461   0.92122   0.45326   0.01267  Uiso   1.00
C14    C     0.17341   0.88637   0.36143   0.01267  Uiso   1.00
C15    C     0.10909   0.57878   0.04674   0.01267  Uiso   1.00
C16    C     0.92121   0.61363   0.13857   0.01267  Uiso   1.00
C17    C     0.65583   0.07878   0.95326   0.01267  Uiso   1.00
C18    C     0.55978   0.11363   0.86143   0.01267  Uiso   1.00
C19    C     0.18787   0.42122   0.54674   0.01267  Uiso   1.00
C20    C     0.03484   0.38637   0.63857   0.01267  Uiso   1.00
C21    C     0.10909   0.04674   0.57878   0.01267  Uiso   1.00
C22    C     0.92121   0.13857   0.61363   0.01267  Uiso   1.00
C23    C     0.23461   0.45326   0.92122   0.01267  Uiso   1.00
C24    C     0.17341   0.36143   0.88637   0.01267  Uiso   1.00
C25    C     0.81213   0.45326   0.57878   0.01267  Uiso   1.00
C26    C     0.96516   0.36143   0.61363   0.01267  Uiso   1.00
C27    C     0.34417   0.04674   0.92122   0.01267  Uiso   1.00
C28    C     0.44022   0.13857   0.88637   0.01267  Uiso   1.00
C29    C     0.76539   0.07878   0.54674   0.01267  Uiso   1.00
C30    C     0.82659   0.11363   0.63857   0.01267  Uiso   1.00
C31    C     0.89091   0.42122   0.95326   0.01267  Uiso   1.00
C32    C     0.07879   0.38637   0.86143   0.01267  Uiso   1.00
C33    C     0.91520   0.81550   0.81550   0.01267  Uiso   1.00
C34    C     0.73030   0.85210   0.85210   0.01267  Uiso   1.00
C35    C     0.35354   0.94536   0.94536   0.01267  Uiso   1.00
C36    C     0.42733   0.86847   0.86847   0.01267  Uiso   1.00
C37    C     0.36500   0.83880   0.83880   0.01267  Uiso   1.00
C38    C     0.04620   0.68450   0.68450   0.01267  Uiso   1.00
C39    C     0.93450   0.64790   0.64790   0.01267  Uiso   1.00
C40    C     0.74426   0.55464   0.55464   0.01267  Uiso   1.00
C41    C     0.66427   0.63153   0.63153   0.01267  Uiso   1.00
C42    C     0.54260   0.66120   0.66120   0.01267  Uiso   1.00
C43    C     0.23070   0.18450   0.31550   0.01267  Uiso   1.00
C44    C     0.08240   0.14790   0.35210   0.01267  Uiso   1.00
C45    C     0.79890   0.05464   0.44536   0.01267  Uiso   1.00
C46    C     0.79580   0.13153   0.36847   0.01267  Uiso   1.00
C47    C     0.70380   0.16120   0.33880   0.01267  Uiso   1.00
C48    C     0.23070   0.31550   0.18450   0.01267  Uiso   1.00
C49    C     0.08240   0.35210   0.14790   0.01267  Uiso   1.00
C50    C     0.79890   0.44536   0.05464   0.01267  Uiso   1.00
C51    C     0.79580   0.36847   0.13153   0.01267  Uiso   1.00
C52    C     0.70380   0.33880   0.16120   0.01267  Uiso   1.00
C53    C     0.95380   0.31550   0.31550   0.01267  Uiso   1.00
C54    C     0.06550   0.35210   0.35210   0.01267  Uiso   1.00
C55    C     0.25574   0.44536   0.44536   0.01267  Uiso   1.00
C56    C     0.33573   0.36847   0.36847   0.01267  Uiso   1.00
C57    C     0.45740   0.33880   0.33880   0.01267  Uiso   1.00
C58    C     0.08480   0.18450   0.18450   0.01267  Uiso   1.00
C59    C     0.26970   0.14790   0.14790   0.01267  Uiso   1.00
C60    C     0.64646   0.05464   0.05464   0.01267  Uiso   1.00
C61    C     0.57267   0.13153   0.13153   0.01267  Uiso   1.00
C62    C     0.63500   0.16120   0.16120   0.01267  Uiso   1.00
C63    C     0.76930   0.81550   0.68450   0.01267  Uiso   1.00
C64    C     0.91760   0.85210   0.64790   0.01267  Uiso   1.00
C65    C     0.20110   0.94536   0.55464   0.01267  Uiso   1.00
C66    C     0.20420   0.86847   0.63153   0.01267  Uiso   1.00
C67    C     0.29620   0.83880   0.66120   0.01267  Uiso   1.00
C68    C     0.76930   0.68450   0.81550   0.01267  Uiso   1.00
C69    C     0.91760   0.64790   0.85210   0.01267  Uiso   1.00
C70    C     0.20110   0.55464   0.94536   0.01267  Uiso   1.00
C71    C     0.20420   0.63153   0.86847   0.01267  Uiso   1.00
C72    C     0.29620   0.66120   0.83880   0.01267  Uiso   1.00
N1     N     0.44504   0.89440   0.03952   0.01267  Uiso   1.00
N2     N     0.87896   0.60560   0.46048   0.01267  Uiso   1.00
N3     N     0.98456   0.96048   0.39440   0.01267  Uiso   1.00
N4     N     0.83944   0.53952   0.10560   0.01267  Uiso   1.00
N5     N     0.12104   0.53952   0.39440   0.01267  Uiso   1.00
N6     N     0.55496   0.96048   0.10560   0.01267  Uiso   1.00
N7     N     0.16056   0.89440   0.46048   0.01267  Uiso   1.00
N8     N     0.01544   0.60560   0.03952   0.01267  Uiso   1.00
N9     N     0.55496   0.10560   0.96048   0.01267  Uiso   1.00
N10    N     0.12104   0.39440   0.53952   0.01267  Uiso   1.00
N11    N     0.01544   0.03952   0.60560   0.01267  Uiso   1.00
N12    N     0.16056   0.46048   0.89440   0.01267  Uiso   1.00
N13    N     0.87896   0.46048   0.60560   0.01267  Uiso   1.00
N14    N     0.44504   0.03952   0.89440   0.01267  Uiso   1.00
N15    N     0.83944   0.10560   0.53952   0.01267  Uiso   1.00
N16    N     0.98456   0.39440   0.96048   0.01267  Uiso   1.00
N17    N     0.93988   0.85240   0.85240   0.01267  Uiso   1.00
N18    N     0.64985   0.90785   0.90785   0.01267  Uiso   1.00
N19    N     0.14468   0.64760   0.64760   0.01267  Uiso   1.00
N20    N     0.96555   0.59215   0.59215   0.01267  Uiso   1.00
N21    N     0.29228   0.14760   0.35240   0.01267  Uiso   1.00
N22    N     0.05770   0.09215   0.40785   0.01267  Uiso   1.00
N23    N     0.29228   0.35240   0.14760   0.01267  Uiso   1.00
N24    N     0.05770   0.40785   0.09215   0.01267  Uiso   1.00
N25    N     0.85532   0.35240   0.35240   0.01267  Uiso   1.00
N26    N     0.03445   0.40785   0.40785   0.01267  Uiso   1.00
N27    N     0.06012   0.14760   0.14760   0.01267  Uiso   1.00
N28    N     0.35015   0.09215   0.09215   0.01267  Uiso   1.00
N29    N     0.70772   0.85240   0.64760   0.01267  Uiso   1.00
N30    N     0.94230   0.90785   0.59215   0.01267  Uiso   1.00
N31    N     0.70772   0.64760   0.85240   0.01267  Uiso   1.00
N32    N     0.94230   0.59215   0.90785   0.01267  Uiso   1.00
