data_image0
_cell_length_a       14.6978
_cell_length_b       19.3933
_cell_length_c       10.356
_cell_angle_alpha    90
_cell_angle_beta     90
_cell_angle_gamma    90

_symmetry_space_group_name_H-M    "P 1"
_symmetry_int_tables_number       1

loop_
  _symmetry_equiv_pos_as_xyz
  'x, y, z'

loop_
  _atom_site_label
  _atom_site_occupancy
  _atom_site_fract_x
  _atom_site_fract_y
  _atom_site_fract_z
  _atom_site_thermal_displace_type
  _atom_site_B_iso_or_equiv
  _atom_site_type_symbol
  Cu1      1.0000 0.34552  0.38215  0.75452  Biso   1.000  Cu
  N1       1.0000 0.09470  0.33589  0.32960  Biso   1.000  N
  N2       1.0000 0.32760  0.52242  0.44490  Biso   1.000  N
  N3       1.0000 0.34420  0.45002  0.61340  Biso   1.000  N
  N4       1.0000 0.40650  0.50304  0.62510  Biso   1.000  N
  N5       1.0000 0.50970  0.62976  0.58220  Biso   1.000  N
  N6       1.0000 0.44230  0.64023  0.38830  Biso   1.000  N
  N7       1.0000 0.50330  0.69355  0.40000  Biso   1.000  N
  N8       1.0000 0.74210  0.81770  0.68240  Biso   1.000  N
  C1       1.0000 0.12710  0.39290  0.27190  Biso   1.000  C
  H1       1.0000 0.10370  0.40450  0.19130  Biso   1.000  H
  C2       1.0000 0.19300  0.43530  0.32470  Biso   1.000  C
  H2       1.0000 0.21450  0.47300  0.27830  Biso   1.000  H
  C3       1.0000 0.22660  0.42160  0.44650  Biso   1.000  C
  C4       1.0000 0.18940  0.36530  0.51040  Biso   1.000  C
  H3       1.0000 0.20700  0.35530  0.59460  Biso   1.000  H
  C5       1.0000 0.12600  0.32430  0.44810  Biso   1.000  C
  H4       1.0000 0.10380  0.28600  0.49210  Biso   1.000  H
  C6       1.0000 0.29920  0.46420  0.50360  Biso   1.000  C
  C7       1.0000 0.39340  0.54310  0.52290  Biso   1.000  C
  C8       1.0000 0.44860  0.60490  0.49780  Biso   1.000  C
  C9       1.0000 0.54080  0.68510  0.51780  Biso   1.000  C
  C10      1.0000 0.60860  0.73190  0.57370  Biso   1.000  C
  C11      1.0000 0.63490  0.79230  0.51480  Biso   1.000  C
  H5       1.0000 0.60890  0.80530  0.43670  Biso   1.000  H
  C12      1.0000 0.70050  0.83390  0.57220  Biso   1.000  C
  H6       1.0000 0.71610  0.87500  0.53170  Biso   1.000  H
  C13      1.0000 0.71600  0.75870  0.73860  Biso   1.000  C
  H7       1.0000 0.74400  0.74640  0.81580  Biso   1.000  H
  C14      1.0000 0.65050  0.71500  0.68960  Biso   1.000  C
  H8       1.0000 0.63460  0.67490  0.73350  Biso   1.000  H
  Cu2      1.0000 0.15448  0.11785  0.25452  Biso   1.000  Cu
  N9       1.0000 0.40530  0.16411  0.82960  Biso   1.000  N
  N10      1.0000 0.17240  0.97758  0.94490  Biso   1.000  N
  N11      1.0000 0.15580  0.04998  0.11340  Biso   1.000  N
  N12      1.0000 0.09350  0.99696  0.12510  Biso   1.000  N
  N13      1.0000 0.99030  0.87024  0.08220  Biso   1.000  N
  N14      1.0000 0.05770  0.85977  0.88830  Biso   1.000  N
  N15      1.0000 0.99670  0.80645  0.90000  Biso   1.000  N
  N16      1.0000 0.75790  0.68230  0.18240  Biso   1.000  N
  C15      1.0000 0.37290  0.10710  0.77190  Biso   1.000  C
  H9       1.0000 0.39630  0.09550  0.69130  Biso   1.000  H
  C16      1.0000 0.30700  0.06470  0.82470  Biso   1.000  C
  H10      1.0000 0.28550  0.02700  0.77830  Biso   1.000  H
  C17      1.0000 0.27340  0.07840  0.94650  Biso   1.000  C
  C18      1.0000 0.31060  0.13470  0.01040  Biso   1.000  C
  H11      1.0000 0.29300  0.14470  0.09460  Biso   1.000  H
  C19      1.0000 0.37400  0.17570  0.94810  Biso   1.000  C
  H12      1.0000 0.39620  0.21400  0.99210  Biso   1.000  H
  C20      1.0000 0.20080  0.03580  0.00360  Biso   1.000  C
  C21      1.0000 0.10660  0.95690  0.02290  Biso   1.000  C
  C22      1.0000 0.05140  0.89510  0.99780  Biso   1.000  C
  C23      1.0000 0.95920  0.81490  0.01780  Biso   1.000  C
  C24      1.0000 0.89140  0.76810  0.07370  Biso   1.000  C
  C25      1.0000 0.86510  0.70770  0.01480  Biso   1.000  C
  H13      1.0000 0.89110  0.69470  0.93670  Biso   1.000  H
  C26      1.0000 0.79950  0.66610  0.07220  Biso   1.000  C
  H14      1.0000 0.78390  0.62500  0.03170  Biso   1.000  H
  C27      1.0000 0.78400  0.74130  0.23860  Biso   1.000  C
  H15      1.0000 0.75600  0.75360  0.31580  Biso   1.000  H
  C28      1.0000 0.84950  0.78500  0.18960  Biso   1.000  C
  H16      1.0000 0.86540  0.82510  0.23350  Biso   1.000  H
  Cu3      1.0000 0.65448  0.38215  0.74548  Biso   1.000  Cu
  N17      1.0000 0.90530  0.33589  0.17040  Biso   1.000  N
  N18      1.0000 0.67240  0.52242  0.05510  Biso   1.000  N
  N19      1.0000 0.65580  0.45002  0.88660  Biso   1.000  N
  N20      1.0000 0.59350  0.50304  0.87490  Biso   1.000  N
  N21      1.0000 0.49030  0.62976  0.91780  Biso   1.000  N
  N22      1.0000 0.55770  0.64023  0.11170  Biso   1.000  N
  N23      1.0000 0.49670  0.69355  0.10000  Biso   1.000  N
  N24      1.0000 0.25790  0.81770  0.81760  Biso   1.000  N
  C29      1.0000 0.87290  0.39290  0.22810  Biso   1.000  C
  H17      1.0000 0.89630  0.40450  0.30870  Biso   1.000  H
  C30      1.0000 0.80700  0.43530  0.17530  Biso   1.000  C
  H18      1.0000 0.78550  0.47300  0.22170  Biso   1.000  H
  C31      1.0000 0.77340  0.42160  0.05350  Biso   1.000  C
  C32      1.0000 0.81060  0.36530  0.98960  Biso   1.000  C
  H19      1.0000 0.79300  0.35530  0.90540  Biso   1.000  H
  C33      1.0000 0.87400  0.32430  0.05190  Biso   1.000  C
  H20      1.0000 0.89620  0.28600  0.00790  Biso   1.000  H
  C34      1.0000 0.70080  0.46420  0.99640  Biso   1.000  C
  C35      1.0000 0.60660  0.54310  0.97710  Biso   1.000  C
  C36      1.0000 0.55140  0.60490  0.00220  Biso   1.000  C
  C37      1.0000 0.45920  0.68510  0.98220  Biso   1.000  C
  C38      1.0000 0.39140  0.73190  0.92630  Biso   1.000  C
  C39      1.0000 0.36510  0.79230  0.98520  Biso   1.000  C
  H21      1.0000 0.39110  0.80530  0.06330  Biso   1.000  H
  C40      1.0000 0.29950  0.83390  0.92780  Biso   1.000  C
  H22      1.0000 0.28390  0.87500  0.96830  Biso   1.000  H
  C41      1.0000 0.28400  0.75870  0.76140  Biso   1.000  C
  H23      1.0000 0.25600  0.74640  0.68420  Biso   1.000  H
  C42      1.0000 0.34950  0.71500  0.81040  Biso   1.000  C
  H24      1.0000 0.36540  0.67490  0.76650  Biso   1.000  H
  Cu4      1.0000 0.84552  0.11785  0.24548  Biso   1.000  Cu
  N25      1.0000 0.59470  0.16411  0.67040  Biso   1.000  N
  N26      1.0000 0.82760  0.97758  0.55510  Biso   1.000  N
  N27      1.0000 0.84420  0.04998  0.38660  Biso   1.000  N
  N28      1.0000 0.90650  0.99696  0.37490  Biso   1.000  N
  N29      1.0000 0.00970  0.87024  0.41780  Biso   1.000  N
  N30      1.0000 0.94230  0.85977  0.61170  Biso   1.000  N
  N31      1.0000 0.00330  0.80645  0.60000  Biso   1.000  N
  N32      1.0000 0.24210  0.68230  0.31760  Biso   1.000  N
  C43      1.0000 0.62710  0.10710  0.72810  Biso   1.000  C
  H25      1.0000 0.60370  0.09550  0.80870  Biso   1.000  H
  C44      1.0000 0.69300  0.06470  0.67530  Biso   1.000  C
  H26      1.0000 0.71450  0.02700  0.72170  Biso   1.000  H
  C45      1.0000 0.72660  0.07840  0.55350  Biso   1.000  C
  C46      1.0000 0.68940  0.13470  0.48960  Biso   1.000  C
  H27      1.0000 0.70700  0.14470  0.40540  Biso   1.000  H
  C47      1.0000 0.62600  0.17570  0.55190  Biso   1.000  C
  H28      1.0000 0.60380  0.21400  0.50790  Biso   1.000  H
  C48      1.0000 0.79920  0.03580  0.49640  Biso   1.000  C
  C49      1.0000 0.89340  0.95690  0.47710  Biso   1.000  C
  C50      1.0000 0.94860  0.89510  0.50220  Biso   1.000  C
  C51      1.0000 0.04080  0.81490  0.48220  Biso   1.000  C
  C52      1.0000 0.10860  0.76810  0.42630  Biso   1.000  C
  C53      1.0000 0.13490  0.70770  0.48520  Biso   1.000  C
  H29      1.0000 0.10890  0.69470  0.56330  Biso   1.000  H
  C54      1.0000 0.20050  0.66610  0.42780  Biso   1.000  C
  H30      1.0000 0.21610  0.62500  0.46830  Biso   1.000  H
  C55      1.0000 0.21600  0.74130  0.26140  Biso   1.000  C
  H31      1.0000 0.24400  0.75360  0.18420  Biso   1.000  H
  C56      1.0000 0.15050  0.78500  0.31040  Biso   1.000  C
  H32      1.0000 0.13460  0.82510  0.26650  Biso   1.000  H
  Cu5      1.0000 0.65448  0.61785  0.24548  Biso   1.000  Cu
  N33      1.0000 0.90530  0.66411  0.67040  Biso   1.000  N
  N34      1.0000 0.67240  0.47758  0.55510  Biso   1.000  N
  N35      1.0000 0.65580  0.54998  0.38660  Biso   1.000  N
  N36      1.0000 0.59350  0.49696  0.37490  Biso   1.000  N
  N37      1.0000 0.49030  0.37024  0.41780  Biso   1.000  N
  N38      1.0000 0.55770  0.35977  0.61170  Biso   1.000  N
  N39      1.0000 0.49670  0.30645  0.60000  Biso   1.000  N
  N40      1.0000 0.25790  0.18230  0.31760  Biso   1.000  N
  C57      1.0000 0.87290  0.60710  0.72810  Biso   1.000  C
  H33      1.0000 0.89630  0.59550  0.80870  Biso   1.000  H
  C58      1.0000 0.80700  0.56470  0.67530  Biso   1.000  C
  H34      1.0000 0.78550  0.52700  0.72170  Biso   1.000  H
  C59      1.0000 0.77340  0.57840  0.55350  Biso   1.000  C
  C60      1.0000 0.81060  0.63470  0.48960  Biso   1.000  C
  H35      1.0000 0.79300  0.64470  0.40540  Biso   1.000  H
  C61      1.0000 0.87400  0.67570  0.55190  Biso   1.000  C
  H36      1.0000 0.89620  0.71400  0.50790  Biso   1.000  H
  C62      1.0000 0.70080  0.53580  0.49640  Biso   1.000  C
  C63      1.0000 0.60660  0.45690  0.47710  Biso   1.000  C
  C64      1.0000 0.55140  0.39510  0.50220  Biso   1.000  C
  C65      1.0000 0.45920  0.31490  0.48220  Biso   1.000  C
  C66      1.0000 0.39140  0.26810  0.42630  Biso   1.000  C
  C67      1.0000 0.36510  0.20770  0.48520  Biso   1.000  C
  H37      1.0000 0.39110  0.19470  0.56330  Biso   1.000  H
  C68      1.0000 0.29950  0.16610  0.42780  Biso   1.000  C
  H38      1.0000 0.28390  0.12500  0.46830  Biso   1.000  H
  C69      1.0000 0.28400  0.24130  0.26140  Biso   1.000  C
  H39      1.0000 0.25600  0.25360  0.18420  Biso   1.000  H
  C70      1.0000 0.34950  0.28500  0.31040  Biso   1.000  C
  H40      1.0000 0.36540  0.32510  0.26650  Biso   1.000  H
  Cu6      1.0000 0.84552  0.88215  0.74548  Biso   1.000  Cu
  N41      1.0000 0.59470  0.83589  0.17040  Biso   1.000  N
  N42      1.0000 0.82760  0.02242  0.05510  Biso   1.000  N
  N43      1.0000 0.84420  0.95002  0.88660  Biso   1.000  N
  N44      1.0000 0.90650  0.00304  0.87490  Biso   1.000  N
  N45      1.0000 0.00970  0.12976  0.91780  Biso   1.000  N
  N46      1.0000 0.94230  0.14023  0.11170  Biso   1.000  N
  N47      1.0000 0.00330  0.19355  0.10000  Biso   1.000  N
  N48      1.0000 0.24210  0.31770  0.81760  Biso   1.000  N
  C71      1.0000 0.62710  0.89290  0.22810  Biso   1.000  C
  H41      1.0000 0.60370  0.90450  0.30870  Biso   1.000  H
  C72      1.0000 0.69300  0.93530  0.17530  Biso   1.000  C
  H42      1.0000 0.71450  0.97300  0.22170  Biso   1.000  H
  C73      1.0000 0.72660  0.92160  0.05350  Biso   1.000  C
  C74      1.0000 0.68940  0.86530  0.98960  Biso   1.000  C
  H43      1.0000 0.70700  0.85530  0.90540  Biso   1.000  H
  C75      1.0000 0.62600  0.82430  0.05190  Biso   1.000  C
  H44      1.0000 0.60380  0.78600  0.00790  Biso   1.000  H
  C76      1.0000 0.79920  0.96420  0.99640  Biso   1.000  C
  C77      1.0000 0.89340  0.04310  0.97710  Biso   1.000  C
  C78      1.0000 0.94860  0.10490  0.00220  Biso   1.000  C
  C79      1.0000 0.04080  0.18510  0.98220  Biso   1.000  C
  C80      1.0000 0.10860  0.23190  0.92630  Biso   1.000  C
  C81      1.0000 0.13490  0.29230  0.98520  Biso   1.000  C
  H45      1.0000 0.10890  0.30530  0.06330  Biso   1.000  H
  C82      1.0000 0.20050  0.33390  0.92780  Biso   1.000  C
  H46      1.0000 0.21610  0.37500  0.96830  Biso   1.000  H
  C83      1.0000 0.21600  0.25870  0.76140  Biso   1.000  C
  H47      1.0000 0.24400  0.24640  0.68420  Biso   1.000  H
  C84      1.0000 0.15050  0.21500  0.81040  Biso   1.000  C
  H48      1.0000 0.13460  0.17490  0.76650  Biso   1.000  H
  Cu7      1.0000 0.34552  0.61785  0.25452  Biso   1.000  Cu
  N49      1.0000 0.09470  0.66411  0.82960  Biso   1.000  N
  N50      1.0000 0.32760  0.47758  0.94490  Biso   1.000  N
  N51      1.0000 0.34420  0.54998  0.11340  Biso   1.000  N
  N52      1.0000 0.40650  0.49696  0.12510  Biso   1.000  N
  N53      1.0000 0.50970  0.37024  0.08220  Biso   1.000  N
  N54      1.0000 0.44230  0.35977  0.88830  Biso   1.000  N
  N55      1.0000 0.50330  0.30645  0.90000  Biso   1.000  N
  N56      1.0000 0.74210  0.18230  0.18240  Biso   1.000  N
  C85      1.0000 0.12710  0.60710  0.77190  Biso   1.000  C
  H49      1.0000 0.10370  0.59550  0.69130  Biso   1.000  H
  C86      1.0000 0.19300  0.56470  0.82470  Biso   1.000  C
  H50      1.0000 0.21450  0.52700  0.77830  Biso   1.000  H
  C87      1.0000 0.22660  0.57840  0.94650  Biso   1.000  C
  C88      1.0000 0.18940  0.63470  0.01040  Biso   1.000  C
  H51      1.0000 0.20700  0.64470  0.09460  Biso   1.000  H
  C89      1.0000 0.12600  0.67570  0.94810  Biso   1.000  C
  H52      1.0000 0.10380  0.71400  0.99210  Biso   1.000  H
  C90      1.0000 0.29920  0.53580  0.00360  Biso   1.000  C
  C91      1.0000 0.39340  0.45690  0.02290  Biso   1.000  C
  C92      1.0000 0.44860  0.39510  0.99780  Biso   1.000  C
  C93      1.0000 0.54080  0.31490  0.01780  Biso   1.000  C
  C94      1.0000 0.60860  0.26810  0.07370  Biso   1.000  C
  C95      1.0000 0.63490  0.20770  0.01480  Biso   1.000  C
  H53      1.0000 0.60890  0.19470  0.93670  Biso   1.000  H
  C96      1.0000 0.70050  0.16610  0.07220  Biso   1.000  C
  H54      1.0000 0.71610  0.12500  0.03170  Biso   1.000  H
  C97      1.0000 0.71600  0.24130  0.23860  Biso   1.000  C
  H55      1.0000 0.74400  0.25360  0.31580  Biso   1.000  H
  C98      1.0000 0.65050  0.28500  0.18960  Biso   1.000  C
  H56      1.0000 0.63460  0.32510  0.23350  Biso   1.000  H
  Cu8      1.0000 0.15448  0.88215  0.75452  Biso   1.000  Cu
  N57      1.0000 0.40530  0.83589  0.32960  Biso   1.000  N
  N58      1.0000 0.17240  0.02242  0.44490  Biso   1.000  N
  N59      1.0000 0.15580  0.95002  0.61340  Biso   1.000  N
  N60      1.0000 0.09350  0.00304  0.62510  Biso   1.000  N
  N61      1.0000 0.99030  0.12976  0.58220  Biso   1.000  N
  N62      1.0000 0.05770  0.14023  0.38830  Biso   1.000  N
  N63      1.0000 0.99670  0.19355  0.40000  Biso   1.000  N
  N64      1.0000 0.75790  0.31770  0.68240  Biso   1.000  N
  C99      1.0000 0.37290  0.89290  0.27190  Biso   1.000  C
  H57      1.0000 0.39630  0.90450  0.19130  Biso   1.000  H
  C100     1.0000 0.30700  0.93530  0.32470  Biso   1.000  C
  H58      1.0000 0.28550  0.97300  0.27830  Biso   1.000  H
  C101     1.0000 0.27340  0.92160  0.44650  Biso   1.000  C
  C102     1.0000 0.31060  0.86530  0.51040  Biso   1.000  C
  H59      1.0000 0.29300  0.85530  0.59460  Biso   1.000  H
  C103     1.0000 0.37400  0.82430  0.44810  Biso   1.000  C
  H60      1.0000 0.39620  0.78600  0.49210  Biso   1.000  H
  C104     1.0000 0.20080  0.96420  0.50360  Biso   1.000  C
  C105     1.0000 0.10660  0.04310  0.52290  Biso   1.000  C
  C106     1.0000 0.05140  0.10490  0.49780  Biso   1.000  C
  C107     1.0000 0.95920  0.18510  0.51780  Biso   1.000  C
  C108     1.0000 0.89140  0.23190  0.57370  Biso   1.000  C
  C109     1.0000 0.86510  0.29230  0.51480  Biso   1.000  C
  H61      1.0000 0.89110  0.30530  0.43670  Biso   1.000  H
  C110     1.0000 0.79950  0.33390  0.57220  Biso   1.000  C
  H62      1.0000 0.78390  0.37500  0.53170  Biso   1.000  H
  C111     1.0000 0.78400  0.25870  0.73860  Biso   1.000  C
  H63      1.0000 0.75600  0.24640  0.81580  Biso   1.000  H
  C112     1.0000 0.84950  0.21500  0.68960  Biso   1.000  C
  H64      1.0000 0.86540  0.17490  0.73350  Biso   1.000  H
  Cu9      1.0000 0.00000  0.26499  0.25000  Biso   1.000  Cu
  Cu10     1.0000 0.50000  0.23501  0.75000  Biso   1.000  Cu
  Cu11     1.0000 0.00000  0.73501  0.75000  Biso   1.000  Cu
  Cu12     1.0000 0.50000  0.76499  0.25000  Biso   1.000  Cu
  Cu13     1.0000 0.50000  0.50941  0.75000  Biso   1.000  Cu
  Cu14     1.0000 0.00000  0.99059  0.25000  Biso   1.000  Cu
  Cu15     1.0000 0.50000  0.49059  0.25000  Biso   1.000  Cu
  Cu16     1.0000 0.00000  0.00941  0.75000  Biso   1.000  Cu
