data_image0
_cell_length_a       9.2529
_cell_length_b       10.6355
_cell_length_c       11.0493
_cell_angle_alpha    63.622
_cell_angle_beta     86.489
_cell_angle_gamma    74.907

_symmetry_space_group_name_H-M    "P 1"
_symmetry_int_tables_number       1

loop_
  _symmetry_equiv_pos_as_xyz
  'x, y, z'

loop_
  _atom_site_label
  _atom_site_occupancy
  _atom_site_fract_x
  _atom_site_fract_y
  _atom_site_fract_z
  _atom_site_thermal_displace_type
  _atom_site_B_iso_or_equiv
  _atom_site_type_symbol
  Co1      1.0000 0.22196  0.27529  0.48166  Biso   1.000  Co
  O1       1.0000 0.47340  0.30900  0.66770  Biso   1.000  O
  O2       1.0000 0.32420  0.17650  0.66080  Biso   1.000  O
  O3       1.0000 0.49040  0.41710  0.35920  Biso   1.000  O
  O4       1.0000 0.31630  0.33390  0.30890  Biso   1.000  O
  N1       1.0000 0.97790  0.33850  0.49050  Biso   1.000  N
  N2       1.0000 0.80550  0.51250  0.52130  Biso   1.000  N
  N3       1.0000 0.73440  0.41410  0.52130  Biso   1.000  N
  N4       1.0000 0.77490  0.92860  0.50840  Biso   1.000  N
  C1       1.0000 0.41660  0.20560  0.71800  Biso   1.000  C
  C2       1.0000 0.46080  0.09850  0.86480  Biso   1.000  C
  C3       1.0000 0.55650  0.12090  0.94040  Biso   1.000  C
  H1       1.0000 0.59400  0.20240  0.90080  Biso   1.000  H
  C4       1.0000 0.59690  0.02210  0.07530  Biso   1.000  C
  H2       1.0000 0.66240  0.03690  0.12520  Biso   1.000  H
  C5       1.0000 0.42120  0.39740  0.27990  Biso   1.000  C
  C6       1.0000 0.46290  0.44920  0.13430  Biso   1.000  C
  C7       1.0000 0.57590  0.51870  0.09330  Biso   1.000  C
  H3       1.0000 0.62700  0.53180  0.15490  Biso   1.000  H
  C8       1.0000 0.61340  0.56940  0.95830  Biso   1.000  C
  H4       1.0000 0.69020  0.61590  0.93030  Biso   1.000  H
  C9       1.0000 0.94540  0.46320  0.50180  Biso   1.000  C
  C10      1.0000 0.83920  0.31240  0.50240  Biso   1.000  C
  C11      1.0000 0.81030  0.18280  0.50170  Biso   1.000  C
  C12      1.0000 0.84760  0.15040  0.39250  Biso   1.000  C
  H5       1.0000 0.88520  0.21340  0.31620  Biso   1.000  H
  C13      1.0000 0.82750  0.02300  0.40040  Biso   1.000  C
  H6       1.0000 0.85150  0.00180  0.32730  Biso   1.000  H
  C14      1.0000 0.73770  0.96260  0.61120  Biso   1.000  C
  H7       1.0000 0.70000  0.89840  0.68660  Biso   1.000  H
  C15      1.0000 0.75300  0.08880  0.61030  Biso   1.000  C
  H8       1.0000 0.72450  0.10930  0.68310  Biso   1.000  H
  Co2      1.0000 0.77804  0.72471  0.51834  Biso   1.000  Co
  O5       1.0000 0.52660  0.69100  0.33230  Biso   1.000  O
  O6       1.0000 0.67580  0.82350  0.33920  Biso   1.000  O
  O7       1.0000 0.50960  0.58290  0.64080  Biso   1.000  O
  O8       1.0000 0.68370  0.66610  0.69110  Biso   1.000  O
  N5       1.0000 0.02210  0.66150  0.50950  Biso   1.000  N
  N6       1.0000 0.19450  0.48750  0.47870  Biso   1.000  N
  N7       1.0000 0.26560  0.58590  0.47870  Biso   1.000  N
  N8       1.0000 0.22510  0.07140  0.49160  Biso   1.000  N
  C16      1.0000 0.58340  0.79440  0.28200  Biso   1.000  C
  C17      1.0000 0.53920  0.90150  0.13520  Biso   1.000  C
  C18      1.0000 0.44350  0.87910  0.05960  Biso   1.000  C
  H9       1.0000 0.40600  0.79760  0.09920  Biso   1.000  H
  C19      1.0000 0.40310  0.97790  0.92470  Biso   1.000  C
  H10      1.0000 0.33760  0.96310  0.87480  Biso   1.000  H
  C20      1.0000 0.57880  0.60260  0.72010  Biso   1.000  C
  C21      1.0000 0.53710  0.55080  0.86570  Biso   1.000  C
  C22      1.0000 0.42410  0.48130  0.90670  Biso   1.000  C
  H11      1.0000 0.37300  0.46820  0.84510  Biso   1.000  H
  C23      1.0000 0.38660  0.43060  0.04170  Biso   1.000  C
  H12      1.0000 0.30980  0.38410  0.06970  Biso   1.000  H
  C24      1.0000 0.05460  0.53680  0.49820  Biso   1.000  C
  C25      1.0000 0.16080  0.68760  0.49760  Biso   1.000  C
  C26      1.0000 0.18970  0.81720  0.49830  Biso   1.000  C
  C27      1.0000 0.15240  0.84960  0.60750  Biso   1.000  C
  H13      1.0000 0.11480  0.78660  0.68380  Biso   1.000  H
  C28      1.0000 0.17250  0.97700  0.59960  Biso   1.000  C
  H14      1.0000 0.14850  0.99820  0.67270  Biso   1.000  H
  C29      1.0000 0.26230  0.03740  0.38880  Biso   1.000  C
  H15      1.0000 0.30000  0.10160  0.31340  Biso   1.000  H
  C30      1.0000 0.24700  0.91120  0.38970  Biso   1.000  C
  H16      1.0000 0.27550  0.89070  0.31690  Biso   1.000  H
  Co3      1.0000 0.50000  0.50000  0.50000  Biso   1.000  Co
