data_image0
_cell_length_a       11.406
_cell_length_b       14.981
_cell_length_c       16.867
_cell_angle_alpha    90
_cell_angle_beta     90
_cell_angle_gamma    90

_symmetry_space_group_name_H-M    "P 1"
_symmetry_int_tables_number       1

loop_
  _symmetry_equiv_pos_as_xyz
  'x, y, z'

loop_
  _atom_site_label
  _atom_site_occupancy
  _atom_site_fract_x
  _atom_site_fract_y
  _atom_site_fract_z
  _atom_site_thermal_displace_type
  _atom_site_B_iso_or_equiv
  _atom_site_type_symbol
  N1       1.0000 0.34030  0.44320  0.64912  Biso   1.000  N
  N2       1.0000 0.45080  0.43230  0.61869  Biso   1.000  N
  H1       1.0000 0.51340  0.44970  0.64250  Biso   1.000  H
  N3       1.0000 0.17920  0.30830  0.34588  Biso   1.000  N
  N4       1.0000 0.24020  0.23390  0.36515  Biso   1.000  N
  H2       1.0000 0.23730  0.18520  0.33820  Biso   1.000  H
  C1       1.0000 0.13990  0.39970  0.61010  Biso   1.000  C
  H3       1.0000 0.12620  0.39280  0.66590  Biso   1.000  H
  H4       1.0000 0.10880  0.34900  0.58230  Biso   1.000  H
  H5       1.0000 0.10210  0.45300  0.59170  Biso   1.000  H
  C2       1.0000 0.26980  0.40620  0.59510  Biso   1.000  C
  C3       1.0000 0.33390  0.37300  0.52990  Biso   1.000  C
  C4       1.0000 0.45130  0.39100  0.54700  Biso   1.000  C
  C5       1.0000 0.56110  0.37190  0.50230  Biso   1.000  C
  H6       1.0000 0.61350  0.42180  0.50680  Biso   1.000  H
  H7       1.0000 0.54260  0.36190  0.44750  Biso   1.000  H
  H8       1.0000 0.59790  0.31960  0.52380  Biso   1.000  H
  C6       1.0000 0.38130  0.17080  0.46260  Biso   1.000  C
  H9       1.0000 0.34470  0.11420  0.45250  Biso   1.000  H
  H10      1.0000 0.39110  0.17860  0.51870  Biso   1.000  H
  H11      1.0000 0.45650  0.17250  0.43710  Biso   1.000  H
  C7       1.0000 0.30560  0.24400  0.43060  Biso   1.000  C
  C8       1.0000 0.28590  0.32980  0.45740  Biso   1.000  C
  C9       1.0000 0.20750  0.36830  0.40130  Biso   1.000  C
  C10      1.0000 0.16270  0.46160  0.39760  Biso   1.000  C
  H12      1.0000 0.22520  0.50100  0.38250  Biso   1.000  H
  H13      1.0000 0.13320  0.47870  0.44870  Biso   1.000  H
  H14      1.0000 0.10080  0.46510  0.35920  Biso   1.000  H
  N5       1.0000 0.15970  0.94320  0.35088  Biso   1.000  N
  N6       1.0000 0.04920  0.93230  0.38131  Biso   1.000  N
  H15      1.0000 0.98660  0.94970  0.35750  Biso   1.000  H
  N7       1.0000 0.32080  0.80830  0.65412  Biso   1.000  N
  N8       1.0000 0.25980  0.73390  0.63485  Biso   1.000  N
  H16      1.0000 0.26270  0.68520  0.66180  Biso   1.000  H
  C11      1.0000 0.36010  0.89970  0.38990  Biso   1.000  C
  H17      1.0000 0.37380  0.89280  0.33410  Biso   1.000  H
  H18      1.0000 0.39120  0.84900  0.41770  Biso   1.000  H
  H19      1.0000 0.39790  0.95300  0.40830  Biso   1.000  H
  C12      1.0000 0.23020  0.90620  0.40490  Biso   1.000  C
  C13      1.0000 0.16610  0.87300  0.47010  Biso   1.000  C
  C14      1.0000 0.04870  0.89100  0.45300  Biso   1.000  C
  C15      1.0000 0.93890  0.87190  0.49770  Biso   1.000  C
  H20      1.0000 0.88650  0.92180  0.49320  Biso   1.000  H
  H21      1.0000 0.95740  0.86190  0.55250  Biso   1.000  H
  H22      1.0000 0.90210  0.81960  0.47620  Biso   1.000  H
  C16      1.0000 0.11870  0.67080  0.53740  Biso   1.000  C
  H23      1.0000 0.15530  0.61420  0.54750  Biso   1.000  H
  H24      1.0000 0.10890  0.67860  0.48130  Biso   1.000  H
  H25      1.0000 0.04350  0.67250  0.56290  Biso   1.000  H
  C17      1.0000 0.19440  0.74400  0.56940  Biso   1.000  C
  C18      1.0000 0.21410  0.82980  0.54260  Biso   1.000  C
  C19      1.0000 0.29250  0.86830  0.59870  Biso   1.000  C
  C20      1.0000 0.33730  0.96160  0.60240  Biso   1.000  C
  H26      1.0000 0.27480  0.00100  0.61750  Biso   1.000  H
  H27      1.0000 0.36680  0.97870  0.55130  Biso   1.000  H
  H28      1.0000 0.39920  0.96510  0.64080  Biso   1.000  H
  N9       1.0000 0.65970  0.55680  0.14912  Biso   1.000  N
  N10      1.0000 0.54920  0.56770  0.11869  Biso   1.000  N
  H29      1.0000 0.48660  0.55030  0.14250  Biso   1.000  H
  N11      1.0000 0.82080  0.69170  0.84588  Biso   1.000  N
  N12      1.0000 0.75980  0.76610  0.86515  Biso   1.000  N
  H30      1.0000 0.76270  0.81480  0.83820  Biso   1.000  H
  C21      1.0000 0.86010  0.60030  0.11010  Biso   1.000  C
  H31      1.0000 0.87380  0.60720  0.16590  Biso   1.000  H
  H32      1.0000 0.89120  0.65100  0.08230  Biso   1.000  H
  H33      1.0000 0.89790  0.54700  0.09170  Biso   1.000  H
  C22      1.0000 0.73020  0.59380  0.09510  Biso   1.000  C
  C23      1.0000 0.66610  0.62700  0.02990  Biso   1.000  C
  C24      1.0000 0.54870  0.60900  0.04700  Biso   1.000  C
  C25      1.0000 0.43890  0.62810  0.00230  Biso   1.000  C
  H34      1.0000 0.38650  0.57820  0.00680  Biso   1.000  H
  H35      1.0000 0.45740  0.63810  0.94750  Biso   1.000  H
  H36      1.0000 0.40210  0.68040  0.02380  Biso   1.000  H
  C26      1.0000 0.61870  0.82920  0.96260  Biso   1.000  C
  H37      1.0000 0.65530  0.88580  0.95250  Biso   1.000  H
  H38      1.0000 0.60890  0.82140  0.01870  Biso   1.000  H
  H39      1.0000 0.54350  0.82750  0.93710  Biso   1.000  H
  C27      1.0000 0.69440  0.75600  0.93060  Biso   1.000  C
  C28      1.0000 0.71410  0.67020  0.95740  Biso   1.000  C
  C29      1.0000 0.79250  0.63170  0.90130  Biso   1.000  C
  C30      1.0000 0.83730  0.53840  0.89760  Biso   1.000  C
  H40      1.0000 0.77480  0.49900  0.88250  Biso   1.000  H
  H41      1.0000 0.86680  0.52130  0.94870  Biso   1.000  H
  H42      1.0000 0.89920  0.53490  0.85920  Biso   1.000  H
  N13      1.0000 0.84030  0.05680  0.85088  Biso   1.000  N
  N14      1.0000 0.95080  0.06770  0.88131  Biso   1.000  N
  H43      1.0000 0.01340  0.05030  0.85750  Biso   1.000  H
  N15      1.0000 0.67920  0.19170  0.15412  Biso   1.000  N
  N16      1.0000 0.74020  0.26610  0.13485  Biso   1.000  N
  H44      1.0000 0.73730  0.31480  0.16180  Biso   1.000  H
  C31      1.0000 0.63990  0.10030  0.88990  Biso   1.000  C
  H45      1.0000 0.62620  0.10720  0.83410  Biso   1.000  H
  H46      1.0000 0.60880  0.15100  0.91770  Biso   1.000  H
  H47      1.0000 0.60210  0.04700  0.90830  Biso   1.000  H
  C32      1.0000 0.76980  0.09380  0.90490  Biso   1.000  C
  C33      1.0000 0.83390  0.12700  0.97010  Biso   1.000  C
  C34      1.0000 0.95130  0.10900  0.95300  Biso   1.000  C
  C35      1.0000 0.06110  0.12810  0.99770  Biso   1.000  C
  H48      1.0000 0.11350  0.07820  0.99320  Biso   1.000  H
  H49      1.0000 0.04260  0.13810  0.05250  Biso   1.000  H
  H50      1.0000 0.09790  0.18040  0.97620  Biso   1.000  H
  C36      1.0000 0.88130  0.32920  0.03740  Biso   1.000  C
  H51      1.0000 0.84470  0.38580  0.04750  Biso   1.000  H
  H52      1.0000 0.89110  0.32140  0.98130  Biso   1.000  H
  H53      1.0000 0.95650  0.32750  0.06290  Biso   1.000  H
  C37      1.0000 0.80560  0.25600  0.06940  Biso   1.000  C
  C38      1.0000 0.78590  0.17020  0.04260  Biso   1.000  C
  C39      1.0000 0.70750  0.13170  0.09870  Biso   1.000  C
  C40      1.0000 0.66270  0.03840  0.10240  Biso   1.000  C
  H54      1.0000 0.72520  0.99900  0.11750  Biso   1.000  H
  H55      1.0000 0.63320  0.02130  0.05130  Biso   1.000  H
  H56      1.0000 0.60080  0.03490  0.14080  Biso   1.000  H
  N17      1.0000 0.65970  0.55680  0.35088  Biso   1.000  N
  N18      1.0000 0.54920  0.56770  0.38131  Biso   1.000  N
  H57      1.0000 0.48660  0.55030  0.35750  Biso   1.000  H
  N19      1.0000 0.82080  0.69170  0.65412  Biso   1.000  N
  N20      1.0000 0.75980  0.76610  0.63485  Biso   1.000  N
  H58      1.0000 0.76270  0.81480  0.66180  Biso   1.000  H
  C41      1.0000 0.86010  0.60030  0.38990  Biso   1.000  C
  H59      1.0000 0.87380  0.60720  0.33410  Biso   1.000  H
  H60      1.0000 0.89120  0.65100  0.41770  Biso   1.000  H
  H61      1.0000 0.89790  0.54700  0.40830  Biso   1.000  H
  C42      1.0000 0.73020  0.59380  0.40490  Biso   1.000  C
  C43      1.0000 0.66610  0.62700  0.47010  Biso   1.000  C
  C44      1.0000 0.54870  0.60900  0.45300  Biso   1.000  C
  C45      1.0000 0.43890  0.62810  0.49770  Biso   1.000  C
  H62      1.0000 0.38650  0.57820  0.49320  Biso   1.000  H
  H63      1.0000 0.45740  0.63810  0.55250  Biso   1.000  H
  H64      1.0000 0.40210  0.68040  0.47620  Biso   1.000  H
  C46      1.0000 0.61870  0.82920  0.53740  Biso   1.000  C
  H65      1.0000 0.65530  0.88580  0.54750  Biso   1.000  H
  H66      1.0000 0.60890  0.82140  0.48130  Biso   1.000  H
  H67      1.0000 0.54350  0.82750  0.56290  Biso   1.000  H
  C47      1.0000 0.69440  0.75600  0.56940  Biso   1.000  C
  C48      1.0000 0.71410  0.67020  0.54260  Biso   1.000  C
  C49      1.0000 0.79250  0.63170  0.59870  Biso   1.000  C
  C50      1.0000 0.83730  0.53840  0.60240  Biso   1.000  C
  H68      1.0000 0.77480  0.49900  0.61750  Biso   1.000  H
  H69      1.0000 0.86680  0.52130  0.55130  Biso   1.000  H
  H70      1.0000 0.89920  0.53490  0.64080  Biso   1.000  H
  N21      1.0000 0.84030  0.05680  0.64912  Biso   1.000  N
  N22      1.0000 0.95080  0.06770  0.61869  Biso   1.000  N
  H71      1.0000 0.01340  0.05030  0.64250  Biso   1.000  H
  N23      1.0000 0.67920  0.19170  0.34588  Biso   1.000  N
  N24      1.0000 0.74020  0.26610  0.36515  Biso   1.000  N
  H72      1.0000 0.73730  0.31480  0.33820  Biso   1.000  H
  C51      1.0000 0.63990  0.10030  0.61010  Biso   1.000  C
  H73      1.0000 0.62620  0.10720  0.66590  Biso   1.000  H
  H74      1.0000 0.60880  0.15100  0.58230  Biso   1.000  H
  H75      1.0000 0.60210  0.04700  0.59170  Biso   1.000  H
  C52      1.0000 0.76980  0.09380  0.59510  Biso   1.000  C
  C53      1.0000 0.83390  0.12700  0.52990  Biso   1.000  C
  C54      1.0000 0.95130  0.10900  0.54700  Biso   1.000  C
  C55      1.0000 0.06110  0.12810  0.50230  Biso   1.000  C
  H76      1.0000 0.11350  0.07820  0.50680  Biso   1.000  H
  H77      1.0000 0.04260  0.13810  0.44750  Biso   1.000  H
  H78      1.0000 0.09790  0.18040  0.52380  Biso   1.000  H
  C56      1.0000 0.88130  0.32920  0.46260  Biso   1.000  C
  H79      1.0000 0.84470  0.38580  0.45250  Biso   1.000  H
  H80      1.0000 0.89110  0.32140  0.51870  Biso   1.000  H
  H81      1.0000 0.95650  0.32750  0.43710  Biso   1.000  H
  C57      1.0000 0.80560  0.25600  0.43060  Biso   1.000  C
  C58      1.0000 0.78590  0.17020  0.45740  Biso   1.000  C
  C59      1.0000 0.70750  0.13170  0.40130  Biso   1.000  C
  C60      1.0000 0.66270  0.03840  0.39760  Biso   1.000  C
  H82      1.0000 0.72520  0.99900  0.38250  Biso   1.000  H
  H83      1.0000 0.63320  0.02130  0.44870  Biso   1.000  H
  H84      1.0000 0.60080  0.03490  0.35920  Biso   1.000  H
  N25      1.0000 0.34030  0.44320  0.85088  Biso   1.000  N
  N26      1.0000 0.45080  0.43230  0.88131  Biso   1.000  N
  H85      1.0000 0.51340  0.44970  0.85750  Biso   1.000  H
  N27      1.0000 0.17920  0.30830  0.15412  Biso   1.000  N
  N28      1.0000 0.24020  0.23390  0.13485  Biso   1.000  N
  H86      1.0000 0.23730  0.18520  0.16180  Biso   1.000  H
  C61      1.0000 0.13990  0.39970  0.88990  Biso   1.000  C
  H87      1.0000 0.12620  0.39280  0.83410  Biso   1.000  H
  H88      1.0000 0.10880  0.34900  0.91770  Biso   1.000  H
  H89      1.0000 0.10210  0.45300  0.90830  Biso   1.000  H
  C62      1.0000 0.26980  0.40620  0.90490  Biso   1.000  C
  C63      1.0000 0.33390  0.37300  0.97010  Biso   1.000  C
  C64      1.0000 0.45130  0.39100  0.95300  Biso   1.000  C
  C65      1.0000 0.56110  0.37190  0.99770  Biso   1.000  C
  H90      1.0000 0.61350  0.42180  0.99320  Biso   1.000  H
  H91      1.0000 0.54260  0.36190  0.05250  Biso   1.000  H
  H92      1.0000 0.59790  0.31960  0.97620  Biso   1.000  H
  C66      1.0000 0.38130  0.17080  0.03740  Biso   1.000  C
  H93      1.0000 0.34470  0.11420  0.04750  Biso   1.000  H
  H94      1.0000 0.39110  0.17860  0.98130  Biso   1.000  H
  H95      1.0000 0.45650  0.17250  0.06290  Biso   1.000  H
  C67      1.0000 0.30560  0.24400  0.06940  Biso   1.000  C
  C68      1.0000 0.28590  0.32980  0.04260  Biso   1.000  C
  C69      1.0000 0.20750  0.36830  0.09870  Biso   1.000  C
  C70      1.0000 0.16270  0.46160  0.10240  Biso   1.000  C
  H96      1.0000 0.22520  0.50100  0.11750  Biso   1.000  H
  H97      1.0000 0.13320  0.47870  0.05130  Biso   1.000  H
  H98      1.0000 0.10080  0.46510  0.14080  Biso   1.000  H
  N29      1.0000 0.15970  0.94320  0.14912  Biso   1.000  N
  N30      1.0000 0.04920  0.93230  0.11869  Biso   1.000  N
  H99      1.0000 0.98660  0.94970  0.14250  Biso   1.000  H
  N31      1.0000 0.32080  0.80830  0.84588  Biso   1.000  N
  N32      1.0000 0.25980  0.73390  0.86515  Biso   1.000  N
  H100     1.0000 0.26270  0.68520  0.83820  Biso   1.000  H
  C71      1.0000 0.36010  0.89970  0.11010  Biso   1.000  C
  H101     1.0000 0.37380  0.89280  0.16590  Biso   1.000  H
  H102     1.0000 0.39120  0.84900  0.08230  Biso   1.000  H
  H103     1.0000 0.39790  0.95300  0.09170  Biso   1.000  H
  C72      1.0000 0.23020  0.90620  0.09510  Biso   1.000  C
  C73      1.0000 0.16610  0.87300  0.02990  Biso   1.000  C
  C74      1.0000 0.04870  0.89100  0.04700  Biso   1.000  C
  C75      1.0000 0.93890  0.87190  0.00230  Biso   1.000  C
  H104     1.0000 0.88650  0.92180  0.00680  Biso   1.000  H
  H105     1.0000 0.95740  0.86190  0.94750  Biso   1.000  H
  H106     1.0000 0.90210  0.81960  0.02380  Biso   1.000  H
  C76      1.0000 0.11870  0.67080  0.96260  Biso   1.000  C
  H107     1.0000 0.15530  0.61420  0.95250  Biso   1.000  H
  H108     1.0000 0.10890  0.67860  0.01870  Biso   1.000  H
  H109     1.0000 0.04350  0.67250  0.93710  Biso   1.000  H
  C77      1.0000 0.19440  0.74400  0.93060  Biso   1.000  C
  C78      1.0000 0.21410  0.82980  0.95740  Biso   1.000  C
  C79      1.0000 0.29250  0.86830  0.90130  Biso   1.000  C
  C80      1.0000 0.33730  0.96160  0.89760  Biso   1.000  C
  H110     1.0000 0.27480  0.00100  0.88250  Biso   1.000  H
  H111     1.0000 0.36680  0.97870  0.94870  Biso   1.000  H
  H112     1.0000 0.39920  0.96510  0.85920  Biso   1.000  H
  I1       1.0000 0.50293  0.62500  0.75000  Biso   1.000  I
  Cu1      1.0000 0.31122  0.51716  0.75000  Biso   1.000  Cu
  Cu2      1.0000 0.43060  0.81664  0.75000  Biso   1.000  Cu
  N33      1.0000 0.15900  0.57880  0.75000  Biso   1.000  N
  C81      1.0000 0.07180  0.61380  0.75000  Biso   1.000  C
  I2       1.0000 0.99707  0.12500  0.25000  Biso   1.000  I
  Cu3      1.0000 0.18878  0.01716  0.25000  Biso   1.000  Cu
  Cu4      1.0000 0.06940  0.31664  0.25000  Biso   1.000  Cu
  N34      1.0000 0.34100  0.07880  0.25000  Biso   1.000  N
  C82      1.0000 0.42820  0.11380  0.25000  Biso   1.000  C
  I3       1.0000 0.49707  0.37500  0.25000  Biso   1.000  I
  Cu5      1.0000 0.68878  0.48284  0.25000  Biso   1.000  Cu
  Cu6      1.0000 0.56940  0.18336  0.25000  Biso   1.000  Cu
  N35      1.0000 0.84100  0.42120  0.25000  Biso   1.000  N
  C83      1.0000 0.92820  0.38620  0.25000  Biso   1.000  C
  I4       1.0000 0.00293  0.87500  0.75000  Biso   1.000  I
  Cu7      1.0000 0.81122  0.98284  0.75000  Biso   1.000  Cu
  Cu8      1.0000 0.93060  0.68336  0.75000  Biso   1.000  Cu
  N36      1.0000 0.65900  0.92120  0.75000  Biso   1.000  N
  C84      1.0000 0.57180  0.88620  0.75000  Biso   1.000  C
