data_image0
_cell_length_a       10.3466
_cell_length_b       18.5415
_cell_length_c       22.7001
_cell_angle_alpha    90
_cell_angle_beta     90
_cell_angle_gamma    90

_symmetry_space_group_name_H-M    "P 1"
_symmetry_int_tables_number       1

loop_
  _symmetry_equiv_pos_as_xyz
  'x, y, z'

loop_
  _atom_site_label
  _atom_site_occupancy
  _atom_site_fract_x
  _atom_site_fract_y
  _atom_site_fract_z
  _atom_site_thermal_displace_type
  _atom_site_B_iso_or_equiv
  _atom_site_type_symbol
  O1       1.0000 0.93730  0.66020  0.60320  Biso   1.000  O
  O2       1.0000 0.13370  0.66680  0.52000  Biso   1.000  O
  O3       1.0000 0.07870  0.77330  0.43700  Biso   1.000  O
  O4       1.0000 0.86560  0.84920  0.47700  Biso   1.000  O
  O5       1.0000 0.78290  0.78480  0.58460  Biso   1.000  O
  O6       1.0000 0.38540  0.84300  0.75330  Biso   1.000  O
  O7       1.0000 0.08710  0.70390  0.67490  Biso   1.000  O
  O8       1.0000 0.88030  0.65430  0.70460  Biso   1.000  O
  O9       1.0000 0.34410  0.73140  0.83890  Biso   1.000  O
  O10      1.0000 0.23720  0.42970  0.53320  Biso   1.000  O
  O11      1.0000 0.23270  0.56830  0.57330  Biso   1.000  O
  O12      1.0000 0.04820  0.57610  0.66810  Biso   1.000  O
  O13      1.0000 0.98810  0.43200  0.69710  Biso   1.000  O
  O14      1.0000 0.08400  0.34010  0.61300  Biso   1.000  O
  U1       1.0000 0.95670  0.74398  0.52452  Biso   1.000  U
  U2       1.0000 0.23963  0.74546  0.74616  Biso   1.000  U
  U3       1.0000 0.11635  0.47027  0.61637  Biso   1.000  U
  S1       1.0000 0.98960  0.64857  0.66300  Biso   1.000  S
  S2       1.0000 0.24050  0.61421  0.52064  Biso   1.000  S
  S3       1.0000 0.15090  0.72885  0.39517  Biso   1.000  S
  O15      1.0000 0.43730  0.16020  0.60320  Biso   1.000  O
  O16      1.0000 0.63370  0.16680  0.52000  Biso   1.000  O
  O17      1.0000 0.57870  0.27330  0.43700  Biso   1.000  O
  O18      1.0000 0.36560  0.34920  0.47700  Biso   1.000  O
  O19      1.0000 0.28290  0.28480  0.58460  Biso   1.000  O
  O20      1.0000 0.88540  0.34300  0.75330  Biso   1.000  O
  O21      1.0000 0.58710  0.20390  0.67490  Biso   1.000  O
  O22      1.0000 0.38030  0.15430  0.70460  Biso   1.000  O
  O23      1.0000 0.84410  0.23140  0.83890  Biso   1.000  O
  O24      1.0000 0.73720  0.92970  0.53320  Biso   1.000  O
  O25      1.0000 0.73270  0.06830  0.57330  Biso   1.000  O
  O26      1.0000 0.54820  0.07610  0.66810  Biso   1.000  O
  O27      1.0000 0.48810  0.93200  0.69710  Biso   1.000  O
  O28      1.0000 0.58400  0.84010  0.61300  Biso   1.000  O
  U4       1.0000 0.45670  0.24398  0.52452  Biso   1.000  U
  U5       1.0000 0.73963  0.24546  0.74616  Biso   1.000  U
  U6       1.0000 0.61635  0.97027  0.61637  Biso   1.000  U
  S4       1.0000 0.48960  0.14857  0.66300  Biso   1.000  S
  S5       1.0000 0.74050  0.11421  0.52064  Biso   1.000  S
  S6       1.0000 0.65090  0.22885  0.39517  Biso   1.000  S
  O29      1.0000 0.06270  0.33980  0.10320  Biso   1.000  O
  O30      1.0000 0.86630  0.33320  0.02000  Biso   1.000  O
  O31      1.0000 0.92130  0.22670  0.93700  Biso   1.000  O
  O32      1.0000 0.13440  0.15080  0.97700  Biso   1.000  O
  O33      1.0000 0.21710  0.21520  0.08460  Biso   1.000  O
  O34      1.0000 0.61460  0.15700  0.25330  Biso   1.000  O
  O35      1.0000 0.91290  0.29610  0.17490  Biso   1.000  O
  O36      1.0000 0.11970  0.34570  0.20460  Biso   1.000  O
  O37      1.0000 0.65590  0.26860  0.33890  Biso   1.000  O
  O38      1.0000 0.76280  0.57030  0.03320  Biso   1.000  O
  O39      1.0000 0.76730  0.43170  0.07330  Biso   1.000  O
  O40      1.0000 0.95180  0.42390  0.16810  Biso   1.000  O
  O41      1.0000 0.01190  0.56800  0.19710  Biso   1.000  O
  O42      1.0000 0.91600  0.65990  0.11300  Biso   1.000  O
  U7       1.0000 0.04330  0.25602  0.02452  Biso   1.000  U
  U8       1.0000 0.76037  0.25454  0.24616  Biso   1.000  U
  U9       1.0000 0.88365  0.52973  0.11637  Biso   1.000  U
  S7       1.0000 0.01040  0.35143  0.16300  Biso   1.000  S
  S8       1.0000 0.75950  0.38579  0.02064  Biso   1.000  S
  S9       1.0000 0.84910  0.27115  0.89517  Biso   1.000  S
  O43      1.0000 0.56270  0.83980  0.10320  Biso   1.000  O
  O44      1.0000 0.36630  0.83320  0.02000  Biso   1.000  O
  O45      1.0000 0.42130  0.72670  0.93700  Biso   1.000  O
  O46      1.0000 0.63440  0.65080  0.97700  Biso   1.000  O
  O47      1.0000 0.71710  0.71520  0.08460  Biso   1.000  O
  O48      1.0000 0.11460  0.65700  0.25330  Biso   1.000  O
  O49      1.0000 0.41290  0.79610  0.17490  Biso   1.000  O
  O50      1.0000 0.61970  0.84570  0.20460  Biso   1.000  O
  O51      1.0000 0.15590  0.76860  0.33890  Biso   1.000  O
  O52      1.0000 0.26280  0.07030  0.03320  Biso   1.000  O
  O53      1.0000 0.26730  0.93170  0.07330  Biso   1.000  O
  O54      1.0000 0.45180  0.92390  0.16810  Biso   1.000  O
  O55      1.0000 0.51190  0.06800  0.19710  Biso   1.000  O
  O56      1.0000 0.41600  0.15990  0.11300  Biso   1.000  O
  U10      1.0000 0.54330  0.75602  0.02452  Biso   1.000  U
  U11      1.0000 0.26037  0.75454  0.24616  Biso   1.000  U
  U12      1.0000 0.38365  0.02973  0.11637  Biso   1.000  U
  S10      1.0000 0.51040  0.85143  0.16300  Biso   1.000  S
  S11      1.0000 0.25950  0.88579  0.02064  Biso   1.000  S
  S12      1.0000 0.34910  0.77115  0.89517  Biso   1.000  S
  O57      1.0000 0.06270  0.66020  0.89680  Biso   1.000  O
  O58      1.0000 0.86630  0.66680  0.98000  Biso   1.000  O
  O59      1.0000 0.92130  0.77330  0.06300  Biso   1.000  O
  O60      1.0000 0.13440  0.84920  0.02300  Biso   1.000  O
  O61      1.0000 0.21710  0.78480  0.91540  Biso   1.000  O
  O62      1.0000 0.61460  0.84300  0.74670  Biso   1.000  O
  O63      1.0000 0.91290  0.70390  0.82510  Biso   1.000  O
  O64      1.0000 0.11970  0.65430  0.79540  Biso   1.000  O
  O65      1.0000 0.65590  0.73140  0.66110  Biso   1.000  O
  O66      1.0000 0.76280  0.42970  0.96680  Biso   1.000  O
  O67      1.0000 0.76730  0.56830  0.92670  Biso   1.000  O
  O68      1.0000 0.95180  0.57610  0.83190  Biso   1.000  O
  O69      1.0000 0.01190  0.43200  0.80290  Biso   1.000  O
  O70      1.0000 0.91600  0.34010  0.88700  Biso   1.000  O
  U13      1.0000 0.04330  0.74398  0.97548  Biso   1.000  U
  U14      1.0000 0.76037  0.74546  0.75384  Biso   1.000  U
  U15      1.0000 0.88365  0.47027  0.88363  Biso   1.000  U
  S13      1.0000 0.01040  0.64857  0.83700  Biso   1.000  S
  S14      1.0000 0.75950  0.61421  0.97936  Biso   1.000  S
  S15      1.0000 0.84910  0.72885  0.10483  Biso   1.000  S
  O71      1.0000 0.56270  0.16020  0.89680  Biso   1.000  O
  O72      1.0000 0.36630  0.16680  0.98000  Biso   1.000  O
  O73      1.0000 0.42130  0.27330  0.06300  Biso   1.000  O
  O74      1.0000 0.63440  0.34920  0.02300  Biso   1.000  O
  O75      1.0000 0.71710  0.28480  0.91540  Biso   1.000  O
  O76      1.0000 0.11460  0.34300  0.74670  Biso   1.000  O
  O77      1.0000 0.41290  0.20390  0.82510  Biso   1.000  O
  O78      1.0000 0.61970  0.15430  0.79540  Biso   1.000  O
  O79      1.0000 0.15590  0.23140  0.66110  Biso   1.000  O
  O80      1.0000 0.26280  0.92970  0.96680  Biso   1.000  O
  O81      1.0000 0.26730  0.06830  0.92670  Biso   1.000  O
  O82      1.0000 0.45180  0.07610  0.83190  Biso   1.000  O
  O83      1.0000 0.51190  0.93200  0.80290  Biso   1.000  O
  O84      1.0000 0.41600  0.84010  0.88700  Biso   1.000  O
  U16      1.0000 0.54330  0.24398  0.97548  Biso   1.000  U
  U17      1.0000 0.26037  0.24546  0.75384  Biso   1.000  U
  U18      1.0000 0.38365  0.97027  0.88363  Biso   1.000  U
  S16      1.0000 0.51040  0.14857  0.83700  Biso   1.000  S
  S17      1.0000 0.25950  0.11421  0.97936  Biso   1.000  S
  S18      1.0000 0.34910  0.22885  0.10483  Biso   1.000  S
  O85      1.0000 0.93730  0.33980  0.39680  Biso   1.000  O
  O86      1.0000 0.13370  0.33320  0.48000  Biso   1.000  O
  O87      1.0000 0.07870  0.22670  0.56300  Biso   1.000  O
  O88      1.0000 0.86560  0.15080  0.52300  Biso   1.000  O
  O89      1.0000 0.78290  0.21520  0.41540  Biso   1.000  O
  O90      1.0000 0.38540  0.15700  0.24670  Biso   1.000  O
  O91      1.0000 0.08710  0.29610  0.32510  Biso   1.000  O
  O92      1.0000 0.88030  0.34570  0.29540  Biso   1.000  O
  O93      1.0000 0.34410  0.26860  0.16110  Biso   1.000  O
  O94      1.0000 0.23720  0.57030  0.46680  Biso   1.000  O
  O95      1.0000 0.23270  0.43170  0.42670  Biso   1.000  O
  O96      1.0000 0.04820  0.42390  0.33190  Biso   1.000  O
  O97      1.0000 0.98810  0.56800  0.30290  Biso   1.000  O
  O98      1.0000 0.08400  0.65990  0.38700  Biso   1.000  O
  U19      1.0000 0.95670  0.25602  0.47548  Biso   1.000  U
  U20      1.0000 0.23963  0.25454  0.25384  Biso   1.000  U
  U21      1.0000 0.11635  0.52973  0.38363  Biso   1.000  U
  S19      1.0000 0.98960  0.35143  0.33700  Biso   1.000  S
  S20      1.0000 0.24050  0.38579  0.47936  Biso   1.000  S
  S21      1.0000 0.15090  0.27115  0.60483  Biso   1.000  S
  O99      1.0000 0.43730  0.83980  0.39680  Biso   1.000  O
  O100     1.0000 0.63370  0.83320  0.48000  Biso   1.000  O
  O101     1.0000 0.57870  0.72670  0.56300  Biso   1.000  O
  O102     1.0000 0.36560  0.65080  0.52300  Biso   1.000  O
  O103     1.0000 0.28290  0.71520  0.41540  Biso   1.000  O
  O104     1.0000 0.88540  0.65700  0.24670  Biso   1.000  O
  O105     1.0000 0.58710  0.79610  0.32510  Biso   1.000  O
  O106     1.0000 0.38030  0.84570  0.29540  Biso   1.000  O
  O107     1.0000 0.84410  0.76860  0.16110  Biso   1.000  O
  O108     1.0000 0.73720  0.07030  0.46680  Biso   1.000  O
  O109     1.0000 0.73270  0.93170  0.42670  Biso   1.000  O
  O110     1.0000 0.54820  0.92390  0.33190  Biso   1.000  O
  O111     1.0000 0.48810  0.06800  0.30290  Biso   1.000  O
  O112     1.0000 0.58400  0.15990  0.38700  Biso   1.000  O
  U22      1.0000 0.45670  0.75602  0.47548  Biso   1.000  U
  U23      1.0000 0.73963  0.75454  0.25384  Biso   1.000  U
  U24      1.0000 0.61635  0.02973  0.38363  Biso   1.000  U
  S22      1.0000 0.48960  0.85143  0.33700  Biso   1.000  S
  S23      1.0000 0.74050  0.88579  0.47936  Biso   1.000  S
  S24      1.0000 0.65090  0.77115  0.60483  Biso   1.000  S
  S25      1.0000 0.50000  0.88699  0.75000  Biso   1.000  S
  S26      1.0000 0.00000  0.38699  0.75000  Biso   1.000  S
  S27      1.0000 0.50000  0.11301  0.25000  Biso   1.000  S
  S28      1.0000 0.00000  0.61301  0.25000  Biso   1.000  S
