data_image0
_cell_length_a       27.538
_cell_length_b       27.538
_cell_length_c       20.139
_cell_angle_alpha    90
_cell_angle_beta     90
_cell_angle_gamma    120

_symmetry_space_group_name_H-M    "P 1"
_symmetry_int_tables_number       1

loop_
  _symmetry_equiv_pos_as_xyz
  'x, y, z'

loop_
  _atom_site_label
  _atom_site_occupancy
  _atom_site_fract_x
  _atom_site_fract_y
  _atom_site_fract_z
  _atom_site_thermal_displace_type
  _atom_site_B_iso_or_equiv
  _atom_site_type_symbol
  I1       1.0000 0.22672  0.63420  0.54931  Biso   1.000  I
  Cu1      1.0000 0.28777  0.60524  0.47476  Biso   1.000  Cu
  O1       1.0000 0.21137  0.36887  0.31983  Biso   1.000  O
  O2       1.0000 0.29103  0.45132  0.31759  Biso   1.000  O
  O3       1.0000 0.95908  0.27229  0.68097  Biso   1.000  O
  O4       1.0000 0.95458  0.35125  0.68229  Biso   1.000  O
  N1       1.0000 0.23769  0.52387  0.45010  Biso   1.000  N
  C1       1.0000 0.25150  0.49810  0.40320  Biso   1.000  C
  H1       1.0000 0.28360  0.51990  0.37810  Biso   1.000  H
  C2       1.0000 0.22080  0.44100  0.39000  Biso   1.000  C
  C3       1.0000 0.17370  0.40800  0.42750  Biso   1.000  C
  H2       1.0000 0.15250  0.36960  0.42000  Biso   1.000  H
  C4       1.0000 0.15850  0.43330  0.47700  Biso   1.000  C
  C5       1.0000 0.19170  0.49050  0.48570  Biso   1.000  C
  H3       1.0000 0.18150  0.50720  0.51880  Biso   1.000  H
  C6       1.0000 0.24230  0.41780  0.33840  Biso   1.000  C
  C7       1.0000 0.10790  0.40230  0.52030  Biso   1.000  C
  C8       1.0000 0.09290  0.34930  0.54200  Biso   1.000  C
  H4       1.0000 0.11200  0.33150  0.52710  Biso   1.000  H
  C9       1.0000 0.04790  0.32230  0.58710  Biso   1.000  C
  H5       1.0000 0.03710  0.28610  0.60140  Biso   1.000  H
  C10      1.0000 0.01960  0.34880  0.61080  Biso   1.000  C
  C11      1.0000 0.03360  0.40080  0.58580  Biso   1.000  C
  H6       1.0000 0.01360  0.41820  0.59890  Biso   1.000  H
  C12      1.0000 0.07760  0.42710  0.54100  Biso   1.000  C
  H7       1.0000 0.08680  0.46220  0.52450  Biso   1.000  H
  C13      1.0000 0.97360  0.32140  0.66240  Biso   1.000  C
  C14      1.0000 0.39010  0.68640  0.71150  Biso   1.000  C
  H8       1.0000 0.41520  0.72410  0.69550  Biso   1.000  H
  H9       1.0000 0.40380  0.66220  0.69550  Biso   1.000  H
  I2       1.0000 0.36580  0.59252  0.54931  Biso   1.000  I
  Cu2      1.0000 0.39476  0.68253  0.47476  Biso   1.000  Cu
  O5       1.0000 0.63113  0.84250  0.31983  Biso   1.000  O
  O6       1.0000 0.54868  0.83971  0.31759  Biso   1.000  O
  O7       1.0000 0.72771  0.68679  0.68097  Biso   1.000  O
  O8       1.0000 0.64875  0.60333  0.68229  Biso   1.000  O
  N2       1.0000 0.47613  0.71382  0.45010  Biso   1.000  N
  C15      1.0000 0.50190  0.75340  0.40320  Biso   1.000  C
  H10      1.0000 0.48010  0.76370  0.37810  Biso   1.000  H
  C16      1.0000 0.55900  0.77980  0.39000  Biso   1.000  C
  C17      1.0000 0.59200  0.76570  0.42750  Biso   1.000  C
  H11      1.0000 0.63040  0.78290  0.42000  Biso   1.000  H
  C18      1.0000 0.56670  0.72520  0.47700  Biso   1.000  C
  C19      1.0000 0.50950  0.70120  0.48570  Biso   1.000  C
  H12      1.0000 0.49280  0.67430  0.51880  Biso   1.000  H
  C20      1.0000 0.58220  0.82450  0.33840  Biso   1.000  C
  C21      1.0000 0.59770  0.70560  0.52030  Biso   1.000  C
  C22      1.0000 0.65070  0.74360  0.54200  Biso   1.000  C
  H13      1.0000 0.66850  0.78050  0.52710  Biso   1.000  H
  C23      1.0000 0.67770  0.72560  0.58710  Biso   1.000  C
  H14      1.0000 0.71390  0.75100  0.60140  Biso   1.000  H
  C24      1.0000 0.65120  0.67080  0.61080  Biso   1.000  C
  C25      1.0000 0.59920  0.63280  0.58580  Biso   1.000  C
  H15      1.0000 0.58180  0.59540  0.59890  Biso   1.000  H
  C26      1.0000 0.57290  0.65050  0.54100  Biso   1.000  C
  H16      1.0000 0.53780  0.62460  0.52450  Biso   1.000  H
  C27      1.0000 0.67860  0.65220  0.66240  Biso   1.000  C
  C28      1.0000 0.31360  0.70370  0.71150  Biso   1.000  C
  H17      1.0000 0.27590  0.69110  0.69550  Biso   1.000  H
  H18      1.0000 0.33780  0.74160  0.69550  Biso   1.000  H
  I3       1.0000 0.40748  0.77328  0.54931  Biso   1.000  I
  Cu3      1.0000 0.31747  0.71223  0.47476  Biso   1.000  Cu
  O9       1.0000 0.15750  0.78863  0.31983  Biso   1.000  O
  O10      1.0000 0.16029  0.70897  0.31759  Biso   1.000  O
  O11      1.0000 0.31321  0.04092  0.68097  Biso   1.000  O
  O12      1.0000 0.39667  0.04542  0.68229  Biso   1.000  O
  N3       1.0000 0.28618  0.76231  0.45010  Biso   1.000  N
  C29      1.0000 0.24660  0.74850  0.40320  Biso   1.000  C
  H19      1.0000 0.23630  0.71640  0.37810  Biso   1.000  H
  C30      1.0000 0.22020  0.77920  0.39000  Biso   1.000  C
  C31      1.0000 0.23430  0.82630  0.42750  Biso   1.000  C
  H20      1.0000 0.21710  0.84750  0.42000  Biso   1.000  H
  C32      1.0000 0.27480  0.84150  0.47700  Biso   1.000  C
  C33      1.0000 0.29880  0.80830  0.48570  Biso   1.000  C
  H21      1.0000 0.32570  0.81850  0.51880  Biso   1.000  H
  C34      1.0000 0.17550  0.75770  0.33840  Biso   1.000  C
  C35      1.0000 0.29440  0.89210  0.52030  Biso   1.000  C
  C36      1.0000 0.25640  0.90710  0.54200  Biso   1.000  C
  H22      1.0000 0.21950  0.88800  0.52710  Biso   1.000  H
  C37      1.0000 0.27440  0.95210  0.58710  Biso   1.000  C
  H23      1.0000 0.24900  0.96290  0.60140  Biso   1.000  H
  C38      1.0000 0.32920  0.98040  0.61080  Biso   1.000  C
  C39      1.0000 0.36720  0.96640  0.58580  Biso   1.000  C
  H24      1.0000 0.40460  0.98640  0.59890  Biso   1.000  H
  C40      1.0000 0.34950  0.92240  0.54100  Biso   1.000  C
  H25      1.0000 0.37540  0.91320  0.52450  Biso   1.000  H
  C41      1.0000 0.34780  0.02640  0.66240  Biso   1.000  C
  C42      1.0000 0.29630  0.60990  0.71150  Biso   1.000  C
  H26      1.0000 0.30890  0.58480  0.69550  Biso   1.000  H
  H27      1.0000 0.25840  0.59620  0.69550  Biso   1.000  H
  I4       1.0000 0.77328  0.36580  0.04931  Biso   1.000  I
  Cu4      1.0000 0.71223  0.39476  0.97476  Biso   1.000  Cu
  O13      1.0000 0.78863  0.63113  0.81983  Biso   1.000  O
  O14      1.0000 0.70897  0.54868  0.81759  Biso   1.000  O
  O15      1.0000 0.04092  0.72771  0.18097  Biso   1.000  O
  O16      1.0000 0.04542  0.64875  0.18229  Biso   1.000  O
  N4       1.0000 0.76231  0.47613  0.95010  Biso   1.000  N
  C43      1.0000 0.74850  0.50190  0.90320  Biso   1.000  C
  H28      1.0000 0.71640  0.48010  0.87810  Biso   1.000  H
  C44      1.0000 0.77920  0.55900  0.89000  Biso   1.000  C
  C45      1.0000 0.82630  0.59200  0.92750  Biso   1.000  C
  H29      1.0000 0.84750  0.63040  0.92000  Biso   1.000  H
  C46      1.0000 0.84150  0.56670  0.97700  Biso   1.000  C
  C47      1.0000 0.80830  0.50950  0.98570  Biso   1.000  C
  H30      1.0000 0.81850  0.49280  0.01880  Biso   1.000  H
  C48      1.0000 0.75770  0.58220  0.83840  Biso   1.000  C
  C49      1.0000 0.89210  0.59770  0.02030  Biso   1.000  C
  C50      1.0000 0.90710  0.65070  0.04200  Biso   1.000  C
  H31      1.0000 0.88800  0.66850  0.02710  Biso   1.000  H
  C51      1.0000 0.95210  0.67770  0.08710  Biso   1.000  C
  H32      1.0000 0.96290  0.71390  0.10140  Biso   1.000  H
  C52      1.0000 0.98040  0.65120  0.11080  Biso   1.000  C
  C53      1.0000 0.96640  0.59920  0.08580  Biso   1.000  C
  H33      1.0000 0.98640  0.58180  0.09890  Biso   1.000  H
  C54      1.0000 0.92240  0.57290  0.04100  Biso   1.000  C
  H34      1.0000 0.91320  0.53780  0.02450  Biso   1.000  H
  C55      1.0000 0.02640  0.67860  0.16240  Biso   1.000  C
  C56      1.0000 0.60990  0.31360  0.21150  Biso   1.000  C
  H35      1.0000 0.58480  0.27590  0.19550  Biso   1.000  H
  H36      1.0000 0.59620  0.33780  0.19550  Biso   1.000  H
  I5       1.0000 0.63420  0.40748  0.04931  Biso   1.000  I
  Cu5      1.0000 0.60524  0.31747  0.97476  Biso   1.000  Cu
  O17      1.0000 0.36887  0.15750  0.81983  Biso   1.000  O
  O18      1.0000 0.45132  0.16029  0.81759  Biso   1.000  O
  O19      1.0000 0.27229  0.31321  0.18097  Biso   1.000  O
  O20      1.0000 0.35125  0.39667  0.18229  Biso   1.000  O
  N5       1.0000 0.52387  0.28618  0.95010  Biso   1.000  N
  C57      1.0000 0.49810  0.24660  0.90320  Biso   1.000  C
  H37      1.0000 0.51990  0.23630  0.87810  Biso   1.000  H
  C58      1.0000 0.44100  0.22020  0.89000  Biso   1.000  C
  C59      1.0000 0.40800  0.23430  0.92750  Biso   1.000  C
  H38      1.0000 0.36960  0.21710  0.92000  Biso   1.000  H
  C60      1.0000 0.43330  0.27480  0.97700  Biso   1.000  C
  C61      1.0000 0.49050  0.29880  0.98570  Biso   1.000  C
  H39      1.0000 0.50720  0.32570  0.01880  Biso   1.000  H
  C62      1.0000 0.41780  0.17550  0.83840  Biso   1.000  C
  C63      1.0000 0.40230  0.29440  0.02030  Biso   1.000  C
  C64      1.0000 0.34930  0.25640  0.04200  Biso   1.000  C
  H40      1.0000 0.33150  0.21950  0.02710  Biso   1.000  H
  C65      1.0000 0.32230  0.27440  0.08710  Biso   1.000  C
  H41      1.0000 0.28610  0.24900  0.10140  Biso   1.000  H
  C66      1.0000 0.34880  0.32920  0.11080  Biso   1.000  C
  C67      1.0000 0.40080  0.36720  0.08580  Biso   1.000  C
  H42      1.0000 0.41820  0.40460  0.09890  Biso   1.000  H
  C68      1.0000 0.42710  0.34950  0.04100  Biso   1.000  C
  H43      1.0000 0.46220  0.37540  0.02450  Biso   1.000  H
  C69      1.0000 0.32140  0.34780  0.16240  Biso   1.000  C
  C70      1.0000 0.68640  0.29630  0.21150  Biso   1.000  C
  H44      1.0000 0.72410  0.30890  0.19550  Biso   1.000  H
  H45      1.0000 0.66220  0.25840  0.19550  Biso   1.000  H
  I6       1.0000 0.59252  0.22672  0.04931  Biso   1.000  I
  Cu6      1.0000 0.68253  0.28777  0.97476  Biso   1.000  Cu
  O21      1.0000 0.84250  0.21137  0.81983  Biso   1.000  O
  O22      1.0000 0.83971  0.29103  0.81759  Biso   1.000  O
  O23      1.0000 0.68679  0.95908  0.18097  Biso   1.000  O
  O24      1.0000 0.60333  0.95458  0.18229  Biso   1.000  O
  N6       1.0000 0.71382  0.23769  0.95010  Biso   1.000  N
  C71      1.0000 0.75340  0.25150  0.90320  Biso   1.000  C
  H46      1.0000 0.76370  0.28360  0.87810  Biso   1.000  H
  C72      1.0000 0.77980  0.22080  0.89000  Biso   1.000  C
  C73      1.0000 0.76570  0.17370  0.92750  Biso   1.000  C
  H47      1.0000 0.78290  0.15250  0.92000  Biso   1.000  H
  C74      1.0000 0.72520  0.15850  0.97700  Biso   1.000  C
  C75      1.0000 0.70120  0.19170  0.98570  Biso   1.000  C
  H48      1.0000 0.67430  0.18150  0.01880  Biso   1.000  H
  C76      1.0000 0.82450  0.24230  0.83840  Biso   1.000  C
  C77      1.0000 0.70560  0.10790  0.02030  Biso   1.000  C
  C78      1.0000 0.74360  0.09290  0.04200  Biso   1.000  C
  H49      1.0000 0.78050  0.11200  0.02710  Biso   1.000  H
  C79      1.0000 0.72560  0.04790  0.08710  Biso   1.000  C
  H50      1.0000 0.75100  0.03710  0.10140  Biso   1.000  H
  C80      1.0000 0.67080  0.01960  0.11080  Biso   1.000  C
  C81      1.0000 0.63280  0.03360  0.08580  Biso   1.000  C
  H51      1.0000 0.59540  0.01360  0.09890  Biso   1.000  H
  C82      1.0000 0.65050  0.07760  0.04100  Biso   1.000  C
  H52      1.0000 0.62460  0.08680  0.02450  Biso   1.000  H
  C83      1.0000 0.65220  0.97360  0.16240  Biso   1.000  C
  C84      1.0000 0.70370  0.39010  0.21150  Biso   1.000  C
  H53      1.0000 0.69110  0.41520  0.19550  Biso   1.000  H
  H54      1.0000 0.74160  0.40380  0.19550  Biso   1.000  H
  I7       1.0000 0.77328  0.36580  0.45069  Biso   1.000  I
  Cu7      1.0000 0.71223  0.39476  0.52524  Biso   1.000  Cu
  O25      1.0000 0.78863  0.63113  0.68017  Biso   1.000  O
  O26      1.0000 0.70897  0.54868  0.68241  Biso   1.000  O
  O27      1.0000 0.04092  0.72771  0.31903  Biso   1.000  O
  O28      1.0000 0.04542  0.64875  0.31771  Biso   1.000  O
  N7       1.0000 0.76231  0.47613  0.54990  Biso   1.000  N
  C85      1.0000 0.74850  0.50190  0.59680  Biso   1.000  C
  H55      1.0000 0.71640  0.48010  0.62190  Biso   1.000  H
  C86      1.0000 0.77920  0.55900  0.61000  Biso   1.000  C
  C87      1.0000 0.82630  0.59200  0.57250  Biso   1.000  C
  H56      1.0000 0.84750  0.63040  0.58000  Biso   1.000  H
  C88      1.0000 0.84150  0.56670  0.52300  Biso   1.000  C
  C89      1.0000 0.80830  0.50950  0.51430  Biso   1.000  C
  H57      1.0000 0.81850  0.49280  0.48120  Biso   1.000  H
  C90      1.0000 0.75770  0.58220  0.66160  Biso   1.000  C
  C91      1.0000 0.89210  0.59770  0.47970  Biso   1.000  C
  C92      1.0000 0.90710  0.65070  0.45800  Biso   1.000  C
  H58      1.0000 0.88800  0.66850  0.47290  Biso   1.000  H
  C93      1.0000 0.95210  0.67770  0.41290  Biso   1.000  C
  H59      1.0000 0.96290  0.71390  0.39860  Biso   1.000  H
  C94      1.0000 0.98040  0.65120  0.38920  Biso   1.000  C
  C95      1.0000 0.96640  0.59920  0.41420  Biso   1.000  C
  H60      1.0000 0.98640  0.58180  0.40110  Biso   1.000  H
  C96      1.0000 0.92240  0.57290  0.45900  Biso   1.000  C
  H61      1.0000 0.91320  0.53780  0.47550  Biso   1.000  H
  C97      1.0000 0.02640  0.67860  0.33760  Biso   1.000  C
  C98      1.0000 0.60990  0.31360  0.28850  Biso   1.000  C
  H62      1.0000 0.58480  0.27590  0.30450  Biso   1.000  H
  H63      1.0000 0.59620  0.33780  0.30450  Biso   1.000  H
  I8       1.0000 0.63420  0.40748  0.45069  Biso   1.000  I
  Cu8      1.0000 0.60524  0.31747  0.52524  Biso   1.000  Cu
  O29      1.0000 0.36887  0.15750  0.68017  Biso   1.000  O
  O30      1.0000 0.45132  0.16029  0.68241  Biso   1.000  O
  O31      1.0000 0.27229  0.31321  0.31903  Biso   1.000  O
  O32      1.0000 0.35125  0.39667  0.31771  Biso   1.000  O
  N8       1.0000 0.52387  0.28618  0.54990  Biso   1.000  N
  C99      1.0000 0.49810  0.24660  0.59680  Biso   1.000  C
  H64      1.0000 0.51990  0.23630  0.62190  Biso   1.000  H
  C100     1.0000 0.44100  0.22020  0.61000  Biso   1.000  C
  C101     1.0000 0.40800  0.23430  0.57250  Biso   1.000  C
  H65      1.0000 0.36960  0.21710  0.58000  Biso   1.000  H
  C102     1.0000 0.43330  0.27480  0.52300  Biso   1.000  C
  C103     1.0000 0.49050  0.29880  0.51430  Biso   1.000  C
  H66      1.0000 0.50720  0.32570  0.48120  Biso   1.000  H
  C104     1.0000 0.41780  0.17550  0.66160  Biso   1.000  C
  C105     1.0000 0.40230  0.29440  0.47970  Biso   1.000  C
  C106     1.0000 0.34930  0.25640  0.45800  Biso   1.000  C
  H67      1.0000 0.33150  0.21950  0.47290  Biso   1.000  H
  C107     1.0000 0.32230  0.27440  0.41290  Biso   1.000  C
  H68      1.0000 0.28610  0.24900  0.39860  Biso   1.000  H
  C108     1.0000 0.34880  0.32920  0.38920  Biso   1.000  C
  C109     1.0000 0.40080  0.36720  0.41420  Biso   1.000  C
  H69      1.0000 0.41820  0.40460  0.40110  Biso   1.000  H
  C110     1.0000 0.42710  0.34950  0.45900  Biso   1.000  C
  H70      1.0000 0.46220  0.37540  0.47550  Biso   1.000  H
  C111     1.0000 0.32140  0.34780  0.33760  Biso   1.000  C
  C112     1.0000 0.68640  0.29630  0.28850  Biso   1.000  C
  H71      1.0000 0.72410  0.30890  0.30450  Biso   1.000  H
  H72      1.0000 0.66220  0.25840  0.30450  Biso   1.000  H
  I9       1.0000 0.59252  0.22672  0.45069  Biso   1.000  I
  Cu9      1.0000 0.68253  0.28777  0.52524  Biso   1.000  Cu
  O33      1.0000 0.84250  0.21137  0.68017  Biso   1.000  O
  O34      1.0000 0.83971  0.29103  0.68241  Biso   1.000  O
  O35      1.0000 0.68679  0.95908  0.31903  Biso   1.000  O
  O36      1.0000 0.60333  0.95458  0.31771  Biso   1.000  O
  N9       1.0000 0.71382  0.23769  0.54990  Biso   1.000  N
  C113     1.0000 0.75340  0.25150  0.59680  Biso   1.000  C
  H73      1.0000 0.76370  0.28360  0.62190  Biso   1.000  H
  C114     1.0000 0.77980  0.22080  0.61000  Biso   1.000  C
  C115     1.0000 0.76570  0.17370  0.57250  Biso   1.000  C
  H74      1.0000 0.78290  0.15250  0.58000  Biso   1.000  H
  C116     1.0000 0.72520  0.15850  0.52300  Biso   1.000  C
  C117     1.0000 0.70120  0.19170  0.51430  Biso   1.000  C
  H75      1.0000 0.67430  0.18150  0.48120  Biso   1.000  H
  C118     1.0000 0.82450  0.24230  0.66160  Biso   1.000  C
  C119     1.0000 0.70560  0.10790  0.47970  Biso   1.000  C
  C120     1.0000 0.74360  0.09290  0.45800  Biso   1.000  C
  H76      1.0000 0.78050  0.11200  0.47290  Biso   1.000  H
  C121     1.0000 0.72560  0.04790  0.41290  Biso   1.000  C
  H77      1.0000 0.75100  0.03710  0.39860  Biso   1.000  H
  C122     1.0000 0.67080  0.01960  0.38920  Biso   1.000  C
  C123     1.0000 0.63280  0.03360  0.41420  Biso   1.000  C
  H78      1.0000 0.59540  0.01360  0.40110  Biso   1.000  H
  C124     1.0000 0.65050  0.07760  0.45900  Biso   1.000  C
  H79      1.0000 0.62460  0.08680  0.47550  Biso   1.000  H
  C125     1.0000 0.65220  0.97360  0.33760  Biso   1.000  C
  C126     1.0000 0.70370  0.39010  0.28850  Biso   1.000  C
  H80      1.0000 0.69110  0.41520  0.30450  Biso   1.000  H
  H81      1.0000 0.74160  0.40380  0.30450  Biso   1.000  H
  I10      1.0000 0.22672  0.63420  0.95069  Biso   1.000  I
  Cu10     1.0000 0.28777  0.60524  0.02524  Biso   1.000  Cu
  O37      1.0000 0.21137  0.36887  0.18017  Biso   1.000  O
  O38      1.0000 0.29103  0.45132  0.18241  Biso   1.000  O
  O39      1.0000 0.95908  0.27229  0.81903  Biso   1.000  O
  O40      1.0000 0.95458  0.35125  0.81771  Biso   1.000  O
  N10      1.0000 0.23769  0.52387  0.04990  Biso   1.000  N
  C127     1.0000 0.25150  0.49810  0.09680  Biso   1.000  C
  H82      1.0000 0.28360  0.51990  0.12190  Biso   1.000  H
  C128     1.0000 0.22080  0.44100  0.11000  Biso   1.000  C
  C129     1.0000 0.17370  0.40800  0.07250  Biso   1.000  C
  H83      1.0000 0.15250  0.36960  0.08000  Biso   1.000  H
  C130     1.0000 0.15850  0.43330  0.02300  Biso   1.000  C
  C131     1.0000 0.19170  0.49050  0.01430  Biso   1.000  C
  H84      1.0000 0.18150  0.50720  0.98120  Biso   1.000  H
  C132     1.0000 0.24230  0.41780  0.16160  Biso   1.000  C
  C133     1.0000 0.10790  0.40230  0.97970  Biso   1.000  C
  C134     1.0000 0.09290  0.34930  0.95800  Biso   1.000  C
  H85      1.0000 0.11200  0.33150  0.97290  Biso   1.000  H
  C135     1.0000 0.04790  0.32230  0.91290  Biso   1.000  C
  H86      1.0000 0.03710  0.28610  0.89860  Biso   1.000  H
  C136     1.0000 0.01960  0.34880  0.88920  Biso   1.000  C
  C137     1.0000 0.03360  0.40080  0.91420  Biso   1.000  C
  H87      1.0000 0.01360  0.41820  0.90110  Biso   1.000  H
  C138     1.0000 0.07760  0.42710  0.95900  Biso   1.000  C
  H88      1.0000 0.08680  0.46220  0.97550  Biso   1.000  H
  C139     1.0000 0.97360  0.32140  0.83760  Biso   1.000  C
  C140     1.0000 0.39010  0.68640  0.78850  Biso   1.000  C
  H89      1.0000 0.41520  0.72410  0.80450  Biso   1.000  H
  H90      1.0000 0.40380  0.66220  0.80450  Biso   1.000  H
  I11      1.0000 0.36580  0.59252  0.95069  Biso   1.000  I
  Cu11     1.0000 0.39476  0.68253  0.02524  Biso   1.000  Cu
  O41      1.0000 0.63113  0.84250  0.18017  Biso   1.000  O
  O42      1.0000 0.54868  0.83971  0.18241  Biso   1.000  O
  O43      1.0000 0.72771  0.68679  0.81903  Biso   1.000  O
  O44      1.0000 0.64875  0.60333  0.81771  Biso   1.000  O
  N11      1.0000 0.47613  0.71382  0.04990  Biso   1.000  N
  C141     1.0000 0.50190  0.75340  0.09680  Biso   1.000  C
  H91      1.0000 0.48010  0.76370  0.12190  Biso   1.000  H
  C142     1.0000 0.55900  0.77980  0.11000  Biso   1.000  C
  C143     1.0000 0.59200  0.76570  0.07250  Biso   1.000  C
  H92      1.0000 0.63040  0.78290  0.08000  Biso   1.000  H
  C144     1.0000 0.56670  0.72520  0.02300  Biso   1.000  C
  C145     1.0000 0.50950  0.70120  0.01430  Biso   1.000  C
  H93      1.0000 0.49280  0.67430  0.98120  Biso   1.000  H
  C146     1.0000 0.58220  0.82450  0.16160  Biso   1.000  C
  C147     1.0000 0.59770  0.70560  0.97970  Biso   1.000  C
  C148     1.0000 0.65070  0.74360  0.95800  Biso   1.000  C
  H94      1.0000 0.66850  0.78050  0.97290  Biso   1.000  H
  C149     1.0000 0.67770  0.72560  0.91290  Biso   1.000  C
  H95      1.0000 0.71390  0.75100  0.89860  Biso   1.000  H
  C150     1.0000 0.65120  0.67080  0.88920  Biso   1.000  C
  C151     1.0000 0.59920  0.63280  0.91420  Biso   1.000  C
  H96      1.0000 0.58180  0.59540  0.90110  Biso   1.000  H
  C152     1.0000 0.57290  0.65050  0.95900  Biso   1.000  C
  H97      1.0000 0.53780  0.62460  0.97550  Biso   1.000  H
  C153     1.0000 0.67860  0.65220  0.83760  Biso   1.000  C
  C154     1.0000 0.31360  0.70370  0.78850  Biso   1.000  C
  H98      1.0000 0.27590  0.69110  0.80450  Biso   1.000  H
  H99      1.0000 0.33780  0.74160  0.80450  Biso   1.000  H
  I12      1.0000 0.40748  0.77328  0.95069  Biso   1.000  I
  Cu12     1.0000 0.31747  0.71223  0.02524  Biso   1.000  Cu
  O45      1.0000 0.15750  0.78863  0.18017  Biso   1.000  O
  O46      1.0000 0.16029  0.70897  0.18241  Biso   1.000  O
  O47      1.0000 0.31321  0.04092  0.81903  Biso   1.000  O
  O48      1.0000 0.39667  0.04542  0.81771  Biso   1.000  O
  N12      1.0000 0.28618  0.76231  0.04990  Biso   1.000  N
  C155     1.0000 0.24660  0.74850  0.09680  Biso   1.000  C
  H100     1.0000 0.23630  0.71640  0.12190  Biso   1.000  H
  C156     1.0000 0.22020  0.77920  0.11000  Biso   1.000  C
  C157     1.0000 0.23430  0.82630  0.07250  Biso   1.000  C
  H101     1.0000 0.21710  0.84750  0.08000  Biso   1.000  H
  C158     1.0000 0.27480  0.84150  0.02300  Biso   1.000  C
  C159     1.0000 0.29880  0.80830  0.01430  Biso   1.000  C
  H102     1.0000 0.32570  0.81850  0.98120  Biso   1.000  H
  C160     1.0000 0.17550  0.75770  0.16160  Biso   1.000  C
  C161     1.0000 0.29440  0.89210  0.97970  Biso   1.000  C
  C162     1.0000 0.25640  0.90710  0.95800  Biso   1.000  C
  H103     1.0000 0.21950  0.88800  0.97290  Biso   1.000  H
  C163     1.0000 0.27440  0.95210  0.91290  Biso   1.000  C
  H104     1.0000 0.24900  0.96290  0.89860  Biso   1.000  H
  C164     1.0000 0.32920  0.98040  0.88920  Biso   1.000  C
  C165     1.0000 0.36720  0.96640  0.91420  Biso   1.000  C
  H105     1.0000 0.40460  0.98640  0.90110  Biso   1.000  H
  C166     1.0000 0.34950  0.92240  0.95900  Biso   1.000  C
  H106     1.0000 0.37540  0.91320  0.97550  Biso   1.000  H
  C167     1.0000 0.34780  0.02640  0.83760  Biso   1.000  C
  C168     1.0000 0.29630  0.60990  0.78850  Biso   1.000  C
  H107     1.0000 0.30890  0.58480  0.80450  Biso   1.000  H
  H108     1.0000 0.25840  0.59620  0.80450  Biso   1.000  H
  I13      1.0000 0.33333  0.66667  0.36496  Biso   1.000  I
  Cu13     1.0000 0.33333  0.66667  0.58258  Biso   1.000  Cu
  N13      1.0000 0.33333  0.66667  0.68540  Biso   1.000  N
  I14      1.0000 0.66667  0.33333  0.86496  Biso   1.000  I
  Cu14     1.0000 0.66667  0.33333  0.08258  Biso   1.000  Cu
  N14      1.0000 0.66667  0.33333  0.18540  Biso   1.000  N
  I15      1.0000 0.66667  0.33333  0.63504  Biso   1.000  I
  Cu15     1.0000 0.66667  0.33333  0.41742  Biso   1.000  Cu
  N15      1.0000 0.66667  0.33333  0.31460  Biso   1.000  N
  I16      1.0000 0.33333  0.66667  0.13504  Biso   1.000  I
  Cu16     1.0000 0.33333  0.66667  0.91742  Biso   1.000  Cu
  N16      1.0000 0.33333  0.66667  0.81460  Biso   1.000  N
  Cu17     1.0000 0.23443  0.33287  0.25000  Biso   1.000  Cu
  Cu18     1.0000 0.32881  0.43117  0.25000  Biso   1.000  Cu
  Cu19     1.0000 0.66713  0.90156  0.25000  Biso   1.000  Cu
  Cu20     1.0000 0.56883  0.89764  0.25000  Biso   1.000  Cu
  Cu21     1.0000 0.09844  0.76557  0.25000  Biso   1.000  Cu
  Cu22     1.0000 0.10236  0.67119  0.25000  Biso   1.000  Cu
  Cu23     1.0000 0.76557  0.66713  0.75000  Biso   1.000  Cu
  Cu24     1.0000 0.67119  0.56883  0.75000  Biso   1.000  Cu
  Cu25     1.0000 0.33287  0.09844  0.75000  Biso   1.000  Cu
  Cu26     1.0000 0.43117  0.10236  0.75000  Biso   1.000  Cu
  Cu27     1.0000 0.90156  0.23443  0.75000  Biso   1.000  Cu
  Cu28     1.0000 0.89764  0.32881  0.75000  Biso   1.000  Cu
