data_image0
_cell_length_a       19.209
_cell_length_b       19.209
_cell_length_c       10.991
_cell_angle_alpha    90
_cell_angle_beta     90
_cell_angle_gamma    90

_symmetry_space_group_name_H-M    "P 1"
_symmetry_int_tables_number       1

loop_
  _symmetry_equiv_pos_as_xyz
  'x, y, z'

loop_
  _atom_site_label
  _atom_site_occupancy
  _atom_site_fract_x
  _atom_site_fract_y
  _atom_site_fract_z
  _atom_site_thermal_displace_type
  _atom_site_B_iso_or_equiv
  _atom_site_type_symbol
  O1       1.0000 0.03581  0.56636  0.14944  Biso   1.000  O
  O2       1.0000 0.98347  0.61855  0.99230  Biso   1.000  O
  C1       1.0000 0.07923  0.69078  0.24120  Biso   1.000  C
  H1       1.0000 0.09410  0.64900  0.27520  Biso   1.000  H
  C2       1.0000 0.03399  0.68817  0.14380  Biso   1.000  C
  C3       1.0000 0.01547  0.61866  0.09120  Biso   1.000  C
  O3       1.0000 0.46419  0.93364  0.14944  Biso   1.000  O
  O4       1.0000 0.51653  0.88145  0.99230  Biso   1.000  O
  C4       1.0000 0.42077  0.80922  0.24120  Biso   1.000  C
  H2       1.0000 0.40590  0.85100  0.27520  Biso   1.000  H
  C5       1.0000 0.46601  0.81183  0.14380  Biso   1.000  C
  C6       1.0000 0.48453  0.88134  0.09120  Biso   1.000  C
  O5       1.0000 0.93364  0.03581  0.14944  Biso   1.000  O
  O6       1.0000 0.88145  0.98347  0.99230  Biso   1.000  O
  C7       1.0000 0.80922  0.07923  0.24120  Biso   1.000  C
  H3       1.0000 0.85100  0.09410  0.27520  Biso   1.000  H
  C8       1.0000 0.81183  0.03399  0.14380  Biso   1.000  C
  C9       1.0000 0.88134  0.01547  0.09120  Biso   1.000  C
  O7       1.0000 0.56636  0.46419  0.14944  Biso   1.000  O
  O8       1.0000 0.61855  0.51653  0.99230  Biso   1.000  O
  C10      1.0000 0.69078  0.42077  0.24120  Biso   1.000  C
  H4       1.0000 0.64900  0.40590  0.27520  Biso   1.000  H
  C11      1.0000 0.68817  0.46601  0.14380  Biso   1.000  C
  C12      1.0000 0.61866  0.48453  0.09120  Biso   1.000  C
  O9       1.0000 0.96419  0.06636  0.85056  Biso   1.000  O
  O10      1.0000 0.01653  0.11855  0.00770  Biso   1.000  O
  C13      1.0000 0.92077  0.19078  0.75880  Biso   1.000  C
  H5       1.0000 0.90590  0.14900  0.72480  Biso   1.000  H
  C14      1.0000 0.96601  0.18817  0.85620  Biso   1.000  C
  C15      1.0000 0.98453  0.11866  0.90880  Biso   1.000  C
  O11      1.0000 0.53581  0.43364  0.85056  Biso   1.000  O
  O12      1.0000 0.48347  0.38145  0.00770  Biso   1.000  O
  C16      1.0000 0.57923  0.30922  0.75880  Biso   1.000  C
  H6       1.0000 0.59410  0.35100  0.72480  Biso   1.000  H
  C17      1.0000 0.53399  0.31183  0.85620  Biso   1.000  C
  C18      1.0000 0.51547  0.38134  0.90880  Biso   1.000  C
  O13      1.0000 0.06636  0.53581  0.85056  Biso   1.000  O
  O14      1.0000 0.11855  0.48347  0.00770  Biso   1.000  O
  C19      1.0000 0.19078  0.57923  0.75880  Biso   1.000  C
  H7       1.0000 0.14900  0.59410  0.72480  Biso   1.000  H
  C20      1.0000 0.18817  0.53399  0.85620  Biso   1.000  C
  C21      1.0000 0.11866  0.51547  0.90880  Biso   1.000  C
  O15      1.0000 0.43364  0.96419  0.85056  Biso   1.000  O
  O16      1.0000 0.38145  0.01653  0.00770  Biso   1.000  O
  C22      1.0000 0.30922  0.92077  0.75880  Biso   1.000  C
  H8       1.0000 0.35100  0.90590  0.72480  Biso   1.000  H
  C23      1.0000 0.31183  0.96601  0.85620  Biso   1.000  C
  C24      1.0000 0.38134  0.98453  0.90880  Biso   1.000  C
  O17      1.0000 0.96419  0.43364  0.85056  Biso   1.000  O
  O18      1.0000 0.01653  0.38145  0.00770  Biso   1.000  O
  C25      1.0000 0.92077  0.30922  0.75880  Biso   1.000  C
  H9       1.0000 0.90590  0.35100  0.72480  Biso   1.000  H
  C26      1.0000 0.96601  0.31183  0.85620  Biso   1.000  C
  C27      1.0000 0.98453  0.38134  0.90880  Biso   1.000  C
  O19      1.0000 0.53581  0.06636  0.85056  Biso   1.000  O
  O20      1.0000 0.48347  0.11855  0.00770  Biso   1.000  O
  C28      1.0000 0.57923  0.19078  0.75880  Biso   1.000  C
  H10      1.0000 0.59410  0.14900  0.72480  Biso   1.000  H
  C29      1.0000 0.53399  0.18817  0.85620  Biso   1.000  C
  C30      1.0000 0.51547  0.11866  0.90880  Biso   1.000  C
  O21      1.0000 0.06636  0.96419  0.85056  Biso   1.000  O
  O22      1.0000 0.11855  0.01653  0.00770  Biso   1.000  O
  C31      1.0000 0.19078  0.92077  0.75880  Biso   1.000  C
  H11      1.0000 0.14900  0.90590  0.72480  Biso   1.000  H
  C32      1.0000 0.18817  0.96601  0.85620  Biso   1.000  C
  C33      1.0000 0.11866  0.98453  0.90880  Biso   1.000  C
  O23      1.0000 0.43364  0.53581  0.85056  Biso   1.000  O
  O24      1.0000 0.38145  0.48347  0.00770  Biso   1.000  O
  C34      1.0000 0.30922  0.57923  0.75880  Biso   1.000  C
  H12      1.0000 0.35100  0.59410  0.72480  Biso   1.000  H
  C35      1.0000 0.31183  0.53399  0.85620  Biso   1.000  C
  C36      1.0000 0.38134  0.51547  0.90880  Biso   1.000  C
  O25      1.0000 0.03581  0.93364  0.14944  Biso   1.000  O
  O26      1.0000 0.98347  0.88145  0.99230  Biso   1.000  O
  C37      1.0000 0.07923  0.80922  0.24120  Biso   1.000  C
  H13      1.0000 0.09410  0.85100  0.27520  Biso   1.000  H
  C38      1.0000 0.03399  0.81183  0.14380  Biso   1.000  C
  C39      1.0000 0.01547  0.88134  0.09120  Biso   1.000  C
  O27      1.0000 0.46419  0.56636  0.14944  Biso   1.000  O
  O28      1.0000 0.51653  0.61855  0.99230  Biso   1.000  O
  C40      1.0000 0.42077  0.69078  0.24120  Biso   1.000  C
  H14      1.0000 0.40590  0.64900  0.27520  Biso   1.000  H
  C41      1.0000 0.46601  0.68817  0.14380  Biso   1.000  C
  C42      1.0000 0.48453  0.61866  0.09120  Biso   1.000  C
  O29      1.0000 0.93364  0.46419  0.14944  Biso   1.000  O
  O30      1.0000 0.88145  0.51653  0.99230  Biso   1.000  O
  C43      1.0000 0.80922  0.42077  0.24120  Biso   1.000  C
  H15      1.0000 0.85100  0.40590  0.27520  Biso   1.000  H
  C44      1.0000 0.81183  0.46601  0.14380  Biso   1.000  C
  C45      1.0000 0.88134  0.48453  0.09120  Biso   1.000  C
  O31      1.0000 0.56636  0.03581  0.14944  Biso   1.000  O
  O32      1.0000 0.61855  0.98347  0.99230  Biso   1.000  O
  C46      1.0000 0.69078  0.07923  0.24120  Biso   1.000  C
  H16      1.0000 0.64900  0.09410  0.27520  Biso   1.000  H
  C47      1.0000 0.68817  0.03399  0.14380  Biso   1.000  C
  C48      1.0000 0.61866  0.01547  0.09120  Biso   1.000  C
  I1       1.0000 0.12918  0.75000  0.63633  Biso   1.000  I
  Cu1      1.0000 0.18123  0.75000  0.41381  Biso   1.000  Cu
  N1       1.0000 0.10280  0.75000  0.28930  Biso   1.000  N
  C49      1.0000 0.01170  0.75000  0.09340  Biso   1.000  C
  H17      1.0000 0.98220  0.75000  0.02640  Biso   1.000  H
  I2       1.0000 0.37082  0.75000  0.63633  Biso   1.000  I
  Cu2      1.0000 0.31877  0.75000  0.41381  Biso   1.000  Cu
  N2       1.0000 0.39720  0.75000  0.28930  Biso   1.000  N
  C50      1.0000 0.48830  0.75000  0.09340  Biso   1.000  C
  H18      1.0000 0.51780  0.75000  0.02640  Biso   1.000  H
  I3       1.0000 0.75000  0.12918  0.63633  Biso   1.000  I
  Cu3      1.0000 0.75000  0.18123  0.41381  Biso   1.000  Cu
  N3       1.0000 0.75000  0.10280  0.28930  Biso   1.000  N
  C51      1.0000 0.75000  0.01170  0.09340  Biso   1.000  C
  H19      1.0000 0.75000  0.98220  0.02640  Biso   1.000  H
  I4       1.0000 0.75000  0.37082  0.63633  Biso   1.000  I
  Cu4      1.0000 0.75000  0.31877  0.41381  Biso   1.000  Cu
  N4       1.0000 0.75000  0.39720  0.28930  Biso   1.000  N
  C52      1.0000 0.75000  0.48830  0.09340  Biso   1.000  C
  H20      1.0000 0.75000  0.51780  0.02640  Biso   1.000  H
  I5       1.0000 0.87082  0.25000  0.36367  Biso   1.000  I
  Cu5      1.0000 0.81877  0.25000  0.58619  Biso   1.000  Cu
  N5       1.0000 0.89720  0.25000  0.71070  Biso   1.000  N
  C53      1.0000 0.98830  0.25000  0.90660  Biso   1.000  C
  H21      1.0000 0.01780  0.25000  0.97360  Biso   1.000  H
  I6       1.0000 0.62918  0.25000  0.36367  Biso   1.000  I
  Cu6      1.0000 0.68123  0.25000  0.58619  Biso   1.000  Cu
  N6       1.0000 0.60280  0.25000  0.71070  Biso   1.000  N
  C54      1.0000 0.51170  0.25000  0.90660  Biso   1.000  C
  H22      1.0000 0.48220  0.25000  0.97360  Biso   1.000  H
  I7       1.0000 0.25000  0.62918  0.36367  Biso   1.000  I
  Cu7      1.0000 0.25000  0.68123  0.58619  Biso   1.000  Cu
  N7       1.0000 0.25000  0.60280  0.71070  Biso   1.000  N
  C55      1.0000 0.25000  0.51170  0.90660  Biso   1.000  C
  H23      1.0000 0.25000  0.48220  0.97360  Biso   1.000  H
  I8       1.0000 0.25000  0.87082  0.36367  Biso   1.000  I
  Cu8      1.0000 0.25000  0.81877  0.58619  Biso   1.000  Cu
  N8       1.0000 0.25000  0.89720  0.71070  Biso   1.000  N
  C56      1.0000 0.25000  0.98830  0.90660  Biso   1.000  C
  H24      1.0000 0.25000  0.01780  0.97360  Biso   1.000  H
  Cu9      1.0000 0.03068  0.46932  0.09488  Biso   1.000  Cu
  Cu10     1.0000 0.46932  0.03068  0.09488  Biso   1.000  Cu
  Cu11     1.0000 0.03068  0.03068  0.09488  Biso   1.000  Cu
  Cu12     1.0000 0.46932  0.46932  0.09488  Biso   1.000  Cu
  Cu13     1.0000 0.96932  0.96932  0.90512  Biso   1.000  Cu
  Cu14     1.0000 0.53068  0.53068  0.90512  Biso   1.000  Cu
  Cu15     1.0000 0.96932  0.53068  0.90512  Biso   1.000  Cu
  Cu16     1.0000 0.53068  0.96932  0.90512  Biso   1.000  Cu
