data_image0
_cell_length_a       28.135
_cell_length_b       28.135
_cell_length_c       19.2
_cell_angle_alpha    90
_cell_angle_beta     90
_cell_angle_gamma    120

_symmetry_space_group_name_H-M    "P 1"
_symmetry_int_tables_number       1

loop_
  _symmetry_equiv_pos_as_xyz
  'x, y, z'

loop_
  _atom_site_label
  _atom_site_occupancy
  _atom_site_fract_x
  _atom_site_fract_y
  _atom_site_fract_z
  _atom_site_thermal_displace_type
  _atom_site_B_iso_or_equiv
  _atom_site_type_symbol
  I1       1.0000 0.22853  0.59748  0.42381  Biso   1.000  I
  Cu1      1.0000 0.29146  0.68693  0.49809  Biso   1.000  Cu
  O1       1.0000 0.21510  0.83650  0.67600  Biso   1.000  O
  O2       1.0000 0.29420  0.83420  0.67910  Biso   1.000  O
  O3       1.0000 0.95180  0.67700  0.32040  Biso   1.000  O
  O4       1.0000 0.94690  0.59440  0.31970  Biso   1.000  O
  N1       1.0000 0.24230  0.71600  0.52900  Biso   1.000  N
  C1       1.0000 0.25670  0.75300  0.58170  Biso   1.000  C
  H1       1.0000 0.28840  0.76210  0.60700  Biso   1.000  H
  C2       1.0000 0.22640  0.77780  0.59950  Biso   1.000  C
  C3       1.0000 0.17650  0.76120  0.56380  Biso   1.000  C
  H2       1.0000 0.15520  0.77710  0.57420  Biso   1.000  H
  C4       1.0000 0.16080  0.72300  0.51580  Biso   1.000  C
  C5       1.0000 0.19460  0.70280  0.49480  Biso   1.000  C
  H3       1.0000 0.18450  0.67960  0.45640  Biso   1.000  H
  C6       1.0000 0.24560  0.82020  0.65580  Biso   1.000  C
  C7       1.0000 0.10900  0.70200  0.47160  Biso   1.000  C
  C8       1.0000 0.08920  0.73620  0.45220  Biso   1.000  C
  H4       1.0000 0.10680  0.77240  0.46760  Biso   1.000  H
  C9       1.0000 0.04290  0.71670  0.40970  Biso   1.000  C
  H5       1.0000 0.03050  0.74040  0.39610  Biso   1.000  H
  C10      1.0000 0.01530  0.66330  0.38770  Biso   1.000  C
  C11      1.0000 0.03250  0.62930  0.40820  Biso   1.000  C
  H6       1.0000 0.01270  0.59260  0.39530  Biso   1.000  H
  C12      1.0000 0.07960  0.64750  0.44880  Biso   1.000  C
  H7       1.0000 0.09160  0.62320  0.46090  Biso   1.000  H
  C13      1.0000 0.96570  0.64260  0.33840  Biso   1.000  C
  I2       1.0000 0.40252  0.63105  0.42381  Biso   1.000  I
  Cu2      1.0000 0.31307  0.60453  0.49809  Biso   1.000  Cu
  O5       1.0000 0.16350  0.37860  0.67600  Biso   1.000  O
  O6       1.0000 0.16580  0.46000  0.67910  Biso   1.000  O
  O7       1.0000 0.32300  0.27480  0.32040  Biso   1.000  O
  O8       1.0000 0.40560  0.35250  0.31970  Biso   1.000  O
  N2       1.0000 0.28400  0.52630  0.52900  Biso   1.000  N
  C14      1.0000 0.24700  0.50370  0.58170  Biso   1.000  C
  H8       1.0000 0.23790  0.52630  0.60700  Biso   1.000  H
  C15      1.0000 0.22220  0.44860  0.59950  Biso   1.000  C
  C16      1.0000 0.23880  0.41530  0.56380  Biso   1.000  C
  H9       1.0000 0.22290  0.37810  0.57420  Biso   1.000  H
  C17      1.0000 0.27700  0.43780  0.51580  Biso   1.000  C
  C18      1.0000 0.29720  0.49180  0.49480  Biso   1.000  C
  H10      1.0000 0.32040  0.50490  0.45640  Biso   1.000  H
  C19      1.0000 0.17980  0.42540  0.65580  Biso   1.000  C
  C20      1.0000 0.29800  0.40700  0.47160  Biso   1.000  C
  C21      1.0000 0.26380  0.35300  0.45220  Biso   1.000  C
  H11      1.0000 0.22760  0.33440  0.46760  Biso   1.000  H
  C22      1.0000 0.28330  0.32620  0.40970  Biso   1.000  C
  H12      1.0000 0.25960  0.29010  0.39610  Biso   1.000  H
  C23      1.0000 0.33670  0.35200  0.38770  Biso   1.000  C
  C24      1.0000 0.37070  0.40320  0.40820  Biso   1.000  C
  H13      1.0000 0.40740  0.42010  0.39530  Biso   1.000  H
  C25      1.0000 0.35250  0.43210  0.44880  Biso   1.000  C
  H14      1.0000 0.37680  0.46840  0.46090  Biso   1.000  H
  C26      1.0000 0.35740  0.32310  0.33840  Biso   1.000  C
  I3       1.0000 0.36895  0.77147  0.42381  Biso   1.000  I
  Cu3      1.0000 0.39547  0.70854  0.49809  Biso   1.000  Cu
  O9       1.0000 0.62140  0.78490  0.67600  Biso   1.000  O
  O10      1.0000 0.54000  0.70580  0.67910  Biso   1.000  O
  O11      1.0000 0.72520  0.04820  0.32040  Biso   1.000  O
  O12      1.0000 0.64750  0.05310  0.31970  Biso   1.000  O
  N3       1.0000 0.47370  0.75770  0.52900  Biso   1.000  N
  C27      1.0000 0.49630  0.74330  0.58170  Biso   1.000  C
  H15      1.0000 0.47370  0.71160  0.60700  Biso   1.000  H
  C28      1.0000 0.55140  0.77360  0.59950  Biso   1.000  C
  C29      1.0000 0.58470  0.82350  0.56380  Biso   1.000  C
  H16      1.0000 0.62190  0.84480  0.57420  Biso   1.000  H
  C30      1.0000 0.56220  0.83920  0.51580  Biso   1.000  C
  C31      1.0000 0.50820  0.80540  0.49480  Biso   1.000  C
  H17      1.0000 0.49510  0.81550  0.45640  Biso   1.000  H
  C32      1.0000 0.57460  0.75440  0.65580  Biso   1.000  C
  C33      1.0000 0.59300  0.89100  0.47160  Biso   1.000  C
  C34      1.0000 0.64700  0.91080  0.45220  Biso   1.000  C
  H18      1.0000 0.66560  0.89320  0.46760  Biso   1.000  H
  C35      1.0000 0.67380  0.95710  0.40970  Biso   1.000  C
  H19      1.0000 0.70990  0.96950  0.39610  Biso   1.000  H
  C36      1.0000 0.64800  0.98470  0.38770  Biso   1.000  C
  C37      1.0000 0.59680  0.96750  0.40820  Biso   1.000  C
  H20      1.0000 0.57990  0.98730  0.39530  Biso   1.000  H
  C38      1.0000 0.56790  0.92040  0.44880  Biso   1.000  C
  H21      1.0000 0.53160  0.90840  0.46090  Biso   1.000  H
  C39      1.0000 0.67690  0.03430  0.33840  Biso   1.000  C
  I4       1.0000 0.77147  0.40252  0.92381  Biso   1.000  I
  Cu4      1.0000 0.70854  0.31307  0.99809  Biso   1.000  Cu
  O13      1.0000 0.78490  0.16350  0.17600  Biso   1.000  O
  O14      1.0000 0.70580  0.16580  0.17910  Biso   1.000  O
  O15      1.0000 0.04820  0.32300  0.82040  Biso   1.000  O
  O16      1.0000 0.05310  0.40560  0.81970  Biso   1.000  O
  N4       1.0000 0.75770  0.28400  0.02900  Biso   1.000  N
  C40      1.0000 0.74330  0.24700  0.08170  Biso   1.000  C
  H22      1.0000 0.71160  0.23790  0.10700  Biso   1.000  H
  C41      1.0000 0.77360  0.22220  0.09950  Biso   1.000  C
  C42      1.0000 0.82350  0.23880  0.06380  Biso   1.000  C
  H23      1.0000 0.84480  0.22290  0.07420  Biso   1.000  H
  C43      1.0000 0.83920  0.27700  0.01580  Biso   1.000  C
  C44      1.0000 0.80540  0.29720  0.99480  Biso   1.000  C
  H24      1.0000 0.81550  0.32040  0.95640  Biso   1.000  H
  C45      1.0000 0.75440  0.17980  0.15580  Biso   1.000  C
  C46      1.0000 0.89100  0.29800  0.97160  Biso   1.000  C
  C47      1.0000 0.91080  0.26380  0.95220  Biso   1.000  C
  H25      1.0000 0.89320  0.22760  0.96760  Biso   1.000  H
  C48      1.0000 0.95710  0.28330  0.90970  Biso   1.000  C
  H26      1.0000 0.96950  0.25960  0.89610  Biso   1.000  H
  C49      1.0000 0.98470  0.33670  0.88770  Biso   1.000  C
  C50      1.0000 0.96750  0.37070  0.90820  Biso   1.000  C
  H27      1.0000 0.98730  0.40740  0.89530  Biso   1.000  H
  C51      1.0000 0.92040  0.35250  0.94880  Biso   1.000  C
  H28      1.0000 0.90840  0.37680  0.96090  Biso   1.000  H
  C52      1.0000 0.03430  0.35740  0.83840  Biso   1.000  C
  I5       1.0000 0.59748  0.36895  0.92381  Biso   1.000  I
  Cu5      1.0000 0.68693  0.39547  0.99809  Biso   1.000  Cu
  O17      1.0000 0.83650  0.62140  0.17600  Biso   1.000  O
  O18      1.0000 0.83420  0.54000  0.17910  Biso   1.000  O
  O19      1.0000 0.67700  0.72520  0.82040  Biso   1.000  O
  O20      1.0000 0.59440  0.64750  0.81970  Biso   1.000  O
  N5       1.0000 0.71600  0.47370  0.02900  Biso   1.000  N
  C53      1.0000 0.75300  0.49630  0.08170  Biso   1.000  C
  H29      1.0000 0.76210  0.47370  0.10700  Biso   1.000  H
  C54      1.0000 0.77780  0.55140  0.09950  Biso   1.000  C
  C55      1.0000 0.76120  0.58470  0.06380  Biso   1.000  C
  H30      1.0000 0.77710  0.62190  0.07420  Biso   1.000  H
  C56      1.0000 0.72300  0.56220  0.01580  Biso   1.000  C
  C57      1.0000 0.70280  0.50820  0.99480  Biso   1.000  C
  H31      1.0000 0.67960  0.49510  0.95640  Biso   1.000  H
  C58      1.0000 0.82020  0.57460  0.15580  Biso   1.000  C
  C59      1.0000 0.70200  0.59300  0.97160  Biso   1.000  C
  C60      1.0000 0.73620  0.64700  0.95220  Biso   1.000  C
  H32      1.0000 0.77240  0.66560  0.96760  Biso   1.000  H
  C61      1.0000 0.71670  0.67380  0.90970  Biso   1.000  C
  H33      1.0000 0.74040  0.70990  0.89610  Biso   1.000  H
  C62      1.0000 0.66330  0.64800  0.88770  Biso   1.000  C
  C63      1.0000 0.62930  0.59680  0.90820  Biso   1.000  C
  H34      1.0000 0.59260  0.57990  0.89530  Biso   1.000  H
  C64      1.0000 0.64750  0.56790  0.94880  Biso   1.000  C
  H35      1.0000 0.62320  0.53160  0.96090  Biso   1.000  H
  C65      1.0000 0.64260  0.67690  0.83840  Biso   1.000  C
  I6       1.0000 0.63105  0.22853  0.92381  Biso   1.000  I
  Cu6      1.0000 0.60453  0.29146  0.99809  Biso   1.000  Cu
  O21      1.0000 0.37860  0.21510  0.17600  Biso   1.000  O
  O22      1.0000 0.46000  0.29420  0.17910  Biso   1.000  O
  O23      1.0000 0.27480  0.95180  0.82040  Biso   1.000  O
  O24      1.0000 0.35250  0.94690  0.81970  Biso   1.000  O
  N6       1.0000 0.52630  0.24230  0.02900  Biso   1.000  N
  C66      1.0000 0.50370  0.25670  0.08170  Biso   1.000  C
  H36      1.0000 0.52630  0.28840  0.10700  Biso   1.000  H
  C67      1.0000 0.44860  0.22640  0.09950  Biso   1.000  C
  C68      1.0000 0.41530  0.17650  0.06380  Biso   1.000  C
  H37      1.0000 0.37810  0.15520  0.07420  Biso   1.000  H
  C69      1.0000 0.43780  0.16080  0.01580  Biso   1.000  C
  C70      1.0000 0.49180  0.19460  0.99480  Biso   1.000  C
  H38      1.0000 0.50490  0.18450  0.95640  Biso   1.000  H
  C71      1.0000 0.42540  0.24560  0.15580  Biso   1.000  C
  C72      1.0000 0.40700  0.10900  0.97160  Biso   1.000  C
  C73      1.0000 0.35300  0.08920  0.95220  Biso   1.000  C
  H39      1.0000 0.33440  0.10680  0.96760  Biso   1.000  H
  C74      1.0000 0.32620  0.04290  0.90970  Biso   1.000  C
  H40      1.0000 0.29010  0.03050  0.89610  Biso   1.000  H
  C75      1.0000 0.35200  0.01530  0.88770  Biso   1.000  C
  C76      1.0000 0.40320  0.03250  0.90820  Biso   1.000  C
  H41      1.0000 0.42010  0.01270  0.89530  Biso   1.000  H
  C77      1.0000 0.43210  0.07960  0.94880  Biso   1.000  C
  H42      1.0000 0.46840  0.09160  0.96090  Biso   1.000  H
  C78      1.0000 0.32310  0.96570  0.83840  Biso   1.000  C
  I7       1.0000 0.77147  0.40252  0.57619  Biso   1.000  I
  Cu7      1.0000 0.70854  0.31307  0.50191  Biso   1.000  Cu
  O25      1.0000 0.78490  0.16350  0.32400  Biso   1.000  O
  O26      1.0000 0.70580  0.16580  0.32090  Biso   1.000  O
  O27      1.0000 0.04820  0.32300  0.67960  Biso   1.000  O
  O28      1.0000 0.05310  0.40560  0.68030  Biso   1.000  O
  N7       1.0000 0.75770  0.28400  0.47100  Biso   1.000  N
  C79      1.0000 0.74330  0.24700  0.41830  Biso   1.000  C
  H43      1.0000 0.71160  0.23790  0.39300  Biso   1.000  H
  C80      1.0000 0.77360  0.22220  0.40050  Biso   1.000  C
  C81      1.0000 0.82350  0.23880  0.43620  Biso   1.000  C
  H44      1.0000 0.84480  0.22290  0.42580  Biso   1.000  H
  C82      1.0000 0.83920  0.27700  0.48420  Biso   1.000  C
  C83      1.0000 0.80540  0.29720  0.50520  Biso   1.000  C
  H45      1.0000 0.81550  0.32040  0.54360  Biso   1.000  H
  C84      1.0000 0.75440  0.17980  0.34420  Biso   1.000  C
  C85      1.0000 0.89100  0.29800  0.52840  Biso   1.000  C
  C86      1.0000 0.91080  0.26380  0.54780  Biso   1.000  C
  H46      1.0000 0.89320  0.22760  0.53240  Biso   1.000  H
  C87      1.0000 0.95710  0.28330  0.59030  Biso   1.000  C
  H47      1.0000 0.96950  0.25960  0.60390  Biso   1.000  H
  C88      1.0000 0.98470  0.33670  0.61230  Biso   1.000  C
  C89      1.0000 0.96750  0.37070  0.59180  Biso   1.000  C
  H48      1.0000 0.98730  0.40740  0.60470  Biso   1.000  H
  C90      1.0000 0.92040  0.35250  0.55120  Biso   1.000  C
  H49      1.0000 0.90840  0.37680  0.53910  Biso   1.000  H
  C91      1.0000 0.03430  0.35740  0.66160  Biso   1.000  C
  I8       1.0000 0.59748  0.36895  0.57619  Biso   1.000  I
  Cu8      1.0000 0.68693  0.39547  0.50191  Biso   1.000  Cu
  O29      1.0000 0.83650  0.62140  0.32400  Biso   1.000  O
  O30      1.0000 0.83420  0.54000  0.32090  Biso   1.000  O
  O31      1.0000 0.67700  0.72520  0.67960  Biso   1.000  O
  O32      1.0000 0.59440  0.64750  0.68030  Biso   1.000  O
  N8       1.0000 0.71600  0.47370  0.47100  Biso   1.000  N
  C92      1.0000 0.75300  0.49630  0.41830  Biso   1.000  C
  H50      1.0000 0.76210  0.47370  0.39300  Biso   1.000  H
  C93      1.0000 0.77780  0.55140  0.40050  Biso   1.000  C
  C94      1.0000 0.76120  0.58470  0.43620  Biso   1.000  C
  H51      1.0000 0.77710  0.62190  0.42580  Biso   1.000  H
  C95      1.0000 0.72300  0.56220  0.48420  Biso   1.000  C
  C96      1.0000 0.70280  0.50820  0.50520  Biso   1.000  C
  H52      1.0000 0.67960  0.49510  0.54360  Biso   1.000  H
  C97      1.0000 0.82020  0.57460  0.34420  Biso   1.000  C
  C98      1.0000 0.70200  0.59300  0.52840  Biso   1.000  C
  C99      1.0000 0.73620  0.64700  0.54780  Biso   1.000  C
  H53      1.0000 0.77240  0.66560  0.53240  Biso   1.000  H
  C100     1.0000 0.71670  0.67380  0.59030  Biso   1.000  C
  H54      1.0000 0.74040  0.70990  0.60390  Biso   1.000  H
  C101     1.0000 0.66330  0.64800  0.61230  Biso   1.000  C
  C102     1.0000 0.62930  0.59680  0.59180  Biso   1.000  C
  H55      1.0000 0.59260  0.57990  0.60470  Biso   1.000  H
  C103     1.0000 0.64750  0.56790  0.55120  Biso   1.000  C
  H56      1.0000 0.62320  0.53160  0.53910  Biso   1.000  H
  C104     1.0000 0.64260  0.67690  0.66160  Biso   1.000  C
  I9       1.0000 0.63105  0.22853  0.57619  Biso   1.000  I
  Cu9      1.0000 0.60453  0.29146  0.50191  Biso   1.000  Cu
  O33      1.0000 0.37860  0.21510  0.32400  Biso   1.000  O
  O34      1.0000 0.46000  0.29420  0.32090  Biso   1.000  O
  O35      1.0000 0.27480  0.95180  0.67960  Biso   1.000  O
  O36      1.0000 0.35250  0.94690  0.68030  Biso   1.000  O
  N9       1.0000 0.52630  0.24230  0.47100  Biso   1.000  N
  C105     1.0000 0.50370  0.25670  0.41830  Biso   1.000  C
  H57      1.0000 0.52630  0.28840  0.39300  Biso   1.000  H
  C106     1.0000 0.44860  0.22640  0.40050  Biso   1.000  C
  C107     1.0000 0.41530  0.17650  0.43620  Biso   1.000  C
  H58      1.0000 0.37810  0.15520  0.42580  Biso   1.000  H
  C108     1.0000 0.43780  0.16080  0.48420  Biso   1.000  C
  C109     1.0000 0.49180  0.19460  0.50520  Biso   1.000  C
  H59      1.0000 0.50490  0.18450  0.54360  Biso   1.000  H
  C110     1.0000 0.42540  0.24560  0.34420  Biso   1.000  C
  C111     1.0000 0.40700  0.10900  0.52840  Biso   1.000  C
  C112     1.0000 0.35300  0.08920  0.54780  Biso   1.000  C
  H60      1.0000 0.33440  0.10680  0.53240  Biso   1.000  H
  C113     1.0000 0.32620  0.04290  0.59030  Biso   1.000  C
  H61      1.0000 0.29010  0.03050  0.60390  Biso   1.000  H
  C114     1.0000 0.35200  0.01530  0.61230  Biso   1.000  C
  C115     1.0000 0.40320  0.03250  0.59180  Biso   1.000  C
  H62      1.0000 0.42010  0.01270  0.60470  Biso   1.000  H
  C116     1.0000 0.43210  0.07960  0.55120  Biso   1.000  C
  H63      1.0000 0.46840  0.09160  0.53910  Biso   1.000  H
  C117     1.0000 0.32310  0.96570  0.66160  Biso   1.000  C
  I10      1.0000 0.22853  0.59748  0.07619  Biso   1.000  I
  Cu10     1.0000 0.29146  0.68693  0.00191  Biso   1.000  Cu
  O37      1.0000 0.21510  0.83650  0.82400  Biso   1.000  O
  O38      1.0000 0.29420  0.83420  0.82090  Biso   1.000  O
  O39      1.0000 0.95180  0.67700  0.17960  Biso   1.000  O
  O40      1.0000 0.94690  0.59440  0.18030  Biso   1.000  O
  N10      1.0000 0.24230  0.71600  0.97100  Biso   1.000  N
  C118     1.0000 0.25670  0.75300  0.91830  Biso   1.000  C
  H64      1.0000 0.28840  0.76210  0.89300  Biso   1.000  H
  C119     1.0000 0.22640  0.77780  0.90050  Biso   1.000  C
  C120     1.0000 0.17650  0.76120  0.93620  Biso   1.000  C
  H65      1.0000 0.15520  0.77710  0.92580  Biso   1.000  H
  C121     1.0000 0.16080  0.72300  0.98420  Biso   1.000  C
  C122     1.0000 0.19460  0.70280  0.00520  Biso   1.000  C
  H66      1.0000 0.18450  0.67960  0.04360  Biso   1.000  H
  C123     1.0000 0.24560  0.82020  0.84420  Biso   1.000  C
  C124     1.0000 0.10900  0.70200  0.02840  Biso   1.000  C
  C125     1.0000 0.08920  0.73620  0.04780  Biso   1.000  C
  H67      1.0000 0.10680  0.77240  0.03240  Biso   1.000  H
  C126     1.0000 0.04290  0.71670  0.09030  Biso   1.000  C
  H68      1.0000 0.03050  0.74040  0.10390  Biso   1.000  H
  C127     1.0000 0.01530  0.66330  0.11230  Biso   1.000  C
  C128     1.0000 0.03250  0.62930  0.09180  Biso   1.000  C
  H69      1.0000 0.01270  0.59260  0.10470  Biso   1.000  H
  C129     1.0000 0.07960  0.64750  0.05120  Biso   1.000  C
  H70      1.0000 0.09160  0.62320  0.03910  Biso   1.000  H
  C130     1.0000 0.96570  0.64260  0.16160  Biso   1.000  C
  I11      1.0000 0.40252  0.63105  0.07619  Biso   1.000  I
  Cu11     1.0000 0.31307  0.60453  0.00191  Biso   1.000  Cu
  O41      1.0000 0.16350  0.37860  0.82400  Biso   1.000  O
  O42      1.0000 0.16580  0.46000  0.82090  Biso   1.000  O
  O43      1.0000 0.32300  0.27480  0.17960  Biso   1.000  O
  O44      1.0000 0.40560  0.35250  0.18030  Biso   1.000  O
  N11      1.0000 0.28400  0.52630  0.97100  Biso   1.000  N
  C131     1.0000 0.24700  0.50370  0.91830  Biso   1.000  C
  H71      1.0000 0.23790  0.52630  0.89300  Biso   1.000  H
  C132     1.0000 0.22220  0.44860  0.90050  Biso   1.000  C
  C133     1.0000 0.23880  0.41530  0.93620  Biso   1.000  C
  H72      1.0000 0.22290  0.37810  0.92580  Biso   1.000  H
  C134     1.0000 0.27700  0.43780  0.98420  Biso   1.000  C
  C135     1.0000 0.29720  0.49180  0.00520  Biso   1.000  C
  H73      1.0000 0.32040  0.50490  0.04360  Biso   1.000  H
  C136     1.0000 0.17980  0.42540  0.84420  Biso   1.000  C
  C137     1.0000 0.29800  0.40700  0.02840  Biso   1.000  C
  C138     1.0000 0.26380  0.35300  0.04780  Biso   1.000  C
  H74      1.0000 0.22760  0.33440  0.03240  Biso   1.000  H
  C139     1.0000 0.28330  0.32620  0.09030  Biso   1.000  C
  H75      1.0000 0.25960  0.29010  0.10390  Biso   1.000  H
  C140     1.0000 0.33670  0.35200  0.11230  Biso   1.000  C
  C141     1.0000 0.37070  0.40320  0.09180  Biso   1.000  C
  H76      1.0000 0.40740  0.42010  0.10470  Biso   1.000  H
  C142     1.0000 0.35250  0.43210  0.05120  Biso   1.000  C
  H77      1.0000 0.37680  0.46840  0.03910  Biso   1.000  H
  C143     1.0000 0.35740  0.32310  0.16160  Biso   1.000  C
  I12      1.0000 0.36895  0.77147  0.07619  Biso   1.000  I
  Cu12     1.0000 0.39547  0.70854  0.00191  Biso   1.000  Cu
  O45      1.0000 0.62140  0.78490  0.82400  Biso   1.000  O
  O46      1.0000 0.54000  0.70580  0.82090  Biso   1.000  O
  O47      1.0000 0.72520  0.04820  0.17960  Biso   1.000  O
  O48      1.0000 0.64750  0.05310  0.18030  Biso   1.000  O
  N12      1.0000 0.47370  0.75770  0.97100  Biso   1.000  N
  C144     1.0000 0.49630  0.74330  0.91830  Biso   1.000  C
  H78      1.0000 0.47370  0.71160  0.89300  Biso   1.000  H
  C145     1.0000 0.55140  0.77360  0.90050  Biso   1.000  C
  C146     1.0000 0.58470  0.82350  0.93620  Biso   1.000  C
  H79      1.0000 0.62190  0.84480  0.92580  Biso   1.000  H
  C147     1.0000 0.56220  0.83920  0.98420  Biso   1.000  C
  C148     1.0000 0.50820  0.80540  0.00520  Biso   1.000  C
  H80      1.0000 0.49510  0.81550  0.04360  Biso   1.000  H
  C149     1.0000 0.57460  0.75440  0.84420  Biso   1.000  C
  C150     1.0000 0.59300  0.89100  0.02840  Biso   1.000  C
  C151     1.0000 0.64700  0.91080  0.04780  Biso   1.000  C
  H81      1.0000 0.66560  0.89320  0.03240  Biso   1.000  H
  C152     1.0000 0.67380  0.95710  0.09030  Biso   1.000  C
  H82      1.0000 0.70990  0.96950  0.10390  Biso   1.000  H
  C153     1.0000 0.64800  0.98470  0.11230  Biso   1.000  C
  C154     1.0000 0.59680  0.96750  0.09180  Biso   1.000  C
  H83      1.0000 0.57990  0.98730  0.10470  Biso   1.000  H
  C155     1.0000 0.56790  0.92040  0.05120  Biso   1.000  C
  H84      1.0000 0.53160  0.90840  0.03910  Biso   1.000  H
  C156     1.0000 0.67690  0.03430  0.16160  Biso   1.000  C
  I13      1.0000 0.33333  0.66667  0.61259  Biso   1.000  I
  Cu13     1.0000 0.33333  0.66667  0.37955  Biso   1.000  Cu
  I14      1.0000 0.66667  0.33333  0.11259  Biso   1.000  I
  Cu14     1.0000 0.66667  0.33333  0.87955  Biso   1.000  Cu
  I15      1.0000 0.66667  0.33333  0.38741  Biso   1.000  I
  Cu15     1.0000 0.66667  0.33333  0.62045  Biso   1.000  Cu
  I16      1.0000 0.33333  0.66667  0.88741  Biso   1.000  I
  Cu16     1.0000 0.33333  0.66667  0.12045  Biso   1.000  Cu
  Cu17     1.0000 0.23797  0.89432  0.75000  Biso   1.000  Cu
  Cu18     1.0000 0.32995  0.89004  0.75000  Biso   1.000  Cu
  Cu19     1.0000 0.10568  0.34365  0.75000  Biso   1.000  Cu
  Cu20     1.0000 0.10996  0.43991  0.75000  Biso   1.000  Cu
  Cu21     1.0000 0.65635  0.76203  0.75000  Biso   1.000  Cu
  Cu22     1.0000 0.56009  0.67005  0.75000  Biso   1.000  Cu
  Cu23     1.0000 0.76203  0.10568  0.25000  Biso   1.000  Cu
  Cu24     1.0000 0.67005  0.10996  0.25000  Biso   1.000  Cu
  Cu25     1.0000 0.89432  0.65635  0.25000  Biso   1.000  Cu
  Cu26     1.0000 0.89004  0.56009  0.25000  Biso   1.000  Cu
  Cu27     1.0000 0.34365  0.23797  0.25000  Biso   1.000  Cu
  Cu28     1.0000 0.43991  0.32995  0.25000  Biso   1.000  Cu
