data_image0
_cell_length_a       12.975
_cell_length_b       13.06
_cell_length_c       22.382
_cell_angle_alpha    95.776
_cell_angle_beta     92.004
_cell_angle_gamma    112.678

_symmetry_space_group_name_H-M    "P 1"
_symmetry_int_tables_number       1

loop_
  _symmetry_equiv_pos_as_xyz
  'x, y, z'

loop_
  _atom_site_label
  _atom_site_occupancy
  _atom_site_fract_x
  _atom_site_fract_y
  _atom_site_fract_z
  _atom_site_thermal_displace_type
  _atom_site_B_iso_or_equiv
  _atom_site_type_symbol
  Zn1      1.0000 0.86002  0.76082  0.29949  Biso   1.000  Zn
  Zn2      1.0000 0.85366  0.71572  0.16722  Biso   1.000  Zn
  O1       1.0000 0.88880  0.92270  0.28927  Biso   1.000  O
  C1       1.0000 0.88150  0.94340  0.23563  Biso   1.000  C
  O2       1.0000 0.88070  0.88070  0.18980  Biso   1.000  O
  O3       1.0000 0.02220  0.78630  0.28874  Biso   1.000  O
  C2       1.0000 0.06240  0.76570  0.24116  Biso   1.000  C
  O4       1.0000 0.01850  0.75320  0.18854  Biso   1.000  O
  O5       1.0000 0.82580  0.59440  0.28133  Biso   1.000  O
  C3       1.0000 0.82710  0.53330  0.23470  Biso   1.000  C
  O6       1.0000 0.82780  0.55770  0.18192  Biso   1.000  O
  O7       1.0000 0.69790  0.72650  0.27369  Biso   1.000  O
  C4       1.0000 0.64830  0.70140  0.22169  Biso   1.000  C
  O8       1.0000 0.68870  0.68190  0.17374  Biso   1.000  O
  N1       1.0000 0.86100  0.76540  0.39080  Biso   1.000  N
  C5       1.0000 0.77650  0.69050  0.41539  Biso   1.000  C
  H1       1.0000 0.71640  0.63660  0.38950  Biso   1.000  H
  C6       1.0000 0.77260  0.68790  0.47715  Biso   1.000  C
  H2       1.0000 0.71060  0.63460  0.49340  Biso   1.000  H
  C7       1.0000 0.86180  0.76550  0.51430  Biso   1.000  C
  C8       1.0000 0.95000  0.84260  0.48912  Biso   1.000  C
  H3       1.0000 0.01220  0.89600  0.51390  Biso   1.000  H
  C9       1.0000 0.94580  0.84060  0.42727  Biso   1.000  C
  H4       1.0000 0.00550  0.89470  0.41000  Biso   1.000  H
  N2       1.0000 0.86300  0.76360  0.57840  Biso   1.000  N
  C10      1.0000 0.85180  0.85350  0.61374  Biso   1.000  C
  C11      1.0000 0.85080  0.84810  0.67938  Biso   1.000  C
  C12      1.0000 0.84480  0.93530  0.71671  Biso   1.000  C
  H5       1.0000 0.84040  0.99780  0.70010  Biso   1.000  H
  C13      1.0000 0.84520  0.93270  0.77953  Biso   1.000  C
  H6       1.0000 0.84160  0.99360  0.80520  Biso   1.000  H
  C14      1.0000 0.85070  0.84140  0.80374  Biso   1.000  C
  C15      1.0000 0.85330  0.84110  0.86974  Biso   1.000  C
  N3       1.0000 0.85720  0.74420  0.89097  Biso   1.000  N
  C16      1.0000 0.86340  0.65180  0.85539  Biso   1.000  C
  C17      1.0000 0.86260  0.65660  0.78937  Biso   1.000  C
  C18      1.0000 0.86880  0.56870  0.75192  Biso   1.000  C
  H7       1.0000 0.87140  0.50540  0.76830  Biso   1.000  H
  C19      1.0000 0.87150  0.57330  0.68971  Biso   1.000  C
  H8       1.0000 0.87770  0.51370  0.66400  Biso   1.000  H
  C20      1.0000 0.86510  0.66450  0.66567  Biso   1.000  C
  C21      1.0000 0.87010  0.66860  0.60017  Biso   1.000  C
  C22      1.0000 0.85690  0.75380  0.70319  Biso   1.000  C
  C23      1.0000 0.85590  0.75030  0.76599  Biso   1.000  C
  O9       1.0000 0.84440  0.93010  0.59016  Biso   1.000  O
  O10      1.0000 0.85250  0.91780  0.90464  Biso   1.000  O
  O11      1.0000 0.87020  0.57490  0.87871  Biso   1.000  O
  O12      1.0000 0.88260  0.59740  0.56575  Biso   1.000  O
  C24      1.0000 0.17300  0.75440  0.24769  Biso   1.000  C
  C25      1.0000 0.23020  0.77600  0.30510  Biso   1.000  C
  H9       1.0000 0.19840  0.79700  0.33940  Biso   1.000  H
  C26      1.0000 0.33160  0.76660  0.31170  Biso   1.000  C
  H10      1.0000 0.36990  0.78200  0.35060  Biso   1.000  H
  C27      1.0000 0.37990  0.73440  0.26109  Biso   1.000  C
  C28      1.0000 0.48660  0.72900  0.26609  Biso   1.000  C
  H11      1.0000 0.52780  0.74730  0.30430  Biso   1.000  H
  C29      1.0000 0.53120  0.69760  0.21627  Biso   1.000  C
  C30      1.0000 0.46920  0.66760  0.15930  Biso   1.000  C
  H12      1.0000 0.49980  0.64470  0.12500  Biso   1.000  H
  C31      1.0000 0.36630  0.67150  0.15360  Biso   1.000  C
  H13      1.0000 0.32510  0.65010  0.11530  Biso   1.000  H
  C32      1.0000 0.31890  0.70720  0.20400  Biso   1.000  C
  C33      1.0000 0.21540  0.71890  0.19856  Biso   1.000  C
  H14      1.0000 0.17470  0.70180  0.16030  Biso   1.000  H
  C34      1.0000 0.87170  0.05190  0.22605  Biso   1.000  C
  C35      1.0000 0.86200  0.12070  0.27313  Biso   1.000  C
  H15      1.0000 0.86280  0.10060  0.31270  Biso   1.000  H
  C36      1.0000 0.85080  0.22230  0.26448  Biso   1.000  C
  C37      1.0000 0.84010  0.29410  0.31300  Biso   1.000  C
  H16      1.0000 0.83960  0.27450  0.35280  Biso   1.000  H
  C38      1.0000 0.83060  0.39230  0.30330  Biso   1.000  C
  H17      1.0000 0.82380  0.44050  0.33630  Biso   1.000  H
  C39      1.0000 0.83080  0.42200  0.24380  Biso   1.000  C
  C40      1.0000 0.84020  0.35290  0.19640  Biso   1.000  C
  H18      1.0000 0.84040  0.37380  0.15690  Biso   1.000  H
  C41      1.0000 0.84960  0.25060  0.20463  Biso   1.000  C
  C42      1.0000 0.85980  0.17820  0.15670  Biso   1.000  C
  H19      1.0000 0.85900  0.19710  0.11680  Biso   1.000  H
  C43      1.0000 0.87070  0.08100  0.16623  Biso   1.000  C
  H20      1.0000 0.87760  0.03300  0.13320  Biso   1.000  H
  N4       1.0000 0.85630  0.72370  0.07697  Biso   1.000  N
  C44      1.0000 0.77090  0.65440  0.03894  Biso   1.000  C
  H21      1.0000 0.70970  0.59930  0.05470  Biso   1.000  H
  C45      1.0000 0.76740  0.65910  0.97789  Biso   1.000  C
  H22      1.0000 0.70540  0.60840  0.95190  Biso   1.000  H
  C46      1.0000 0.85680  0.73970  0.95525  Biso   1.000  C
  C47      1.0000 0.94490  0.81180  0.99354  Biso   1.000  C
  H23      1.0000 0.00690  0.86750  0.97870  Biso   1.000  H
  C48      1.0000 0.94190  0.80170  0.05457  Biso   1.000  C
  H24      1.0000 0.00270  0.85190  0.08150  Biso   1.000  H
  Zn3      1.0000 0.13998  0.23918  0.70051  Biso   1.000  Zn
  Zn4      1.0000 0.14634  0.28428  0.83278  Biso   1.000  Zn
  O13      1.0000 0.11120  0.07730  0.71073  Biso   1.000  O
  C49      1.0000 0.11850  0.05660  0.76437  Biso   1.000  C
  O14      1.0000 0.11930  0.11930  0.81020  Biso   1.000  O
  O15      1.0000 0.97780  0.21370  0.71126  Biso   1.000  O
  C50      1.0000 0.93760  0.23430  0.75884  Biso   1.000  C
  O16      1.0000 0.98150  0.24680  0.81146  Biso   1.000  O
  O17      1.0000 0.17420  0.40560  0.71867  Biso   1.000  O
  C51      1.0000 0.17290  0.46670  0.76530  Biso   1.000  C
  O18      1.0000 0.17220  0.44230  0.81808  Biso   1.000  O
  O19      1.0000 0.30210  0.27350  0.72631  Biso   1.000  O
  C52      1.0000 0.35170  0.29860  0.77831  Biso   1.000  C
  O20      1.0000 0.31130  0.31810  0.82626  Biso   1.000  O
  N5       1.0000 0.13900  0.23460  0.60920  Biso   1.000  N
  C53      1.0000 0.22350  0.30950  0.58461  Biso   1.000  C
  H25      1.0000 0.28360  0.36340  0.61050  Biso   1.000  H
  C54      1.0000 0.22740  0.31210  0.52285  Biso   1.000  C
  H26      1.0000 0.28940  0.36540  0.50660  Biso   1.000  H
  C55      1.0000 0.13820  0.23450  0.48570  Biso   1.000  C
  C56      1.0000 0.05000  0.15740  0.51088  Biso   1.000  C
  H27      1.0000 0.98780  0.10400  0.48610  Biso   1.000  H
  C57      1.0000 0.05420  0.15940  0.57273  Biso   1.000  C
  H28      1.0000 0.99450  0.10530  0.59000  Biso   1.000  H
  N6       1.0000 0.13700  0.23640  0.42160  Biso   1.000  N
  C58      1.0000 0.14820  0.14650  0.38626  Biso   1.000  C
  C59      1.0000 0.14920  0.15190  0.32062  Biso   1.000  C
  C60      1.0000 0.15520  0.06470  0.28329  Biso   1.000  C
  H29      1.0000 0.15960  0.00220  0.29990  Biso   1.000  H
  C61      1.0000 0.15480  0.06730  0.22047  Biso   1.000  C
  H30      1.0000 0.15840  0.00640  0.19480  Biso   1.000  H
  C62      1.0000 0.14930  0.15860  0.19626  Biso   1.000  C
  C63      1.0000 0.14670  0.15890  0.13026  Biso   1.000  C
  N7       1.0000 0.14280  0.25580  0.10903  Biso   1.000  N
  C64      1.0000 0.13660  0.34820  0.14461  Biso   1.000  C
  C65      1.0000 0.13740  0.34340  0.21063  Biso   1.000  C
  C66      1.0000 0.13120  0.43130  0.24808  Biso   1.000  C
  H31      1.0000 0.12860  0.49460  0.23170  Biso   1.000  H
  C67      1.0000 0.12850  0.42670  0.31029  Biso   1.000  C
  H32      1.0000 0.12230  0.48630  0.33600  Biso   1.000  H
  C68      1.0000 0.13490  0.33550  0.33433  Biso   1.000  C
  C69      1.0000 0.12990  0.33140  0.39983  Biso   1.000  C
  C70      1.0000 0.14310  0.24620  0.29681  Biso   1.000  C
  C71      1.0000 0.14410  0.24970  0.23401  Biso   1.000  C
  O21      1.0000 0.15560  0.06990  0.40984  Biso   1.000  O
  O22      1.0000 0.14750  0.08220  0.09536  Biso   1.000  O
  O23      1.0000 0.12980  0.42510  0.12129  Biso   1.000  O
  O24      1.0000 0.11740  0.40260  0.43425  Biso   1.000  O
  C72      1.0000 0.82700  0.24560  0.75231  Biso   1.000  C
  C73      1.0000 0.76980  0.22400  0.69490  Biso   1.000  C
  H33      1.0000 0.80160  0.20300  0.66060  Biso   1.000  H
  C74      1.0000 0.66840  0.23340  0.68830  Biso   1.000  C
  H34      1.0000 0.63010  0.21800  0.64940  Biso   1.000  H
  C75      1.0000 0.62010  0.26560  0.73891  Biso   1.000  C
  C76      1.0000 0.51340  0.27100  0.73391  Biso   1.000  C
  H35      1.0000 0.47220  0.25270  0.69570  Biso   1.000  H
  C77      1.0000 0.46880  0.30240  0.78373  Biso   1.000  C
  C78      1.0000 0.53080  0.33240  0.84070  Biso   1.000  C
  H36      1.0000 0.50020  0.35530  0.87500  Biso   1.000  H
  C79      1.0000 0.63370  0.32850  0.84640  Biso   1.000  C
  H37      1.0000 0.67490  0.34990  0.88470  Biso   1.000  H
  C80      1.0000 0.68110  0.29280  0.79600  Biso   1.000  C
  C81      1.0000 0.78460  0.28110  0.80144  Biso   1.000  C
  H38      1.0000 0.82530  0.29820  0.83970  Biso   1.000  H
  C82      1.0000 0.12830  0.94810  0.77395  Biso   1.000  C
  C83      1.0000 0.13800  0.87930  0.72687  Biso   1.000  C
  H39      1.0000 0.13720  0.89940  0.68730  Biso   1.000  H
  C84      1.0000 0.14920  0.77770  0.73552  Biso   1.000  C
  C85      1.0000 0.15990  0.70590  0.68700  Biso   1.000  C
  H40      1.0000 0.16040  0.72550  0.64720  Biso   1.000  H
  C86      1.0000 0.16940  0.60770  0.69670  Biso   1.000  C
  H41      1.0000 0.17620  0.55950  0.66370  Biso   1.000  H
  C87      1.0000 0.16920  0.57800  0.75620  Biso   1.000  C
  C88      1.0000 0.15980  0.64710  0.80360  Biso   1.000  C
  H42      1.0000 0.15960  0.62620  0.84310  Biso   1.000  H
  C89      1.0000 0.15040  0.74940  0.79537  Biso   1.000  C
  C90      1.0000 0.14020  0.82180  0.84330  Biso   1.000  C
  H43      1.0000 0.14100  0.80290  0.88320  Biso   1.000  H
  C91      1.0000 0.12930  0.91900  0.83377  Biso   1.000  C
  H44      1.0000 0.12240  0.96700  0.86680  Biso   1.000  H
  N8       1.0000 0.14370  0.27630  0.92303  Biso   1.000  N
  C92      1.0000 0.22910  0.34560  0.96106  Biso   1.000  C
  H45      1.0000 0.29030  0.40070  0.94530  Biso   1.000  H
  C93      1.0000 0.23260  0.34090  0.02211  Biso   1.000  C
  H46      1.0000 0.29460  0.39160  0.04810  Biso   1.000  H
  C94      1.0000 0.14320  0.26030  0.04475  Biso   1.000  C
  C95      1.0000 0.05510  0.18820  0.00646  Biso   1.000  C
  H47      1.0000 0.99310  0.13250  0.02130  Biso   1.000  H
  C96      1.0000 0.05810  0.19830  0.94543  Biso   1.000  C
  H48      1.0000 0.99730  0.14810  0.91850  Biso   1.000  H
