data_MUNPAN_clean
_audit_creation_date              2014-07-02
_audit_creation_method            'Materials Studio'
_symmetry_space_group_name_H-M    'P1'
_symmetry_Int_Tables_number       1
_symmetry_cell_setting            triclinic
loop_
_symmetry_equiv_pos_as_xyz
  x,y,z
_cell_length_a                    13.0630
_cell_length_b                    13.1290
_cell_length_c                    22.3240
_cell_angle_alpha                 90.0000
_cell_angle_beta                  90.0000
_cell_angle_gamma                 95.1490
loop_
_atom_site_label
_atom_site_type_symbol
_atom_site_fract_x
_atom_site_fract_y
_atom_site_fract_z
_atom_site_U_iso_or_equiv
_atom_site_adp_type
_atom_site_occupancy
Zn1    Zn    0.23831   0.63069   0.20672   0.01267  Uiso   1.00
Zn2    Zn    0.21410   0.60870   0.07700   0.01267  Uiso   1.00
H1     H     0.16980   0.49170   0.30700   0.01267  Uiso   1.00
H2     H     0.16150   0.49130   0.41190   0.01267  Uiso   1.00
H3     H     0.28870   0.78530   0.41000   0.01267  Uiso   1.00
H4     H     0.29170   0.77690   0.30520   0.01267  Uiso   1.00
H5     H     0.46440   0.64660   0.59150   0.01267  Uiso   1.00
H6     H     0.46020   0.63820   0.69800   0.01267  Uiso   1.00
H7     H     0.96490   0.64260   0.69220   0.01267  Uiso   1.00
H8     H     0.96780   0.64780   0.58640   0.01267  Uiso   1.00
H9     H     0.91580   0.61220   0.25040   0.01267  Uiso   1.00
H10    H     0.74280   0.62430   0.26170   0.01267  Uiso   1.00
H11    H     0.56720   0.62890   0.21540   0.01267  Uiso   1.00
H12    H     0.53710   0.62160   0.03430   0.01267  Uiso   1.00
H13    H     0.71110   0.60660   0.02370   0.01267  Uiso   1.00
H14    H     0.88610   0.59830   0.06970   0.01267  Uiso   1.00
H15    H     0.30010   0.32110   0.24000   0.01267  Uiso   1.00
H16    H     0.31400   0.14660   0.25120   0.01267  Uiso   1.00
H17    H     0.28420   0.96820   0.21070   0.01267  Uiso   1.00
H18    H     0.18340   0.92310   0.03970   0.01267  Uiso   1.00
H19    H     0.18580   0.09780   0.02530   0.01267  Uiso   1.00
H20    H     0.20700   0.27500   0.06750   0.01267  Uiso   1.00
H21    H     0.12020   0.48420   0.97410   0.01267  Uiso   1.00
H22    H     0.11600   0.49050   0.86970   0.01267  Uiso   1.00
H23    H     0.29640   0.75840   0.87720   0.01267  Uiso   1.00
H24    H     0.29580   0.74560   0.98180   0.01267  Uiso   1.00
C1     C     0.23700   0.42490   0.14510   0.01267  Uiso   1.00
C2     C     0.03050   0.60580   0.15030   0.01267  Uiso   1.00
C3     C     0.22800   0.81590   0.13610   0.01267  Uiso   1.00
C4     C     0.42210   0.63180   0.13410   0.01267  Uiso   1.00
C5     C     0.19430   0.55140   0.32840   0.01267  Uiso   1.00
C6     C     0.18790   0.55060   0.39070   0.01267  Uiso   1.00
C7     C     0.22170   0.63970   0.42020   0.01267  Uiso   1.00
C8     C     0.26310   0.72480   0.38950   0.01267  Uiso   1.00
C9     C     0.26590   0.71840   0.32740   0.01267  Uiso   1.00
C10    C     0.31390   0.65140   0.51440   0.01267  Uiso   1.00
C11    C     0.31140   0.64680   0.58110   0.01267  Uiso   1.00
C12    C     0.40080   0.64500   0.61220   0.01267  Uiso   1.00
C13    C     0.39840   0.64090   0.67580   0.01267  Uiso   1.00
C14    C     0.30600   0.64090   0.70500   0.01267  Uiso   1.00
C15    C     0.30500   0.63430   0.77120   0.01267  Uiso   1.00
C16    C     0.20870   0.63200   0.79940   0.01267  Uiso   1.00
C17    C     0.11280   0.63300   0.76930   0.01267  Uiso   1.00
C18    C     0.11780   0.64170   0.70310   0.01267  Uiso   1.00
C19    C     0.02850   0.64320   0.67150   0.01267  Uiso   1.00
C20    C     0.02990   0.64580   0.60830   0.01267  Uiso   1.00
C21    C     0.12170   0.64540   0.57880   0.01267  Uiso   1.00
C22    C     0.12150   0.64040   0.51220   0.01267  Uiso   1.00
C23    C     0.21510   0.64670   0.61030   0.01267  Uiso   1.00
C24    C     0.21370   0.64220   0.67380   0.01267  Uiso   1.00
C25    C     0.91600   0.60610   0.15850   0.01267  Uiso   1.00
C26    C     0.87290   0.61240   0.21610   0.01267  Uiso   1.00
C27    C     0.77070   0.61870   0.22270   0.01267  Uiso   1.00
C28    C     0.70380   0.61690   0.17160   0.01267  Uiso   1.00
C29    C     0.59700   0.62430   0.17680   0.01267  Uiso   1.00
C30    C     0.53580   0.62500   0.12710   0.01267  Uiso   1.00
C31    C     0.57950   0.61970   0.06870   0.01267  Uiso   1.00
C32    C     0.68260   0.61170   0.06260   0.01267  Uiso   1.00
C33    C     0.74720   0.61100   0.11280   0.01267  Uiso   1.00
C34    C     0.85560   0.60420   0.10800   0.01267  Uiso   1.00
C35    C     0.25040   0.31260   0.15200   0.01267  Uiso   1.00
C36    C     0.28310   0.27540   0.20780   0.01267  Uiso   1.00
C37    C     0.28970   0.17200   0.21450   0.01267  Uiso   1.00
C38    C     0.26080   0.10270   0.16710   0.01267  Uiso   1.00
C39    C     0.26180   0.99510   0.17400   0.01267  Uiso   1.00
C40    C     0.23100   0.92970   0.12820   0.01267  Uiso   1.00
C41    C     0.20260   0.96870   0.07160   0.01267  Uiso   1.00
C42    C     0.20320   0.07190   0.06340   0.01267  Uiso   1.00
C43    C     0.22970   0.14140   0.11140   0.01267  Uiso   1.00
C44    C     0.22630   0.24790   0.10490   0.01267  Uiso   1.00
C45    C     0.15640   0.54010   0.95390   0.01267  Uiso   1.00
C46    C     0.15370   0.54280   0.89210   0.01267  Uiso   1.00
C47    C     0.20800   0.62510   0.86370   0.01267  Uiso   1.00
C48    C     0.26040   0.70150   0.89650   0.01267  Uiso   1.00
C49    C     0.25954   0.69356   0.95856   0.01267  Uiso   1.00
N1     N     0.23360   0.63300   0.29770   0.01267  Uiso   1.00
N2     N     0.21910   0.64150   0.48570   0.01267  Uiso   1.00
N3     N     0.20820   0.61340   0.98640   0.01267  Uiso   1.00
O1     O     0.23750   0.47690   0.19290   0.01267  Uiso   1.00
O2     O     0.22600   0.45960   0.09350   0.01267  Uiso   1.00
O3     O     0.08430   0.62010   0.19720   0.01267  Uiso   1.00
O4     O     0.06330   0.59230   0.09890   0.01267  Uiso   1.00
O5     O     0.24280   0.78320   0.18800   0.01267  Uiso   1.00
O6     O     0.21140   0.76210   0.09030   0.01267  Uiso   1.00
O7     O     0.38910   0.63850   0.18570   0.01267  Uiso   1.00
O8     O     0.37030   0.63070   0.08710   0.01267  Uiso   1.00
O9     O     0.39430   0.65700   0.48620   0.01267  Uiso   1.00
O10    O     0.38270   0.63280   0.80120   0.01267  Uiso   1.00
O11    O     0.03280   0.62950   0.79740   0.01267  Uiso   1.00
O12    O     0.04460   0.63650   0.48210   0.01267  Uiso   1.00
Zn3    Zn    0.76169   0.36931   0.70672   0.01267  Uiso   1.00
Zn4    Zn    0.78590   0.39130   0.57700   0.01267  Uiso   1.00
H25    H     0.83020   0.50830   0.80700   0.01267  Uiso   1.00
H26    H     0.83850   0.50870   0.91190   0.01267  Uiso   1.00
H27    H     0.71130   0.21470   0.91000   0.01267  Uiso   1.00
H28    H     0.70830   0.22310   0.80520   0.01267  Uiso   1.00
H29    H     0.53560   0.35340   0.09150   0.01267  Uiso   1.00
H30    H     0.53980   0.36180   0.19800   0.01267  Uiso   1.00
H31    H     0.03510   0.35740   0.19220   0.01267  Uiso   1.00
H32    H     0.03220   0.35220   0.08640   0.01267  Uiso   1.00
H33    H     0.08420   0.38780   0.75040   0.01267  Uiso   1.00
H34    H     0.25720   0.37570   0.76170   0.01267  Uiso   1.00
H35    H     0.43280   0.37110   0.71540   0.01267  Uiso   1.00
H36    H     0.46290   0.37840   0.53430   0.01267  Uiso   1.00
H37    H     0.28890   0.39340   0.52370   0.01267  Uiso   1.00
H38    H     0.11390   0.40170   0.56970   0.01267  Uiso   1.00
H39    H     0.69990   0.67890   0.74000   0.01267  Uiso   1.00
H40    H     0.68600   0.85340   0.75120   0.01267  Uiso   1.00
H41    H     0.71580   0.03180   0.71070   0.01267  Uiso   1.00
H42    H     0.81660   0.07690   0.53970   0.01267  Uiso   1.00
H43    H     0.81420   0.90220   0.52530   0.01267  Uiso   1.00
H44    H     0.79300   0.72500   0.56750   0.01267  Uiso   1.00
H45    H     0.87980   0.51580   0.47410   0.01267  Uiso   1.00
H46    H     0.88400   0.50950   0.36970   0.01267  Uiso   1.00
H47    H     0.70360   0.24160   0.37720   0.01267  Uiso   1.00
H48    H     0.70420   0.25440   0.48180   0.01267  Uiso   1.00
C50    C     0.76300   0.57510   0.64510   0.01267  Uiso   1.00
C51    C     0.96950   0.39420   0.65030   0.01267  Uiso   1.00
C52    C     0.77200   0.18410   0.63610   0.01267  Uiso   1.00
C53    C     0.57790   0.36820   0.63410   0.01267  Uiso   1.00
C54    C     0.80570   0.44860   0.82840   0.01267  Uiso   1.00
C55    C     0.81210   0.44940   0.89070   0.01267  Uiso   1.00
C56    C     0.77830   0.36030   0.92020   0.01267  Uiso   1.00
C57    C     0.73690   0.27520   0.88950   0.01267  Uiso   1.00
C58    C     0.73410   0.28160   0.82740   0.01267  Uiso   1.00
C59    C     0.68610   0.34860   0.01440   0.01267  Uiso   1.00
C60    C     0.68860   0.35320   0.08110   0.01267  Uiso   1.00
C61    C     0.59920   0.35500   0.11220   0.01267  Uiso   1.00
C62    C     0.60160   0.35910   0.17580   0.01267  Uiso   1.00
C63    C     0.69400   0.35910   0.20500   0.01267  Uiso   1.00
C64    C     0.69500   0.36570   0.27120   0.01267  Uiso   1.00
C65    C     0.79130   0.36800   0.29940   0.01267  Uiso   1.00
C66    C     0.88720   0.36700   0.26930   0.01267  Uiso   1.00
C67    C     0.88220   0.35830   0.20310   0.01267  Uiso   1.00
C68    C     0.97150   0.35680   0.17150   0.01267  Uiso   1.00
C69    C     0.97010   0.35420   0.10830   0.01267  Uiso   1.00
C70    C     0.87830   0.35460   0.07880   0.01267  Uiso   1.00
C71    C     0.87850   0.35960   0.01220   0.01267  Uiso   1.00
C72    C     0.78490   0.35330   0.11030   0.01267  Uiso   1.00
C73    C     0.78630   0.35780   0.17380   0.01267  Uiso   1.00
C74    C     0.08400   0.39390   0.65850   0.01267  Uiso   1.00
C75    C     0.12710   0.38760   0.71610   0.01267  Uiso   1.00
C76    C     0.22930   0.38130   0.72270   0.01267  Uiso   1.00
C77    C     0.29620   0.38310   0.67160   0.01267  Uiso   1.00
C78    C     0.40300   0.37570   0.67680   0.01267  Uiso   1.00
C79    C     0.46420   0.37500   0.62710   0.01267  Uiso   1.00
C80    C     0.42050   0.38030   0.56870   0.01267  Uiso   1.00
C81    C     0.31740   0.38830   0.56260   0.01267  Uiso   1.00
C82    C     0.25280   0.38900   0.61280   0.01267  Uiso   1.00
C83    C     0.14440   0.39580   0.60800   0.01267  Uiso   1.00
C84    C     0.74960   0.68740   0.65200   0.01267  Uiso   1.00
C85    C     0.71690   0.72460   0.70780   0.01267  Uiso   1.00
C86    C     0.71030   0.82800   0.71450   0.01267  Uiso   1.00
C87    C     0.73920   0.89730   0.66710   0.01267  Uiso   1.00
C88    C     0.73820   0.00490   0.67400   0.01267  Uiso   1.00
C89    C     0.76900   0.07030   0.62820   0.01267  Uiso   1.00
C90    C     0.79740   0.03130   0.57160   0.01267  Uiso   1.00
C91    C     0.79680   0.92810   0.56340   0.01267  Uiso   1.00
C92    C     0.77030   0.85860   0.61140   0.01267  Uiso   1.00
C93    C     0.77370   0.75210   0.60490   0.01267  Uiso   1.00
C94    C     0.84360   0.45990   0.45390   0.01267  Uiso   1.00
C95    C     0.84630   0.45720   0.39210   0.01267  Uiso   1.00
C96    C     0.79200   0.37490   0.36370   0.01267  Uiso   1.00
C97    C     0.73960   0.29850   0.39650   0.01267  Uiso   1.00
C98    C     0.74046   0.30644   0.45856   0.01267  Uiso   1.00
N4     N     0.76640   0.36700   0.79770   0.01267  Uiso   1.00
N5     N     0.78090   0.35850   0.98570   0.01267  Uiso   1.00
N6     N     0.79180   0.38660   0.48640   0.01267  Uiso   1.00
O13    O     0.76250   0.52310   0.69290   0.01267  Uiso   1.00
O14    O     0.77400   0.54040   0.59350   0.01267  Uiso   1.00
O15    O     0.91570   0.37990   0.69720   0.01267  Uiso   1.00
O16    O     0.93670   0.40770   0.59890   0.01267  Uiso   1.00
O17    O     0.75720   0.21680   0.68800   0.01267  Uiso   1.00
O18    O     0.78860   0.23790   0.59030   0.01267  Uiso   1.00
O19    O     0.61090   0.36150   0.68570   0.01267  Uiso   1.00
O20    O     0.62970   0.36930   0.58710   0.01267  Uiso   1.00
O21    O     0.60570   0.34300   0.98620   0.01267  Uiso   1.00
O22    O     0.61730   0.36720   0.30120   0.01267  Uiso   1.00
O23    O     0.96720   0.37050   0.29740   0.01267  Uiso   1.00
O24    O     0.95540   0.36350   0.98210   0.01267  Uiso   1.00
