data_image0
_cell_length_a       11.0227
_cell_length_b       11.6049
_cell_length_c       15.8019
_cell_angle_alpha    97.219
_cell_angle_beta     102.518
_cell_angle_gamma    102.964

_symmetry_space_group_name_H-M    "P 1"
_symmetry_int_tables_number       1

loop_
  _symmetry_equiv_pos_as_xyz
  'x, y, z'

loop_
  _atom_site_label
  _atom_site_occupancy
  _atom_site_fract_x
  _atom_site_fract_y
  _atom_site_fract_z
  _atom_site_thermal_displace_type
  _atom_site_B_iso_or_equiv
  _atom_site_type_symbol
  Cu1      1.0000 0.84526  0.71395  0.13692  Biso   1.000  Cu
  Cu2      1.0000 0.57486  0.49321  0.12662  Biso   1.000  Cu
  Cu3      1.0000 0.00606  0.32601  0.03643  Biso   1.000  Cu
  Cu4      1.0000 0.28943  0.58841  0.05084  Biso   1.000  Cu
  Cu5      1.0000 0.62827  0.63318  0.51495  Biso   1.000  Cu
  N1       1.0000 0.67990  0.73510  0.09350  Biso   1.000  N
  N2       1.0000 0.57220  0.65260  0.09360  Biso   1.000  N
  N3       1.0000 0.47200  0.69530  0.06600  Biso   1.000  N
  N4       1.0000 0.51130  0.80500  0.04700  Biso   1.000  N
  N5       1.0000 0.89470  0.14620  0.02960  Biso   1.000  N
  N6       1.0000 0.40330  0.38490  0.11300  Biso   1.000  N
  N7       1.0000 0.29760  0.41900  0.07680  Biso   1.000  N
  N8       1.0000 0.19430  0.33410  0.07730  Biso   1.000  N
  N9       1.0000 0.22970  0.24420  0.11310  Biso   1.000  N
  N10      1.0000 0.57690  0.06290  0.25660  Biso   1.000  N
  H1       1.0000 0.62310  0.02300  0.28540  Biso   1.000  H
  N11      1.0000 0.06650  0.65840  0.09050  Biso   1.000  N
  N12      1.0000 0.00980  0.68790  0.15300  Biso   1.000  N
  N13      1.0000 0.08470  0.69490  0.23290  Biso   1.000  N
  N14      1.0000 0.18170  0.64380  0.12960  Biso   1.000  N
  N15      1.0000 0.47230  0.62980  0.43410  Biso   1.000  N
  N16      1.0000 0.90900  0.39980  0.11690  Biso   1.000  N
  N17      1.0000 0.79840  0.42570  0.07940  Biso   1.000  N
  N18      1.0000 0.74370  0.45680  0.14230  Biso   1.000  N
  N19      1.0000 0.81530  0.45260  0.22150  Biso   1.000  N
  N20      1.0000 0.22460  0.38030  0.40300  Biso   1.000  N
  C1       1.0000 0.35810  0.27690  0.13390  Biso   1.000  C
  C2       1.0000 0.43560  0.20190  0.17680  Biso   1.000  C
  C3       1.0000 0.56040  0.21000  0.16830  Biso   1.000  C
  H2       1.0000 0.59650  0.26300  0.13550  Biso   1.000  H
  C4       1.0000 0.62970  0.13830  0.20920  Biso   1.000  C
  H3       1.0000 0.71290  0.14230  0.20390  Biso   1.000  H
  C5       1.0000 0.45680  0.04810  0.26030  Biso   1.000  C
  H4       1.0000 0.42200  0.99100  0.29080  Biso   1.000  H
  C6       1.0000 0.38170  0.11510  0.22020  Biso   1.000  C
  H5       1.0000 0.29600  0.10260  0.22210  Biso   1.000  H
  C7       1.0000 0.18960  0.66680  0.21680  Biso   1.000  C
  C8       1.0000 0.29320  0.65910  0.29020  Biso   1.000  C
  C9       1.0000 0.31270  0.72730  0.37420  Biso   1.000  C
  H6       1.0000 0.26540  0.78280  0.38300  Biso   1.000  H
  C10      1.0000 0.40270  0.71050  0.44280  Biso   1.000  C
  H7       1.0000 0.41650  0.75690  0.49820  Biso   1.000  H
  C11      1.0000 0.45320  0.56440  0.35380  Biso   1.000  C
  H8       1.0000 0.50030  0.50820  0.34730  Biso   1.000  H
  C12      1.0000 0.36650  0.57710  0.28050  Biso   1.000  C
  H9       1.0000 0.35710  0.53170  0.22550  Biso   1.000  H
  C13      1.0000 0.91590  0.41760  0.20370  Biso   1.000  C
  C14      1.0000 0.02070  0.40240  0.27330  Biso   1.000  C
  C15      1.0000 0.08730  0.31710  0.25790  Biso   1.000  C
  H10      1.0000 0.06390  0.26560  0.20360  Biso   1.000  H
  C16      1.0000 0.18800  0.30920  0.32310  Biso   1.000  C
  H11      1.0000 0.23270  0.25240  0.31170  Biso   1.000  H
  C17      1.0000 0.15700  0.45930  0.41960  Biso   1.000  C
  H12      1.0000 0.17970  0.50660  0.47550  Biso   1.000  H
  C18      1.0000 0.05480  0.47330  0.35700  Biso   1.000  C
  H13      1.0000 0.00970  0.52900  0.37060  Biso   1.000  H
  C19      1.0000 0.63980  0.82740  0.06470  Biso   1.000  C
  C20      1.0000 0.72750  0.93630  0.05190  Biso   1.000  C
  C21      1.0000 0.68060  0.01980  0.00690  Biso   1.000  C
  H14      1.0000 0.59270  0.00710  0.98310  Biso   1.000  H
  H15      1.0000 0.89630  0.90310  0.10770  Biso   1.000  H
  H16      1.0000 0.02720  0.07640  0.09000  Biso   1.000  H
  C22      1.0000 0.76680  0.12150  0.99830  Biso   1.000  C
  H17      1.0000 0.73380  0.17660  0.96870  Biso   1.000  H
  C23      1.0000 0.93840  0.06290  0.06910  Biso   1.000  C
  C24      1.0000 0.85980  0.95860  0.08070  Biso   1.000  C
  Cu6      1.0000 0.15474  0.28605  0.86308  Biso   1.000  Cu
  Cu7      1.0000 0.42514  0.50679  0.87338  Biso   1.000  Cu
  Cu8      1.0000 0.99394  0.67399  0.96357  Biso   1.000  Cu
  Cu9      1.0000 0.71057  0.41159  0.94916  Biso   1.000  Cu
  Cu10     1.0000 0.37173  0.36682  0.48505  Biso   1.000  Cu
  N21      1.0000 0.32010  0.26490  0.90650  Biso   1.000  N
  N22      1.0000 0.42780  0.34740  0.90640  Biso   1.000  N
  N23      1.0000 0.52800  0.30470  0.93400  Biso   1.000  N
  N24      1.0000 0.48870  0.19500  0.95300  Biso   1.000  N
  N25      1.0000 0.10530  0.85380  0.97040  Biso   1.000  N
  N26      1.0000 0.59670  0.61510  0.88700  Biso   1.000  N
  N27      1.0000 0.70240  0.58100  0.92320  Biso   1.000  N
  N28      1.0000 0.80570  0.66590  0.92270  Biso   1.000  N
  N29      1.0000 0.77030  0.75580  0.88690  Biso   1.000  N
  N30      1.0000 0.42310  0.93710  0.74340  Biso   1.000  N
  H18      1.0000 0.37690  0.97700  0.71460  Biso   1.000  H
  N31      1.0000 0.93350  0.34160  0.90950  Biso   1.000  N
  N32      1.0000 0.99020  0.31210  0.84700  Biso   1.000  N
  N33      1.0000 0.91530  0.30510  0.76710  Biso   1.000  N
  N34      1.0000 0.81830  0.35620  0.87040  Biso   1.000  N
  N35      1.0000 0.52770  0.37020  0.56590  Biso   1.000  N
  N36      1.0000 0.09100  0.60020  0.88310  Biso   1.000  N
  N37      1.0000 0.20160  0.57430  0.92060  Biso   1.000  N
  N38      1.0000 0.25630  0.54320  0.85770  Biso   1.000  N
  N39      1.0000 0.18470  0.54740  0.77850  Biso   1.000  N
  N40      1.0000 0.77540  0.61970  0.59700  Biso   1.000  N
  C25      1.0000 0.64190  0.72310  0.86610  Biso   1.000  C
  C26      1.0000 0.56440  0.79810  0.82320  Biso   1.000  C
  C27      1.0000 0.43960  0.79000  0.83170  Biso   1.000  C
  H19      1.0000 0.40350  0.73700  0.86450  Biso   1.000  H
  C28      1.0000 0.37030  0.86170  0.79080  Biso   1.000  C
  H20      1.0000 0.28710  0.85770  0.79610  Biso   1.000  H
  C29      1.0000 0.54320  0.95190  0.73970  Biso   1.000  C
  H21      1.0000 0.57800  0.00900  0.70920  Biso   1.000  H
  C30      1.0000 0.61830  0.88490  0.77980  Biso   1.000  C
  H22      1.0000 0.70400  0.89740  0.77790  Biso   1.000  H
  C31      1.0000 0.81040  0.33320  0.78320  Biso   1.000  C
  C32      1.0000 0.70680  0.34090  0.70980  Biso   1.000  C
  C33      1.0000 0.68730  0.27270  0.62580  Biso   1.000  C
  H23      1.0000 0.73460  0.21720  0.61700  Biso   1.000  H
  C34      1.0000 0.59730  0.28950  0.55720  Biso   1.000  C
  H24      1.0000 0.58350  0.24310  0.50180  Biso   1.000  H
  C35      1.0000 0.54680  0.43560  0.64620  Biso   1.000  C
  H25      1.0000 0.49970  0.49180  0.65270  Biso   1.000  H
  C36      1.0000 0.63350  0.42290  0.71950  Biso   1.000  C
  H26      1.0000 0.64290  0.46830  0.77450  Biso   1.000  H
  C37      1.0000 0.08410  0.58240  0.79630  Biso   1.000  C
  C38      1.0000 0.97930  0.59760  0.72670  Biso   1.000  C
  C39      1.0000 0.91270  0.68290  0.74210  Biso   1.000  C
  H27      1.0000 0.93610  0.73440  0.79640  Biso   1.000  H
  C40      1.0000 0.81200  0.69080  0.67690  Biso   1.000  C
  H28      1.0000 0.76730  0.74760  0.68830  Biso   1.000  H
  C41      1.0000 0.84300  0.54070  0.58040  Biso   1.000  C
  H29      1.0000 0.82030  0.49340  0.52450  Biso   1.000  H
  C42      1.0000 0.94520  0.52670  0.64300  Biso   1.000  C
  H30      1.0000 0.99030  0.47100  0.62940  Biso   1.000  H
  C43      1.0000 0.36020  0.17260  0.93530  Biso   1.000  C
  C44      1.0000 0.27250  0.06370  0.94810  Biso   1.000  C
  C45      1.0000 0.31940  0.98020  0.99310  Biso   1.000  C
  H31      1.0000 0.40730  0.99290  0.01690  Biso   1.000  H
  H32      1.0000 0.10370  0.09690  0.89230  Biso   1.000  H
  H33      1.0000 0.97280  0.92360  0.91000  Biso   1.000  H
  C46      1.0000 0.23320  0.87850  0.00170  Biso   1.000  C
  H34      1.0000 0.26620  0.82340  0.03130  Biso   1.000  H
  C47      1.0000 0.06160  0.93710  0.93090  Biso   1.000  C
  C48      1.0000 0.14020  0.04140  0.91930  Biso   1.000  C
