data_image0
_cell_length_a       8.186
_cell_length_b       20.16
_cell_length_c       8.9521
_cell_angle_alpha    90
_cell_angle_beta     91.04
_cell_angle_gamma    90

_symmetry_space_group_name_H-M    "P 1"
_symmetry_int_tables_number       1

loop_
  _symmetry_equiv_pos_as_xyz
  'x, y, z'

loop_
  _atom_site_label
  _atom_site_occupancy
  _atom_site_fract_x
  _atom_site_fract_y
  _atom_site_fract_z
  _atom_site_thermal_displace_type
  _atom_site_B_iso_or_equiv
  _atom_site_type_symbol
  N1       1.0000 0.64980  0.07245  0.88960  Biso   1.000  N
  N2       1.0000 0.81970  0.07666  0.90130  Biso   1.000  N
  N3       1.0000 0.72350  0.16316  0.78350  Biso   1.000  N
  N4       1.0000 0.69740  0.22612  0.72340  Biso   1.000  N
  N5       1.0000 0.82630  0.25718  0.72470  Biso   1.000  N
  N6       1.0000 0.79780  0.32031  0.66700  Biso   1.000  N
  N7       1.0000 0.86040  0.41846  0.59110  Biso   1.000  N
  N8       1.0000 0.69280  0.41152  0.57540  Biso   1.000  N
  N9       1.0000 0.33990  0.99677  0.80440  Biso   1.000  N
  N10      1.0000 0.41650  0.99665  0.66640  Biso   1.000  N
  N11      1.0000 0.15280  0.99861  0.63080  Biso   1.000  N
  N12      1.0000 0.99670  0.00008  0.56940  Biso   1.000  N
  C1       1.0000 0.59610  0.12419  0.81930  Biso   1.000  C
  H1       1.0000 0.48690  0.13320  0.79700  Biso   1.000  H
  C2       1.0000 0.86030  0.13204  0.83830  Biso   1.000  C
  H2       1.0000 0.96630  0.14820  0.83150  Biso   1.000  H
  C3       1.0000 0.91910  0.36429  0.64760  Biso   1.000  C
  H3       1.0000 0.02860  0.35690  0.67130  Biso   1.000  H
  C4       1.0000 0.65820  0.35184  0.62180  Biso   1.000  C
  H4       1.0000 0.55390  0.33360  0.62370  Biso   1.000  H
  C5       1.0000 0.18240  0.99799  0.78060  Biso   1.000  C
  H5       1.0000 0.10340  0.99840  0.85400  Biso   1.000  H
  C6       1.0000 0.30230  0.99785  0.56500  Biso   1.000  C
  H6       1.0000 0.31920  0.99810  0.46260  Biso   1.000  H
  N13      1.0000 0.85020  0.57245  0.61040  Biso   1.000  N
  N14      1.0000 0.68030  0.57666  0.59870  Biso   1.000  N
  N15      1.0000 0.77650  0.66316  0.71650  Biso   1.000  N
  N16      1.0000 0.80260  0.72612  0.77660  Biso   1.000  N
  N17      1.0000 0.67370  0.75718  0.77530  Biso   1.000  N
  N18      1.0000 0.70220  0.82031  0.83300  Biso   1.000  N
  N19      1.0000 0.63960  0.91846  0.90890  Biso   1.000  N
  N20      1.0000 0.80720  0.91152  0.92460  Biso   1.000  N
  N21      1.0000 0.16010  0.49677  0.69560  Biso   1.000  N
  N22      1.0000 0.08350  0.49665  0.83360  Biso   1.000  N
  N23      1.0000 0.34720  0.49861  0.86920  Biso   1.000  N
  N24      1.0000 0.50330  0.50008  0.93060  Biso   1.000  N
  C7       1.0000 0.90390  0.62419  0.68070  Biso   1.000  C
  H7       1.0000 0.01310  0.63320  0.70300  Biso   1.000  H
  C8       1.0000 0.63970  0.63204  0.66170  Biso   1.000  C
  H8       1.0000 0.53370  0.64820  0.66850  Biso   1.000  H
  C9       1.0000 0.58090  0.86429  0.85240  Biso   1.000  C
  H9       1.0000 0.47140  0.85690  0.82870  Biso   1.000  H
  C10      1.0000 0.84180  0.85184  0.87820  Biso   1.000  C
  H10      1.0000 0.94610  0.83360  0.87630  Biso   1.000  H
  C11      1.0000 0.31760  0.49799  0.71940  Biso   1.000  C
  H11      1.0000 0.39660  0.49840  0.64600  Biso   1.000  H
  C12      1.0000 0.19770  0.49785  0.93500  Biso   1.000  C
  H12      1.0000 0.18080  0.49810  0.03740  Biso   1.000  H
  N25      1.0000 0.35020  0.92755  0.11040  Biso   1.000  N
  N26      1.0000 0.18030  0.92334  0.09870  Biso   1.000  N
  N27      1.0000 0.27650  0.83684  0.21650  Biso   1.000  N
  N28      1.0000 0.30260  0.77388  0.27660  Biso   1.000  N
  N29      1.0000 0.17370  0.74282  0.27530  Biso   1.000  N
  N30      1.0000 0.20220  0.67969  0.33300  Biso   1.000  N
  N31      1.0000 0.13960  0.58154  0.40890  Biso   1.000  N
  N32      1.0000 0.30720  0.58848  0.42460  Biso   1.000  N
  N33      1.0000 0.66010  0.00323  0.19560  Biso   1.000  N
  N34      1.0000 0.58350  0.00335  0.33360  Biso   1.000  N
  N35      1.0000 0.84720  0.00139  0.36920  Biso   1.000  N
  N36      1.0000 0.00330  0.99992  0.43060  Biso   1.000  N
  C13      1.0000 0.40390  0.87581  0.18070  Biso   1.000  C
  H13      1.0000 0.51310  0.86680  0.20300  Biso   1.000  H
  C14      1.0000 0.13970  0.86796  0.16170  Biso   1.000  C
  H14      1.0000 0.03370  0.85180  0.16850  Biso   1.000  H
  C15      1.0000 0.08090  0.63571  0.35240  Biso   1.000  C
  H15      1.0000 0.97140  0.64310  0.32870  Biso   1.000  H
  C16      1.0000 0.34180  0.64816  0.37820  Biso   1.000  C
  H16      1.0000 0.44610  0.66640  0.37630  Biso   1.000  H
  C17      1.0000 0.81760  0.00201  0.21940  Biso   1.000  C
  H17      1.0000 0.89660  0.00160  0.14600  Biso   1.000  H
  C18      1.0000 0.69770  0.00215  0.43500  Biso   1.000  C
  H18      1.0000 0.68080  0.00190  0.53740  Biso   1.000  H
  N37      1.0000 0.14980  0.42755  0.38960  Biso   1.000  N
  N38      1.0000 0.31970  0.42334  0.40130  Biso   1.000  N
  N39      1.0000 0.22350  0.33684  0.28350  Biso   1.000  N
  N40      1.0000 0.19740  0.27388  0.22340  Biso   1.000  N
  N41      1.0000 0.32630  0.24282  0.22470  Biso   1.000  N
  N42      1.0000 0.29780  0.17969  0.16700  Biso   1.000  N
  N43      1.0000 0.36040  0.08154  0.09110  Biso   1.000  N
  N44      1.0000 0.19280  0.08848  0.07540  Biso   1.000  N
  N45      1.0000 0.83990  0.50323  0.30440  Biso   1.000  N
  N46      1.0000 0.91650  0.50335  0.16640  Biso   1.000  N
  N47      1.0000 0.65280  0.50139  0.13080  Biso   1.000  N
  N48      1.0000 0.49670  0.49992  0.06940  Biso   1.000  N
  C19      1.0000 0.09610  0.37581  0.31930  Biso   1.000  C
  H19      1.0000 0.98690  0.36680  0.29700  Biso   1.000  H
  C20      1.0000 0.36030  0.36796  0.33830  Biso   1.000  C
  H20      1.0000 0.46630  0.35180  0.33150  Biso   1.000  H
  C21      1.0000 0.41910  0.13571  0.14760  Biso   1.000  C
  H21      1.0000 0.52860  0.14310  0.17130  Biso   1.000  H
  C22      1.0000 0.15820  0.14816  0.12180  Biso   1.000  C
  H22      1.0000 0.05390  0.16640  0.12370  Biso   1.000  H
  C23      1.0000 0.68240  0.50201  0.28060  Biso   1.000  C
  H23      1.0000 0.60340  0.50160  0.35400  Biso   1.000  H
  C24      1.0000 0.80230  0.50215  0.06500  Biso   1.000  C
  H24      1.0000 0.81920  0.50190  0.96260  Biso   1.000  H
  Zn1      1.0000 0.50000  0.00000  0.00000  Biso   1.000  Zn
  Zn2      1.0000 0.00000  0.50000  0.50000  Biso   1.000  Zn
