data_MUPYUS_clean
_audit_creation_date              2014-07-02
_audit_creation_method            'Materials Studio'
_symmetry_space_group_name_H-M    'P1'
_symmetry_Int_Tables_number       1
_symmetry_cell_setting            triclinic
loop_
_symmetry_equiv_pos_as_xyz
  x,y,z
_cell_length_a                    7.8516
_cell_length_b                    10.7383
_cell_length_c                    14.1928
_cell_angle_alpha                 112.2290
_cell_angle_beta                  90.0000
_cell_angle_gamma                 90.0000
loop_
_atom_site_label
_atom_site_type_symbol
_atom_site_fract_x
_atom_site_fract_y
_atom_site_fract_z
_atom_site_U_iso_or_equiv
_atom_site_adp_type
_atom_site_occupancy
Cd1    Cd    0.03270   0.01092   0.02184   0.01267  Uiso   1.00
Cd2    Cd    0.45390   0.23973   0.47946   0.01267  Uiso   1.00
Cd3    Cd    0.53270   0.98908   0.97816   0.01267  Uiso   1.00
Cd4    Cd    0.95390   0.76027   0.52054   0.01267  Uiso   1.00
Cd5    Cd    0.74600   0.62408   0.24816   0.01267  Uiso   1.00
Cd6    Cd    0.24600   0.37592   0.75184   0.01267  Uiso   1.00
H1     H     0.99570   0.81420   0.16520   0.01267  Uiso   1.00
H2     H     0.52300   0.73340   0.07340   0.01267  Uiso   1.00
H3     H     0.56210   0.36880   0.30020   0.01267  Uiso   1.00
H4     H     0.74380   0.50300   0.57240   0.01267  Uiso   1.00
H5     H     0.49570   0.18580   0.83480   0.01267  Uiso   1.00
H6     H     0.02300   0.26660   0.92660   0.01267  Uiso   1.00
H7     H     0.06210   0.63120   0.69980   0.01267  Uiso   1.00
H8     H     0.24380   0.49700   0.42760   0.01267  Uiso   1.00
H9     H     0.49570   0.64900   0.83480   0.01267  Uiso   1.00
H10    H     0.02300   0.66000   0.92660   0.01267  Uiso   1.00
H11    H     0.06210   0.06860   0.69980   0.01267  Uiso   1.00
H12    H     0.24380   0.93060   0.42760   0.01267  Uiso   1.00
H13    H     0.99570   0.35100   0.16520   0.01267  Uiso   1.00
H14    H     0.52300   0.34000   0.07340   0.01267  Uiso   1.00
H15    H     0.56210   0.93140   0.30020   0.01267  Uiso   1.00
H16    H     0.74380   0.06940   0.57240   0.01267  Uiso   1.00
H17    H     0.57840   0.11930   0.23860   0.01267  Uiso   1.00
H18    H     0.09320   0.14880   0.29760   0.01267  Uiso   1.00
H19    H     0.07840   0.88070   0.76140   0.01267  Uiso   1.00
H20    H     0.59320   0.85120   0.70240   0.01267  Uiso   1.00
C1     C     0.89100   0.81310   0.13420   0.01267  Uiso   1.00
C2     C     0.63300   0.76800   0.08400   0.01267  Uiso   1.00
C3     C     0.61700   0.42190   0.35980   0.01267  Uiso   1.00
C4     C     0.71500   0.49430   0.50660   0.01267  Uiso   1.00
C5     C     0.39100   0.18690   0.86580   0.01267  Uiso   1.00
C6     C     0.13300   0.23200   0.91600   0.01267  Uiso   1.00
C7     C     0.11700   0.57810   0.64020   0.01267  Uiso   1.00
C8     C     0.21500   0.50570   0.49340   0.01267  Uiso   1.00
C9     C     0.39100   0.67890   0.86580   0.01267  Uiso   1.00
C10    C     0.13300   0.68400   0.91600   0.01267  Uiso   1.00
C11    C     0.11700   0.06210   0.64020   0.01267  Uiso   1.00
C12    C     0.21500   0.98770   0.49340   0.01267  Uiso   1.00
C13    C     0.89100   0.32110   0.13420   0.01267  Uiso   1.00
C14    C     0.63300   0.31600   0.08400   0.01267  Uiso   1.00
C15    C     0.61700   0.93790   0.35980   0.01267  Uiso   1.00
C16    C     0.71500   0.01230   0.50660   0.01267  Uiso   1.00
C17    C     0.46100   0.11490   0.22980   0.01267  Uiso   1.00
C18    C     0.19500   0.13090   0.26180   0.01267  Uiso   1.00
C19    C     0.96100   0.88510   0.77020   0.01267  Uiso   1.00
C20    C     0.69500   0.86910   0.73820   0.01267  Uiso   1.00
Br1    Br    0.05990   0.65536   0.31072   0.01267  Uiso   1.00
Br2    Br    0.55990   0.34464   0.68928   0.01267  Uiso   1.00
N1     N     0.85600   0.88820   0.08440   0.01267  Uiso   1.00
N2     N     0.68900   0.85980   0.05000   0.01267  Uiso   1.00
N3     N     0.75700   0.73050   0.13660   0.01267  Uiso   1.00
N4     N     0.69600   0.53300   0.37060   0.01267  Uiso   1.00
N5     N     0.75900   0.58260   0.46520   0.01267  Uiso   1.00
N6     N     0.62400   0.39270   0.44240   0.01267  Uiso   1.00
N7     N     0.35600   0.11180   0.91560   0.01267  Uiso   1.00
N8     N     0.18900   0.14020   0.95000   0.01267  Uiso   1.00
N9     N     0.25700   0.26950   0.86340   0.01267  Uiso   1.00
N10    N     0.19600   0.46700   0.62940   0.01267  Uiso   1.00
N11    N     0.25900   0.41740   0.53480   0.01267  Uiso   1.00
N12    N     0.12400   0.60730   0.55760   0.01267  Uiso   1.00
N13    N     0.35600   0.80380   0.91560   0.01267  Uiso   1.00
N14    N     0.18900   0.80980   0.95000   0.01267  Uiso   1.00
N15    N     0.25700   0.59390   0.86340   0.01267  Uiso   1.00
N16    N     0.19600   0.16240   0.62940   0.01267  Uiso   1.00
N17    N     0.25900   0.11740   0.53480   0.01267  Uiso   1.00
N18    N     0.12400   0.95030   0.55760   0.01267  Uiso   1.00
N19    N     0.85600   0.19620   0.08440   0.01267  Uiso   1.00
N20    N     0.68900   0.19020   0.05000   0.01267  Uiso   1.00
N21    N     0.75700   0.40610   0.13660   0.01267  Uiso   1.00
N22    N     0.69600   0.83760   0.37060   0.01267  Uiso   1.00
N23    N     0.75900   0.88260   0.46520   0.01267  Uiso   1.00
N24    N     0.62400   0.04970   0.44240   0.01267  Uiso   1.00
N25    N     0.34700   0.15200   0.30400   0.01267  Uiso   1.00
N26    N     0.37300   0.06630   0.13260   0.01267  Uiso   1.00
N27    N     0.20800   0.08040   0.16080   0.01267  Uiso   1.00
N28    N     0.84700   0.84800   0.69600   0.01267  Uiso   1.00
N29    N     0.87300   0.93370   0.86740   0.01267  Uiso   1.00
N30    N     0.70800   0.91960   0.83920   0.01267  Uiso   1.00
