data_image0
_cell_length_a       8.0222
_cell_length_b       18.1099
_cell_length_c       21.954
_cell_angle_alpha    90
_cell_angle_beta     90
_cell_angle_gamma    90

_symmetry_space_group_name_H-M    "P 1"
_symmetry_int_tables_number       1

loop_
  _symmetry_equiv_pos_as_xyz
  'x, y, z'

loop_
  _atom_site_label
  _atom_site_occupancy
  _atom_site_fract_x
  _atom_site_fract_y
  _atom_site_fract_z
  _atom_site_thermal_displace_type
  _atom_site_B_iso_or_equiv
  _atom_site_type_symbol
  Cd1      1.0000 0.76819  0.09132  0.13978  Biso   1.000  Cd
  Cd2      1.0000 0.96011  0.25271  0.89004  Biso   1.000  Cd
  C1       1.0000 0.58980  0.16670  0.02050  Biso   1.000  C
  H1       1.0000 0.48270  0.16360  0.03660  Biso   1.000  H
  C2       1.0000 0.84590  0.15750  0.00910  Biso   1.000  C
  H2       1.0000 0.95760  0.14610  0.01550  Biso   1.000  H
  C3       1.0000 0.66710  0.92640  0.11090  Biso   1.000  C
  H3       1.0000 0.55760  0.94230  0.10610  Biso   1.000  H
  C4       1.0000 0.92270  0.92440  0.12570  Biso   1.000  C
  H4       1.0000 0.03180  0.93940  0.13290  Biso   1.000  H
  C5       1.0000 0.90940  0.15600  0.26550  Biso   1.000  C
  H5       1.0000 0.01640  0.13900  0.25700  Biso   1.000  H
  C6       1.0000 0.65660  0.17910  0.25840  Biso   1.000  C
  H6       1.0000 0.54780  0.18230  0.24400  Biso   1.000  H
  N1       1.0000 0.72720  0.13940  0.04880  Biso   1.000  N
  N2       1.0000 0.79510  0.19190  0.96140  Biso   1.000  N
  N3       1.0000 0.62520  0.19810  0.96780  Biso   1.000  N
  N4       1.0000 0.77840  0.14650  0.22800  Biso   1.000  N
  N5       1.0000 0.70410  0.20640  0.31060  Biso   1.000  N
  N6       1.0000 0.86940  0.19180  0.31550  Biso   1.000  N
  N7       1.0000 0.78870  0.97140  0.12310  Biso   1.000  N
  N8       1.0000 0.71100  0.85680  0.10580  Biso   1.000  N
  N9       1.0000 0.87720  0.85570  0.11660  Biso   1.000  N
  Cd3      1.0000 0.23181  0.40868  0.63978  Biso   1.000  Cd
  Cd4      1.0000 0.03989  0.24729  0.39004  Biso   1.000  Cd
  C7       1.0000 0.41020  0.33330  0.52050  Biso   1.000  C
  H7       1.0000 0.51730  0.33640  0.53660  Biso   1.000  H
  C8       1.0000 0.15410  0.34250  0.50910  Biso   1.000  C
  H8       1.0000 0.04240  0.35390  0.51550  Biso   1.000  H
  C9       1.0000 0.33290  0.57360  0.61090  Biso   1.000  C
  H9       1.0000 0.44240  0.55770  0.60610  Biso   1.000  H
  C10      1.0000 0.07730  0.57560  0.62570  Biso   1.000  C
  H10      1.0000 0.96820  0.56060  0.63290  Biso   1.000  H
  C11      1.0000 0.09060  0.34400  0.76550  Biso   1.000  C
  H11      1.0000 0.98360  0.36100  0.75700  Biso   1.000  H
  C12      1.0000 0.34340  0.32090  0.75840  Biso   1.000  C
  H12      1.0000 0.45220  0.31770  0.74400  Biso   1.000  H
  N10      1.0000 0.27280  0.36060  0.54880  Biso   1.000  N
  N11      1.0000 0.20490  0.30810  0.46140  Biso   1.000  N
  N12      1.0000 0.37480  0.30190  0.46780  Biso   1.000  N
  N13      1.0000 0.22160  0.35350  0.72800  Biso   1.000  N
  N14      1.0000 0.29590  0.29360  0.81060  Biso   1.000  N
  N15      1.0000 0.13060  0.30820  0.81550  Biso   1.000  N
  N16      1.0000 0.21130  0.52860  0.62310  Biso   1.000  N
  N17      1.0000 0.28900  0.64320  0.60580  Biso   1.000  N
  N18      1.0000 0.12280  0.64430  0.61660  Biso   1.000  N
  Cd5      1.0000 0.26819  0.90868  0.36022  Biso   1.000  Cd
  Cd6      1.0000 0.46011  0.74729  0.60996  Biso   1.000  Cd
  C13      1.0000 0.08980  0.83330  0.47950  Biso   1.000  C
  H13      1.0000 0.98270  0.83640  0.46340  Biso   1.000  H
  C14      1.0000 0.34590  0.84250  0.49090  Biso   1.000  C
  H14      1.0000 0.45760  0.85390  0.48450  Biso   1.000  H
  C15      1.0000 0.16710  0.07360  0.38910  Biso   1.000  C
  H15      1.0000 0.05760  0.05770  0.39390  Biso   1.000  H
  C16      1.0000 0.42270  0.07560  0.37430  Biso   1.000  C
  H16      1.0000 0.53180  0.06060  0.36710  Biso   1.000  H
  C17      1.0000 0.40940  0.84400  0.23450  Biso   1.000  C
  H17      1.0000 0.51640  0.86100  0.24300  Biso   1.000  H
  C18      1.0000 0.15660  0.82090  0.24160  Biso   1.000  C
  H18      1.0000 0.04780  0.81770  0.25600  Biso   1.000  H
  N19      1.0000 0.22720  0.86060  0.45120  Biso   1.000  N
  N20      1.0000 0.29510  0.80810  0.53860  Biso   1.000  N
  N21      1.0000 0.12520  0.80190  0.53220  Biso   1.000  N
  N22      1.0000 0.27840  0.85350  0.27200  Biso   1.000  N
  N23      1.0000 0.20410  0.79360  0.18940  Biso   1.000  N
  N24      1.0000 0.36940  0.80820  0.18450  Biso   1.000  N
  N25      1.0000 0.28870  0.02860  0.37690  Biso   1.000  N
  N26      1.0000 0.21100  0.14320  0.39420  Biso   1.000  N
  N27      1.0000 0.37720  0.14430  0.38340  Biso   1.000  N
  Cd7      1.0000 0.73181  0.59132  0.86022  Biso   1.000  Cd
  Cd8      1.0000 0.53989  0.75271  0.10996  Biso   1.000  Cd
  C19      1.0000 0.91020  0.66670  0.97950  Biso   1.000  C
  H19      1.0000 0.01730  0.66360  0.96340  Biso   1.000  H
  C20      1.0000 0.65410  0.65750  0.99090  Biso   1.000  C
  H20      1.0000 0.54240  0.64610  0.98450  Biso   1.000  H
  C21      1.0000 0.83290  0.42640  0.88910  Biso   1.000  C
  H21      1.0000 0.94240  0.44230  0.89390  Biso   1.000  H
  C22      1.0000 0.57730  0.42440  0.87430  Biso   1.000  C
  H22      1.0000 0.46820  0.43940  0.86710  Biso   1.000  H
  C23      1.0000 0.59060  0.65600  0.73450  Biso   1.000  C
  H23      1.0000 0.48360  0.63900  0.74300  Biso   1.000  H
  C24      1.0000 0.84340  0.67910  0.74160  Biso   1.000  C
  H24      1.0000 0.95220  0.68230  0.75600  Biso   1.000  H
  N28      1.0000 0.77280  0.63940  0.95120  Biso   1.000  N
  N29      1.0000 0.70490  0.69190  0.03860  Biso   1.000  N
  N30      1.0000 0.87480  0.69810  0.03220  Biso   1.000  N
  N31      1.0000 0.72160  0.64650  0.77200  Biso   1.000  N
  N32      1.0000 0.79590  0.70640  0.68940  Biso   1.000  N
  N33      1.0000 0.63060  0.69180  0.68450  Biso   1.000  N
  N34      1.0000 0.71130  0.47140  0.87690  Biso   1.000  N
  N35      1.0000 0.78900  0.35680  0.89420  Biso   1.000  N
  N36      1.0000 0.62280  0.35570  0.88340  Biso   1.000  N
  Cd9      1.0000 0.23181  0.90868  0.86022  Biso   1.000  Cd
  Cd10     1.0000 0.03989  0.74729  0.10996  Biso   1.000  Cd
  C25      1.0000 0.41020  0.83330  0.97950  Biso   1.000  C
  H25      1.0000 0.51730  0.83640  0.96340  Biso   1.000  H
  C26      1.0000 0.15410  0.84250  0.99090  Biso   1.000  C
  H26      1.0000 0.04240  0.85390  0.98450  Biso   1.000  H
  C27      1.0000 0.33290  0.07360  0.88910  Biso   1.000  C
  H27      1.0000 0.44240  0.05770  0.89390  Biso   1.000  H
  C28      1.0000 0.07730  0.07560  0.87430  Biso   1.000  C
  H28      1.0000 0.96820  0.06060  0.86710  Biso   1.000  H
  C29      1.0000 0.09060  0.84400  0.73450  Biso   1.000  C
  H29      1.0000 0.98360  0.86100  0.74300  Biso   1.000  H
  C30      1.0000 0.34340  0.82090  0.74160  Biso   1.000  C
  H30      1.0000 0.45220  0.81770  0.75600  Biso   1.000  H
  N37      1.0000 0.27280  0.86060  0.95120  Biso   1.000  N
  N38      1.0000 0.20490  0.80810  0.03860  Biso   1.000  N
  N39      1.0000 0.37480  0.80190  0.03220  Biso   1.000  N
  N40      1.0000 0.22160  0.85350  0.77200  Biso   1.000  N
  N41      1.0000 0.29590  0.79360  0.68940  Biso   1.000  N
  N42      1.0000 0.13060  0.80820  0.68450  Biso   1.000  N
  N43      1.0000 0.21130  0.02860  0.87690  Biso   1.000  N
  N44      1.0000 0.28900  0.14320  0.89420  Biso   1.000  N
  N45      1.0000 0.12280  0.14430  0.88340  Biso   1.000  N
  Cd11     1.0000 0.76819  0.59132  0.36022  Biso   1.000  Cd
  Cd12     1.0000 0.96011  0.75271  0.60996  Biso   1.000  Cd
  C31      1.0000 0.58980  0.66670  0.47950  Biso   1.000  C
  H31      1.0000 0.48270  0.66360  0.46340  Biso   1.000  H
  C32      1.0000 0.84590  0.65750  0.49090  Biso   1.000  C
  H32      1.0000 0.95760  0.64610  0.48450  Biso   1.000  H
  C33      1.0000 0.66710  0.42640  0.38910  Biso   1.000  C
  H33      1.0000 0.55760  0.44230  0.39390  Biso   1.000  H
  C34      1.0000 0.92270  0.42440  0.37430  Biso   1.000  C
  H34      1.0000 0.03180  0.43940  0.36710  Biso   1.000  H
  C35      1.0000 0.90940  0.65600  0.23450  Biso   1.000  C
  H35      1.0000 0.01640  0.63900  0.24300  Biso   1.000  H
  C36      1.0000 0.65660  0.67910  0.24160  Biso   1.000  C
  H36      1.0000 0.54780  0.68230  0.25600  Biso   1.000  H
  N46      1.0000 0.72720  0.63940  0.45120  Biso   1.000  N
  N47      1.0000 0.79510  0.69190  0.53860  Biso   1.000  N
  N48      1.0000 0.62520  0.69810  0.53220  Biso   1.000  N
  N49      1.0000 0.77840  0.64650  0.27200  Biso   1.000  N
  N50      1.0000 0.70410  0.70640  0.18940  Biso   1.000  N
  N51      1.0000 0.86940  0.69180  0.18450  Biso   1.000  N
  N52      1.0000 0.78870  0.47140  0.37690  Biso   1.000  N
  N53      1.0000 0.71100  0.35680  0.39420  Biso   1.000  N
  N54      1.0000 0.87720  0.35570  0.38340  Biso   1.000  N
  Cd13     1.0000 0.73181  0.09132  0.63978  Biso   1.000  Cd
  Cd14     1.0000 0.53989  0.25271  0.39004  Biso   1.000  Cd
  C37      1.0000 0.91020  0.16670  0.52050  Biso   1.000  C
  H37      1.0000 0.01730  0.16360  0.53660  Biso   1.000  H
  C38      1.0000 0.65410  0.15750  0.50910  Biso   1.000  C
  H38      1.0000 0.54240  0.14610  0.51550  Biso   1.000  H
  C39      1.0000 0.83290  0.92640  0.61090  Biso   1.000  C
  H39      1.0000 0.94240  0.94230  0.60610  Biso   1.000  H
  C40      1.0000 0.57730  0.92440  0.62570  Biso   1.000  C
  H40      1.0000 0.46820  0.93940  0.63290  Biso   1.000  H
  C41      1.0000 0.59060  0.15600  0.76550  Biso   1.000  C
  H41      1.0000 0.48360  0.13900  0.75700  Biso   1.000  H
  C42      1.0000 0.84340  0.17910  0.75840  Biso   1.000  C
  H42      1.0000 0.95220  0.18230  0.74400  Biso   1.000  H
  N55      1.0000 0.77280  0.13940  0.54880  Biso   1.000  N
  N56      1.0000 0.70490  0.19190  0.46140  Biso   1.000  N
  N57      1.0000 0.87480  0.19810  0.46780  Biso   1.000  N
  N58      1.0000 0.72160  0.14650  0.72800  Biso   1.000  N
  N59      1.0000 0.79590  0.20640  0.81060  Biso   1.000  N
  N60      1.0000 0.63060  0.19180  0.81550  Biso   1.000  N
  N61      1.0000 0.71130  0.97140  0.62310  Biso   1.000  N
  N62      1.0000 0.78900  0.85680  0.60580  Biso   1.000  N
  N63      1.0000 0.62280  0.85570  0.61660  Biso   1.000  N
  Cd15     1.0000 0.26819  0.40868  0.13978  Biso   1.000  Cd
  Cd16     1.0000 0.46011  0.24729  0.89004  Biso   1.000  Cd
  C43      1.0000 0.08980  0.33330  0.02050  Biso   1.000  C
  H43      1.0000 0.98270  0.33640  0.03660  Biso   1.000  H
  C44      1.0000 0.34590  0.34250  0.00910  Biso   1.000  C
  H44      1.0000 0.45760  0.35390  0.01550  Biso   1.000  H
  C45      1.0000 0.16710  0.57360  0.11090  Biso   1.000  C
  H45      1.0000 0.05760  0.55770  0.10610  Biso   1.000  H
  C46      1.0000 0.42270  0.57560  0.12570  Biso   1.000  C
  H46      1.0000 0.53180  0.56060  0.13290  Biso   1.000  H
  C47      1.0000 0.40940  0.34400  0.26550  Biso   1.000  C
  H47      1.0000 0.51640  0.36100  0.25700  Biso   1.000  H
  C48      1.0000 0.15660  0.32090  0.25840  Biso   1.000  C
  H48      1.0000 0.04780  0.31770  0.24400  Biso   1.000  H
  N64      1.0000 0.22720  0.36060  0.04880  Biso   1.000  N
  N65      1.0000 0.29510  0.30810  0.96140  Biso   1.000  N
  N66      1.0000 0.12520  0.30190  0.96780  Biso   1.000  N
  N67      1.0000 0.27840  0.35350  0.22800  Biso   1.000  N
  N68      1.0000 0.20410  0.29360  0.31060  Biso   1.000  N
  N69      1.0000 0.36940  0.30820  0.31550  Biso   1.000  N
  N70      1.0000 0.28870  0.52860  0.12310  Biso   1.000  N
  N71      1.0000 0.21100  0.64320  0.10580  Biso   1.000  N
  N72      1.0000 0.37720  0.64430  0.11660  Biso   1.000  N
