data_image0
_cell_length_a       29.647
_cell_length_b       24.669
_cell_length_c       9.7421
_cell_angle_alpha    90
_cell_angle_beta     90
_cell_angle_gamma    90

_symmetry_space_group_name_H-M    "P 1"
_symmetry_int_tables_number       1

loop_
  _symmetry_equiv_pos_as_xyz
  'x, y, z'

loop_
  _atom_site_label
  _atom_site_occupancy
  _atom_site_fract_x
  _atom_site_fract_y
  _atom_site_fract_z
  _atom_site_thermal_displace_type
  _atom_site_B_iso_or_equiv
  _atom_site_type_symbol
  Zn1      1.0000 0.45812  0.23926  0.97830  Biso   1.000  Zn
  Zn2      1.0000 0.79653  0.18914  0.86100  Biso   1.000  Zn
  O1       1.0000 0.72317  0.22102  0.83570  Biso   1.000  O
  O2       1.0000 0.74316  0.13711  0.87550  Biso   1.000  O
  O3       1.0000 0.66737  0.25530  0.28070  Biso   1.000  O
  O4       1.0000 0.69947  0.20015  0.13430  Biso   1.000  O
  O5       1.0000 0.56286  0.29070  0.65140  Biso   1.000  O
  O6       1.0000 0.61675  0.22966  0.62750  Biso   1.000  O
  N1       1.0000 0.65256  0.63056  0.86520  Biso   1.000  N
  N2       1.0000 0.47645  0.31768  0.97360  Biso   1.000  N
  O7       1.0000 0.50976  0.19522  0.91410  Biso   1.000  O
  O8       1.0000 0.55102  0.23509  0.07830  Biso   1.000  O
  C1       1.0000 0.54704  0.20375  0.97870  Biso   1.000  C
  C2       1.0000 0.58608  0.17020  0.92960  Biso   1.000  C
  C3       1.0000 0.57710  0.11442  0.90810  Biso   1.000  C
  H1       1.0000 0.54780  0.10130  0.91650  Biso   1.000  H
  C4       1.0000 0.61180  0.07968  0.87470  Biso   1.000  C
  H2       1.0000 0.60610  0.04300  0.86140  Biso   1.000  H
  C5       1.0000 0.65578  0.09977  0.86080  Biso   1.000  C
  H3       1.0000 0.67920  0.07610  0.83970  Biso   1.000  H
  C6       1.0000 0.66481  0.15516  0.87830  Biso   1.000  C
  C7       1.0000 0.71332  0.17271  0.86290  Biso   1.000  C
  C8       1.0000 0.62978  0.19152  0.91130  Biso   1.000  C
  C9       1.0000 0.67547  0.24082  0.15760  Biso   1.000  C
  C10      1.0000 0.65542  0.27478  0.04460  Biso   1.000  C
  C11      1.0000 0.65581  0.33162  0.06400  Biso   1.000  C
  H4       1.0000 0.66790  0.34660  0.14350  Biso   1.000  H
  C12      1.0000 0.63795  0.36455  0.96300  Biso   1.000  C
  H5       1.0000 0.63880  0.40200  0.97400  Biso   1.000  H
  C13      1.0000 0.61898  0.34294  0.84670  Biso   1.000  C
  H6       1.0000 0.60660  0.36580  0.78070  Biso   1.000  H
  C14      1.0000 0.61823  0.28747  0.82710  Biso   1.000  C
  C15      1.0000 0.59874  0.26636  0.69340  Biso   1.000  C
  C16      1.0000 0.63644  0.25184  0.92570  Biso   1.000  C
  C17      1.0000 0.48771  0.34237  0.85550  Biso   1.000  C
  H7       1.0000 0.48050  0.32550  0.77290  Biso   1.000  H
  C18      1.0000 0.50946  0.39163  0.85220  Biso   1.000  C
  H8       1.0000 0.51590  0.40790  0.76830  Biso   1.000  H
  C19      1.0000 0.52176  0.41709  0.97330  Biso   1.000  C
  C20      1.0000 0.50862  0.39239  0.09590  Biso   1.000  C
  H9       1.0000 0.51460  0.40910  0.17950  Biso   1.000  H
  C21      1.0000 0.48664  0.34292  0.09210  Biso   1.000  C
  H10      1.0000 0.47860  0.32650  0.17450  Biso   1.000  H
  C22      1.0000 0.63740  0.60740  0.75360  Biso   1.000  C
  H11      1.0000 0.64610  0.62220  0.66980  Biso   1.000  H
  C23      1.0000 0.60941  0.56260  0.75110  Biso   1.000  C
  H12      1.0000 0.60050  0.54740  0.66820  Biso   1.000  H
  C24      1.0000 0.59489  0.54099  0.87410  Biso   1.000  C
  C25      1.0000 0.60874  0.56593  0.99210  Biso   1.000  C
  H13      1.0000 0.59870  0.55340  0.07670  Biso   1.000  H
  C26      1.0000 0.63789  0.61010  0.98600  Biso   1.000  C
  H14      1.0000 0.64760  0.62600  0.06730  Biso   1.000  H
  C27      1.0000 0.56582  0.49247  0.87140  Biso   1.000  C
  H15      1.0000 0.55880  0.47820  0.78560  Biso   1.000  H
  C28      1.0000 0.54877  0.46720  0.98050  Biso   1.000  C
  H16      1.0000 0.55420  0.48210  0.06660  Biso   1.000  H
  Zn3      1.0000 0.45812  0.73926  0.47830  Biso   1.000  Zn
  Zn4      1.0000 0.79653  0.68914  0.36100  Biso   1.000  Zn
  O9       1.0000 0.72317  0.72102  0.33570  Biso   1.000  O
  O10      1.0000 0.74316  0.63711  0.37550  Biso   1.000  O
  O11      1.0000 0.66737  0.75530  0.78070  Biso   1.000  O
  O12      1.0000 0.69947  0.70015  0.63430  Biso   1.000  O
  O13      1.0000 0.56286  0.79070  0.15140  Biso   1.000  O
  O14      1.0000 0.61675  0.72966  0.12750  Biso   1.000  O
  N3       1.0000 0.65256  0.13056  0.36520  Biso   1.000  N
  N4       1.0000 0.47645  0.81768  0.47360  Biso   1.000  N
  O15      1.0000 0.50976  0.69522  0.41410  Biso   1.000  O
  O16      1.0000 0.55102  0.73509  0.57830  Biso   1.000  O
  C29      1.0000 0.54704  0.70375  0.47870  Biso   1.000  C
  C30      1.0000 0.58608  0.67020  0.42960  Biso   1.000  C
  C31      1.0000 0.57710  0.61442  0.40810  Biso   1.000  C
  H17      1.0000 0.54780  0.60130  0.41650  Biso   1.000  H
  C32      1.0000 0.61180  0.57968  0.37470  Biso   1.000  C
  H18      1.0000 0.60610  0.54300  0.36140  Biso   1.000  H
  C33      1.0000 0.65578  0.59977  0.36080  Biso   1.000  C
  H19      1.0000 0.67920  0.57610  0.33970  Biso   1.000  H
  C34      1.0000 0.66481  0.65516  0.37830  Biso   1.000  C
  C35      1.0000 0.71332  0.67271  0.36290  Biso   1.000  C
  C36      1.0000 0.62978  0.69152  0.41130  Biso   1.000  C
  C37      1.0000 0.67547  0.74082  0.65760  Biso   1.000  C
  C38      1.0000 0.65542  0.77478  0.54460  Biso   1.000  C
  C39      1.0000 0.65581  0.83162  0.56400  Biso   1.000  C
  H20      1.0000 0.66790  0.84660  0.64350  Biso   1.000  H
  C40      1.0000 0.63795  0.86455  0.46300  Biso   1.000  C
  H21      1.0000 0.63880  0.90200  0.47400  Biso   1.000  H
  C41      1.0000 0.61898  0.84294  0.34670  Biso   1.000  C
  H22      1.0000 0.60660  0.86580  0.28070  Biso   1.000  H
  C42      1.0000 0.61823  0.78747  0.32710  Biso   1.000  C
  C43      1.0000 0.59874  0.76636  0.19340  Biso   1.000  C
  C44      1.0000 0.63644  0.75184  0.42570  Biso   1.000  C
  C45      1.0000 0.48771  0.84237  0.35550  Biso   1.000  C
  H23      1.0000 0.48050  0.82550  0.27290  Biso   1.000  H
  C46      1.0000 0.50946  0.89163  0.35220  Biso   1.000  C
  H24      1.0000 0.51590  0.90790  0.26830  Biso   1.000  H
  C47      1.0000 0.52176  0.91709  0.47330  Biso   1.000  C
  C48      1.0000 0.50862  0.89239  0.59590  Biso   1.000  C
  H25      1.0000 0.51460  0.90910  0.67950  Biso   1.000  H
  C49      1.0000 0.48664  0.84292  0.59210  Biso   1.000  C
  H26      1.0000 0.47860  0.82650  0.67450  Biso   1.000  H
  C50      1.0000 0.63740  0.10740  0.25360  Biso   1.000  C
  H27      1.0000 0.64610  0.12220  0.16980  Biso   1.000  H
  C51      1.0000 0.60941  0.06260  0.25110  Biso   1.000  C
  H28      1.0000 0.60050  0.04740  0.16820  Biso   1.000  H
  C52      1.0000 0.59489  0.04099  0.37410  Biso   1.000  C
  C53      1.0000 0.60874  0.06593  0.49210  Biso   1.000  C
  H29      1.0000 0.59870  0.05340  0.57670  Biso   1.000  H
  C54      1.0000 0.63789  0.11010  0.48600  Biso   1.000  C
  H30      1.0000 0.64760  0.12600  0.56730  Biso   1.000  H
  C55      1.0000 0.56582  0.99247  0.37140  Biso   1.000  C
  H31      1.0000 0.55880  0.97820  0.28560  Biso   1.000  H
  C56      1.0000 0.54877  0.96720  0.48050  Biso   1.000  C
  H32      1.0000 0.55420  0.98210  0.56660  Biso   1.000  H
  Zn5      1.0000 0.54188  0.76074  0.97830  Biso   1.000  Zn
  Zn6      1.0000 0.20347  0.81086  0.86100  Biso   1.000  Zn
  O17      1.0000 0.27683  0.77898  0.83570  Biso   1.000  O
  O18      1.0000 0.25684  0.86289  0.87550  Biso   1.000  O
  O19      1.0000 0.33263  0.74470  0.28070  Biso   1.000  O
  O20      1.0000 0.30053  0.79985  0.13430  Biso   1.000  O
  O21      1.0000 0.43714  0.70930  0.65140  Biso   1.000  O
  O22      1.0000 0.38325  0.77034  0.62750  Biso   1.000  O
  N5       1.0000 0.34744  0.36944  0.86520  Biso   1.000  N
  N6       1.0000 0.52355  0.68232  0.97360  Biso   1.000  N
  O23      1.0000 0.49024  0.80478  0.91410  Biso   1.000  O
  O24      1.0000 0.44898  0.76491  0.07830  Biso   1.000  O
  C57      1.0000 0.45296  0.79625  0.97870  Biso   1.000  C
  C58      1.0000 0.41392  0.82980  0.92960  Biso   1.000  C
  C59      1.0000 0.42290  0.88558  0.90810  Biso   1.000  C
  H33      1.0000 0.45220  0.89870  0.91650  Biso   1.000  H
  C60      1.0000 0.38820  0.92032  0.87470  Biso   1.000  C
  H34      1.0000 0.39390  0.95700  0.86140  Biso   1.000  H
  C61      1.0000 0.34422  0.90023  0.86080  Biso   1.000  C
  H35      1.0000 0.32080  0.92390  0.83970  Biso   1.000  H
  C62      1.0000 0.33519  0.84484  0.87830  Biso   1.000  C
  C63      1.0000 0.28668  0.82729  0.86290  Biso   1.000  C
  C64      1.0000 0.37022  0.80848  0.91130  Biso   1.000  C
  C65      1.0000 0.32453  0.75918  0.15760  Biso   1.000  C
  C66      1.0000 0.34458  0.72522  0.04460  Biso   1.000  C
  C67      1.0000 0.34419  0.66838  0.06400  Biso   1.000  C
  H36      1.0000 0.33210  0.65340  0.14350  Biso   1.000  H
  C68      1.0000 0.36205  0.63545  0.96300  Biso   1.000  C
  H37      1.0000 0.36120  0.59800  0.97400  Biso   1.000  H
  C69      1.0000 0.38102  0.65706  0.84670  Biso   1.000  C
  H38      1.0000 0.39340  0.63420  0.78070  Biso   1.000  H
  C70      1.0000 0.38177  0.71253  0.82710  Biso   1.000  C
  C71      1.0000 0.40126  0.73364  0.69340  Biso   1.000  C
  C72      1.0000 0.36356  0.74816  0.92570  Biso   1.000  C
  C73      1.0000 0.51229  0.65763  0.85550  Biso   1.000  C
  H39      1.0000 0.51950  0.67450  0.77290  Biso   1.000  H
  C74      1.0000 0.49054  0.60837  0.85220  Biso   1.000  C
  H40      1.0000 0.48410  0.59210  0.76830  Biso   1.000  H
  C75      1.0000 0.47824  0.58291  0.97330  Biso   1.000  C
  C76      1.0000 0.49138  0.60761  0.09590  Biso   1.000  C
  H41      1.0000 0.48540  0.59090  0.17950  Biso   1.000  H
  C77      1.0000 0.51336  0.65708  0.09210  Biso   1.000  C
  H42      1.0000 0.52140  0.67350  0.17450  Biso   1.000  H
  C78      1.0000 0.36260  0.39260  0.75360  Biso   1.000  C
  H43      1.0000 0.35390  0.37780  0.66980  Biso   1.000  H
  C79      1.0000 0.39059  0.43740  0.75110  Biso   1.000  C
  H44      1.0000 0.39950  0.45260  0.66820  Biso   1.000  H
  C80      1.0000 0.40511  0.45901  0.87410  Biso   1.000  C
  C81      1.0000 0.39126  0.43407  0.99210  Biso   1.000  C
  H45      1.0000 0.40130  0.44660  0.07670  Biso   1.000  H
  C82      1.0000 0.36211  0.38990  0.98600  Biso   1.000  C
  H46      1.0000 0.35240  0.37400  0.06730  Biso   1.000  H
  C83      1.0000 0.43418  0.50753  0.87140  Biso   1.000  C
  H47      1.0000 0.44120  0.52180  0.78560  Biso   1.000  H
  C84      1.0000 0.45123  0.53280  0.98050  Biso   1.000  C
  H48      1.0000 0.44580  0.51790  0.06660  Biso   1.000  H
  Zn7      1.0000 0.54188  0.26074  0.47830  Biso   1.000  Zn
  Zn8      1.0000 0.20347  0.31086  0.36100  Biso   1.000  Zn
  O25      1.0000 0.27683  0.27898  0.33570  Biso   1.000  O
  O26      1.0000 0.25684  0.36289  0.37550  Biso   1.000  O
  O27      1.0000 0.33263  0.24470  0.78070  Biso   1.000  O
  O28      1.0000 0.30053  0.29985  0.63430  Biso   1.000  O
  O29      1.0000 0.43714  0.20930  0.15140  Biso   1.000  O
  O30      1.0000 0.38325  0.27034  0.12750  Biso   1.000  O
  N7       1.0000 0.34744  0.86944  0.36520  Biso   1.000  N
  N8       1.0000 0.52355  0.18232  0.47360  Biso   1.000  N
  O31      1.0000 0.49024  0.30478  0.41410  Biso   1.000  O
  O32      1.0000 0.44898  0.26491  0.57830  Biso   1.000  O
  C85      1.0000 0.45296  0.29625  0.47870  Biso   1.000  C
  C86      1.0000 0.41392  0.32980  0.42960  Biso   1.000  C
  C87      1.0000 0.42290  0.38558  0.40810  Biso   1.000  C
  H49      1.0000 0.45220  0.39870  0.41650  Biso   1.000  H
  C88      1.0000 0.38820  0.42032  0.37470  Biso   1.000  C
  H50      1.0000 0.39390  0.45700  0.36140  Biso   1.000  H
  C89      1.0000 0.34422  0.40023  0.36080  Biso   1.000  C
  H51      1.0000 0.32080  0.42390  0.33970  Biso   1.000  H
  C90      1.0000 0.33519  0.34484  0.37830  Biso   1.000  C
  C91      1.0000 0.28668  0.32729  0.36290  Biso   1.000  C
  C92      1.0000 0.37022  0.30848  0.41130  Biso   1.000  C
  C93      1.0000 0.32453  0.25918  0.65760  Biso   1.000  C
  C94      1.0000 0.34458  0.22522  0.54460  Biso   1.000  C
  C95      1.0000 0.34419  0.16838  0.56400  Biso   1.000  C
  H52      1.0000 0.33210  0.15340  0.64350  Biso   1.000  H
  C96      1.0000 0.36205  0.13545  0.46300  Biso   1.000  C
  H53      1.0000 0.36120  0.09800  0.47400  Biso   1.000  H
  C97      1.0000 0.38102  0.15706  0.34670  Biso   1.000  C
  H54      1.0000 0.39340  0.13420  0.28070  Biso   1.000  H
  C98      1.0000 0.38177  0.21253  0.32710  Biso   1.000  C
  C99      1.0000 0.40126  0.23364  0.19340  Biso   1.000  C
  C100     1.0000 0.36356  0.24816  0.42570  Biso   1.000  C
  C101     1.0000 0.51229  0.15763  0.35550  Biso   1.000  C
  H55      1.0000 0.51950  0.17450  0.27290  Biso   1.000  H
  C102     1.0000 0.49054  0.10837  0.35220  Biso   1.000  C
  H56      1.0000 0.48410  0.09210  0.26830  Biso   1.000  H
  C103     1.0000 0.47824  0.08291  0.47330  Biso   1.000  C
  C104     1.0000 0.49138  0.10761  0.59590  Biso   1.000  C
  H57      1.0000 0.48540  0.09090  0.67950  Biso   1.000  H
  C105     1.0000 0.51336  0.15708  0.59210  Biso   1.000  C
  H58      1.0000 0.52140  0.17350  0.67450  Biso   1.000  H
  C106     1.0000 0.36260  0.89260  0.25360  Biso   1.000  C
  H59      1.0000 0.35390  0.87780  0.16980  Biso   1.000  H
  C107     1.0000 0.39059  0.93740  0.25110  Biso   1.000  C
  H60      1.0000 0.39950  0.95260  0.16820  Biso   1.000  H
  C108     1.0000 0.40511  0.95901  0.37410  Biso   1.000  C
  C109     1.0000 0.39126  0.93407  0.49210  Biso   1.000  C
  H61      1.0000 0.40130  0.94660  0.57670  Biso   1.000  H
  C110     1.0000 0.36211  0.88990  0.48600  Biso   1.000  C
  H62      1.0000 0.35240  0.87400  0.56730  Biso   1.000  H
  C111     1.0000 0.43418  0.00753  0.37140  Biso   1.000  C
  H63      1.0000 0.44120  0.02180  0.28560  Biso   1.000  H
  C112     1.0000 0.45123  0.03280  0.48050  Biso   1.000  C
  H64      1.0000 0.44580  0.01790  0.56660  Biso   1.000  H
  Zn9      1.0000 0.95812  0.26074  0.97830  Biso   1.000  Zn
  Zn10     1.0000 0.29653  0.31086  0.86100  Biso   1.000  Zn
  O33      1.0000 0.22317  0.27898  0.83570  Biso   1.000  O
  O34      1.0000 0.24316  0.36289  0.87550  Biso   1.000  O
  O35      1.0000 0.16737  0.24470  0.28070  Biso   1.000  O
  O36      1.0000 0.19947  0.29985  0.13430  Biso   1.000  O
  O37      1.0000 0.06286  0.20930  0.65140  Biso   1.000  O
  O38      1.0000 0.11675  0.27034  0.62750  Biso   1.000  O
  N9       1.0000 0.15256  0.86944  0.86520  Biso   1.000  N
  N10      1.0000 0.97645  0.18232  0.97360  Biso   1.000  N
  O39      1.0000 0.00976  0.30478  0.91410  Biso   1.000  O
  O40      1.0000 0.05102  0.26491  0.07830  Biso   1.000  O
  C113     1.0000 0.04704  0.29625  0.97870  Biso   1.000  C
  C114     1.0000 0.08608  0.32980  0.92960  Biso   1.000  C
  C115     1.0000 0.07710  0.38558  0.90810  Biso   1.000  C
  H65      1.0000 0.04780  0.39870  0.91650  Biso   1.000  H
  C116     1.0000 0.11180  0.42032  0.87470  Biso   1.000  C
  H66      1.0000 0.10610  0.45700  0.86140  Biso   1.000  H
  C117     1.0000 0.15578  0.40023  0.86080  Biso   1.000  C
  H67      1.0000 0.17920  0.42390  0.83970  Biso   1.000  H
  C118     1.0000 0.16481  0.34484  0.87830  Biso   1.000  C
  C119     1.0000 0.21332  0.32729  0.86290  Biso   1.000  C
  C120     1.0000 0.12978  0.30848  0.91130  Biso   1.000  C
  C121     1.0000 0.17547  0.25918  0.15760  Biso   1.000  C
  C122     1.0000 0.15542  0.22522  0.04460  Biso   1.000  C
  C123     1.0000 0.15581  0.16838  0.06400  Biso   1.000  C
  H68      1.0000 0.16790  0.15340  0.14350  Biso   1.000  H
  C124     1.0000 0.13795  0.13545  0.96300  Biso   1.000  C
  H69      1.0000 0.13880  0.09800  0.97400  Biso   1.000  H
  C125     1.0000 0.11898  0.15706  0.84670  Biso   1.000  C
  H70      1.0000 0.10660  0.13420  0.78070  Biso   1.000  H
  C126     1.0000 0.11823  0.21253  0.82710  Biso   1.000  C
  C127     1.0000 0.09874  0.23364  0.69340  Biso   1.000  C
  C128     1.0000 0.13644  0.24816  0.92570  Biso   1.000  C
  C129     1.0000 0.98771  0.15763  0.85550  Biso   1.000  C
  H71      1.0000 0.98050  0.17450  0.77290  Biso   1.000  H
  C130     1.0000 0.00946  0.10837  0.85220  Biso   1.000  C
  H72      1.0000 0.01590  0.09210  0.76830  Biso   1.000  H
  C131     1.0000 0.02176  0.08291  0.97330  Biso   1.000  C
  C132     1.0000 0.00862  0.10761  0.09590  Biso   1.000  C
  H73      1.0000 0.01460  0.09090  0.17950  Biso   1.000  H
  C133     1.0000 0.98664  0.15708  0.09210  Biso   1.000  C
  H74      1.0000 0.97860  0.17350  0.17450  Biso   1.000  H
  C134     1.0000 0.13740  0.89260  0.75360  Biso   1.000  C
  H75      1.0000 0.14610  0.87780  0.66980  Biso   1.000  H
  C135     1.0000 0.10941  0.93740  0.75110  Biso   1.000  C
  H76      1.0000 0.10050  0.95260  0.66820  Biso   1.000  H
  C136     1.0000 0.09489  0.95901  0.87410  Biso   1.000  C
  C137     1.0000 0.10874  0.93407  0.99210  Biso   1.000  C
  H77      1.0000 0.09870  0.94660  0.07670  Biso   1.000  H
  C138     1.0000 0.13789  0.88990  0.98600  Biso   1.000  C
  H78      1.0000 0.14760  0.87400  0.06730  Biso   1.000  H
  C139     1.0000 0.06582  0.00753  0.87140  Biso   1.000  C
  H79      1.0000 0.05880  0.02180  0.78560  Biso   1.000  H
  C140     1.0000 0.04877  0.03280  0.98050  Biso   1.000  C
  H80      1.0000 0.05420  0.01790  0.06660  Biso   1.000  H
  Zn11     1.0000 0.95812  0.76074  0.47830  Biso   1.000  Zn
  Zn12     1.0000 0.29653  0.81086  0.36100  Biso   1.000  Zn
  O41      1.0000 0.22317  0.77898  0.33570  Biso   1.000  O
  O42      1.0000 0.24316  0.86289  0.37550  Biso   1.000  O
  O43      1.0000 0.16737  0.74470  0.78070  Biso   1.000  O
  O44      1.0000 0.19947  0.79985  0.63430  Biso   1.000  O
  O45      1.0000 0.06286  0.70930  0.15140  Biso   1.000  O
  O46      1.0000 0.11675  0.77034  0.12750  Biso   1.000  O
  N11      1.0000 0.15256  0.36944  0.36520  Biso   1.000  N
  N12      1.0000 0.97645  0.68232  0.47360  Biso   1.000  N
  O47      1.0000 0.00976  0.80478  0.41410  Biso   1.000  O
  O48      1.0000 0.05102  0.76491  0.57830  Biso   1.000  O
  C141     1.0000 0.04704  0.79625  0.47870  Biso   1.000  C
  C142     1.0000 0.08608  0.82980  0.42960  Biso   1.000  C
  C143     1.0000 0.07710  0.88558  0.40810  Biso   1.000  C
  H81      1.0000 0.04780  0.89870  0.41650  Biso   1.000  H
  C144     1.0000 0.11180  0.92032  0.37470  Biso   1.000  C
  H82      1.0000 0.10610  0.95700  0.36140  Biso   1.000  H
  C145     1.0000 0.15578  0.90023  0.36080  Biso   1.000  C
  H83      1.0000 0.17920  0.92390  0.33970  Biso   1.000  H
  C146     1.0000 0.16481  0.84484  0.37830  Biso   1.000  C
  C147     1.0000 0.21332  0.82729  0.36290  Biso   1.000  C
  C148     1.0000 0.12978  0.80848  0.41130  Biso   1.000  C
  C149     1.0000 0.17547  0.75918  0.65760  Biso   1.000  C
  C150     1.0000 0.15542  0.72522  0.54460  Biso   1.000  C
  C151     1.0000 0.15581  0.66838  0.56400  Biso   1.000  C
  H84      1.0000 0.16790  0.65340  0.64350  Biso   1.000  H
  C152     1.0000 0.13795  0.63545  0.46300  Biso   1.000  C
  H85      1.0000 0.13880  0.59800  0.47400  Biso   1.000  H
  C153     1.0000 0.11898  0.65706  0.34670  Biso   1.000  C
  H86      1.0000 0.10660  0.63420  0.28070  Biso   1.000  H
  C154     1.0000 0.11823  0.71253  0.32710  Biso   1.000  C
  C155     1.0000 0.09874  0.73364  0.19340  Biso   1.000  C
  C156     1.0000 0.13644  0.74816  0.42570  Biso   1.000  C
  C157     1.0000 0.98771  0.65763  0.35550  Biso   1.000  C
  H87      1.0000 0.98050  0.67450  0.27290  Biso   1.000  H
  C158     1.0000 0.00946  0.60837  0.35220  Biso   1.000  C
  H88      1.0000 0.01590  0.59210  0.26830  Biso   1.000  H
  C159     1.0000 0.02176  0.58291  0.47330  Biso   1.000  C
  C160     1.0000 0.00862  0.60761  0.59590  Biso   1.000  C
  H89      1.0000 0.01460  0.59090  0.67950  Biso   1.000  H
  C161     1.0000 0.98664  0.65708  0.59210  Biso   1.000  C
  H90      1.0000 0.97860  0.67350  0.67450  Biso   1.000  H
  C162     1.0000 0.13740  0.39260  0.25360  Biso   1.000  C
  H91      1.0000 0.14610  0.37780  0.16980  Biso   1.000  H
  C163     1.0000 0.10941  0.43740  0.25110  Biso   1.000  C
  H92      1.0000 0.10050  0.45260  0.16820  Biso   1.000  H
  C164     1.0000 0.09489  0.45901  0.37410  Biso   1.000  C
  C165     1.0000 0.10874  0.43407  0.49210  Biso   1.000  C
  H93      1.0000 0.09870  0.44660  0.57670  Biso   1.000  H
  C166     1.0000 0.13789  0.38990  0.48600  Biso   1.000  C
  H94      1.0000 0.14760  0.37400  0.56730  Biso   1.000  H
  C167     1.0000 0.06582  0.50753  0.37140  Biso   1.000  C
  H95      1.0000 0.05880  0.52180  0.28560  Biso   1.000  H
  C168     1.0000 0.04877  0.53280  0.48050  Biso   1.000  C
  H96      1.0000 0.05420  0.51790  0.56660  Biso   1.000  H
  Zn13     1.0000 0.04188  0.73926  0.97830  Biso   1.000  Zn
  Zn14     1.0000 0.70347  0.68914  0.86100  Biso   1.000  Zn
  O49      1.0000 0.77683  0.72102  0.83570  Biso   1.000  O
  O50      1.0000 0.75684  0.63711  0.87550  Biso   1.000  O
  O51      1.0000 0.83263  0.75530  0.28070  Biso   1.000  O
  O52      1.0000 0.80053  0.70015  0.13430  Biso   1.000  O
  O53      1.0000 0.93714  0.79070  0.65140  Biso   1.000  O
  O54      1.0000 0.88325  0.72966  0.62750  Biso   1.000  O
  N13      1.0000 0.84744  0.13056  0.86520  Biso   1.000  N
  N14      1.0000 0.02355  0.81768  0.97360  Biso   1.000  N
  O55      1.0000 0.99024  0.69522  0.91410  Biso   1.000  O
  O56      1.0000 0.94898  0.73509  0.07830  Biso   1.000  O
  C169     1.0000 0.95296  0.70375  0.97870  Biso   1.000  C
  C170     1.0000 0.91392  0.67020  0.92960  Biso   1.000  C
  C171     1.0000 0.92290  0.61442  0.90810  Biso   1.000  C
  H97      1.0000 0.95220  0.60130  0.91650  Biso   1.000  H
  C172     1.0000 0.88820  0.57968  0.87470  Biso   1.000  C
  H98      1.0000 0.89390  0.54300  0.86140  Biso   1.000  H
  C173     1.0000 0.84422  0.59977  0.86080  Biso   1.000  C
  H99      1.0000 0.82080  0.57610  0.83970  Biso   1.000  H
  C174     1.0000 0.83519  0.65516  0.87830  Biso   1.000  C
  C175     1.0000 0.78668  0.67271  0.86290  Biso   1.000  C
  C176     1.0000 0.87022  0.69152  0.91130  Biso   1.000  C
  C177     1.0000 0.82453  0.74082  0.15760  Biso   1.000  C
  C178     1.0000 0.84458  0.77478  0.04460  Biso   1.000  C
  C179     1.0000 0.84419  0.83162  0.06400  Biso   1.000  C
  H100     1.0000 0.83210  0.84660  0.14350  Biso   1.000  H
  C180     1.0000 0.86205  0.86455  0.96300  Biso   1.000  C
  H101     1.0000 0.86120  0.90200  0.97400  Biso   1.000  H
  C181     1.0000 0.88102  0.84294  0.84670  Biso   1.000  C
  H102     1.0000 0.89340  0.86580  0.78070  Biso   1.000  H
  C182     1.0000 0.88177  0.78747  0.82710  Biso   1.000  C
  C183     1.0000 0.90126  0.76636  0.69340  Biso   1.000  C
  C184     1.0000 0.86356  0.75184  0.92570  Biso   1.000  C
  C185     1.0000 0.01229  0.84237  0.85550  Biso   1.000  C
  H103     1.0000 0.01950  0.82550  0.77290  Biso   1.000  H
  C186     1.0000 0.99054  0.89163  0.85220  Biso   1.000  C
  H104     1.0000 0.98410  0.90790  0.76830  Biso   1.000  H
  C187     1.0000 0.97824  0.91709  0.97330  Biso   1.000  C
  C188     1.0000 0.99138  0.89239  0.09590  Biso   1.000  C
  H105     1.0000 0.98540  0.90910  0.17950  Biso   1.000  H
  C189     1.0000 0.01336  0.84292  0.09210  Biso   1.000  C
  H106     1.0000 0.02140  0.82650  0.17450  Biso   1.000  H
  C190     1.0000 0.86260  0.10740  0.75360  Biso   1.000  C
  H107     1.0000 0.85390  0.12220  0.66980  Biso   1.000  H
  C191     1.0000 0.89059  0.06260  0.75110  Biso   1.000  C
  H108     1.0000 0.89950  0.04740  0.66820  Biso   1.000  H
  C192     1.0000 0.90511  0.04099  0.87410  Biso   1.000  C
  C193     1.0000 0.89126  0.06593  0.99210  Biso   1.000  C
  H109     1.0000 0.90130  0.05340  0.07670  Biso   1.000  H
  C194     1.0000 0.86211  0.11010  0.98600  Biso   1.000  C
  H110     1.0000 0.85240  0.12600  0.06730  Biso   1.000  H
  C195     1.0000 0.93418  0.99247  0.87140  Biso   1.000  C
  H111     1.0000 0.94120  0.97820  0.78560  Biso   1.000  H
  C196     1.0000 0.95123  0.96720  0.98050  Biso   1.000  C
  H112     1.0000 0.94580  0.98210  0.06660  Biso   1.000  H
  Zn15     1.0000 0.04188  0.23926  0.47830  Biso   1.000  Zn
  Zn16     1.0000 0.70347  0.18914  0.36100  Biso   1.000  Zn
  O57      1.0000 0.77683  0.22102  0.33570  Biso   1.000  O
  O58      1.0000 0.75684  0.13711  0.37550  Biso   1.000  O
  O59      1.0000 0.83263  0.25530  0.78070  Biso   1.000  O
  O60      1.0000 0.80053  0.20015  0.63430  Biso   1.000  O
  O61      1.0000 0.93714  0.29070  0.15140  Biso   1.000  O
  O62      1.0000 0.88325  0.22966  0.12750  Biso   1.000  O
  N15      1.0000 0.84744  0.63056  0.36520  Biso   1.000  N
  N16      1.0000 0.02355  0.31768  0.47360  Biso   1.000  N
  O63      1.0000 0.99024  0.19522  0.41410  Biso   1.000  O
  O64      1.0000 0.94898  0.23509  0.57830  Biso   1.000  O
  C197     1.0000 0.95296  0.20375  0.47870  Biso   1.000  C
  C198     1.0000 0.91392  0.17020  0.42960  Biso   1.000  C
  C199     1.0000 0.92290  0.11442  0.40810  Biso   1.000  C
  H113     1.0000 0.95220  0.10130  0.41650  Biso   1.000  H
  C200     1.0000 0.88820  0.07968  0.37470  Biso   1.000  C
  H114     1.0000 0.89390  0.04300  0.36140  Biso   1.000  H
  C201     1.0000 0.84422  0.09977  0.36080  Biso   1.000  C
  H115     1.0000 0.82080  0.07610  0.33970  Biso   1.000  H
  C202     1.0000 0.83519  0.15516  0.37830  Biso   1.000  C
  C203     1.0000 0.78668  0.17271  0.36290  Biso   1.000  C
  C204     1.0000 0.87022  0.19152  0.41130  Biso   1.000  C
  C205     1.0000 0.82453  0.24082  0.65760  Biso   1.000  C
  C206     1.0000 0.84458  0.27478  0.54460  Biso   1.000  C
  C207     1.0000 0.84419  0.33162  0.56400  Biso   1.000  C
  H116     1.0000 0.83210  0.34660  0.64350  Biso   1.000  H
  C208     1.0000 0.86205  0.36455  0.46300  Biso   1.000  C
  H117     1.0000 0.86120  0.40200  0.47400  Biso   1.000  H
  C209     1.0000 0.88102  0.34294  0.34670  Biso   1.000  C
  H118     1.0000 0.89340  0.36580  0.28070  Biso   1.000  H
  C210     1.0000 0.88177  0.28747  0.32710  Biso   1.000  C
  C211     1.0000 0.90126  0.26636  0.19340  Biso   1.000  C
  C212     1.0000 0.86356  0.25184  0.42570  Biso   1.000  C
  C213     1.0000 0.01229  0.34237  0.35550  Biso   1.000  C
  H119     1.0000 0.01950  0.32550  0.27290  Biso   1.000  H
  C214     1.0000 0.99054  0.39163  0.35220  Biso   1.000  C
  H120     1.0000 0.98410  0.40790  0.26830  Biso   1.000  H
  C215     1.0000 0.97824  0.41709  0.47330  Biso   1.000  C
  C216     1.0000 0.99138  0.39239  0.59590  Biso   1.000  C
  H121     1.0000 0.98540  0.40910  0.67950  Biso   1.000  H
  C217     1.0000 0.01336  0.34292  0.59210  Biso   1.000  C
  H122     1.0000 0.02140  0.32650  0.67450  Biso   1.000  H
  C218     1.0000 0.86260  0.60740  0.25360  Biso   1.000  C
  H123     1.0000 0.85390  0.62220  0.16980  Biso   1.000  H
  C219     1.0000 0.89059  0.56260  0.25110  Biso   1.000  C
  H124     1.0000 0.89950  0.54740  0.16820  Biso   1.000  H
  C220     1.0000 0.90511  0.54099  0.37410  Biso   1.000  C
  C221     1.0000 0.89126  0.56593  0.49210  Biso   1.000  C
  H125     1.0000 0.90130  0.55340  0.57670  Biso   1.000  H
  C222     1.0000 0.86211  0.61010  0.48600  Biso   1.000  C
  H126     1.0000 0.85240  0.62600  0.56730  Biso   1.000  H
  C223     1.0000 0.93418  0.49247  0.37140  Biso   1.000  C
  H127     1.0000 0.94120  0.47820  0.28560  Biso   1.000  H
  C224     1.0000 0.95123  0.46720  0.48050  Biso   1.000  C
  H128     1.0000 0.94580  0.48210  0.56660  Biso   1.000  H
