data_MURCAD_clean
_audit_creation_date              2014-07-02
_audit_creation_method            'Materials Studio'
_symmetry_space_group_name_H-M    'P1'
_symmetry_Int_Tables_number       1
_symmetry_cell_setting            triclinic
loop_
_symmetry_equiv_pos_as_xyz
  x,y,z
_cell_length_a                    10.1540
_cell_length_b                    10.1540
_cell_length_c                    15.5121
_cell_angle_alpha                 72.0821
_cell_angle_beta                  72.0821
_cell_angle_gamma                 86.5078
loop_
_atom_site_label
_atom_site_type_symbol
_atom_site_fract_x
_atom_site_fract_y
_atom_site_fract_z
_atom_site_U_iso_or_equiv
_atom_site_adp_type
_atom_site_occupancy
Cu1    Cu    0.55399   0.00801   0.31352   0.01267  Uiso   1.00
Cu2    Cu    0.99199   0.44601   0.18648   0.01267  Uiso   1.00
Cu3    Cu    0.44601   0.99199   0.68648   0.01267  Uiso   1.00
Cu4    Cu    0.00801   0.55399   0.81352   0.01267  Uiso   1.00
H1     H     0.83800   0.15400   0.02600   0.01267  Uiso   1.00
H2     H     0.77600   0.20000   0.31100   0.01267  Uiso   1.00
H3     H     0.42900   0.25700   0.37400   0.01267  Uiso   1.00
H4     H     0.57200   0.23200   0.40600   0.01267  Uiso   1.00
H5     H     0.43800   0.27800   0.21700   0.01267  Uiso   1.00
H6     H     0.59700   0.24900   0.15400   0.01267  Uiso   1.00
H7     H     0.40200   0.48400   0.27300   0.01267  Uiso   1.00
H8     H     0.84600   0.16200   0.47400   0.01267  Uiso   1.00
H9     H     0.80000   0.22400   0.18900   0.01267  Uiso   1.00
H10    H     0.74300   0.57100   0.12600   0.01267  Uiso   1.00
H11    H     0.76800   0.42800   0.09400   0.01267  Uiso   1.00
H12    H     0.72200   0.56200   0.28300   0.01267  Uiso   1.00
H13    H     0.75100   0.40300   0.34600   0.01267  Uiso   1.00
H14    H     0.51600   0.59800   0.22700   0.01267  Uiso   1.00
H15    H     0.16200   0.84600   0.97400   0.01267  Uiso   1.00
H16    H     0.22400   0.80000   0.68900   0.01267  Uiso   1.00
H17    H     0.57100   0.74300   0.62600   0.01267  Uiso   1.00
H18    H     0.42800   0.76800   0.59400   0.01267  Uiso   1.00
H19    H     0.56200   0.72200   0.78300   0.01267  Uiso   1.00
H20    H     0.40300   0.75100   0.84600   0.01267  Uiso   1.00
H21    H     0.59800   0.51600   0.72700   0.01267  Uiso   1.00
H22    H     0.15400   0.83800   0.52600   0.01267  Uiso   1.00
H23    H     0.20000   0.77600   0.81100   0.01267  Uiso   1.00
H24    H     0.25700   0.42900   0.87400   0.01267  Uiso   1.00
H25    H     0.23200   0.57200   0.90600   0.01267  Uiso   1.00
H26    H     0.27800   0.43800   0.71700   0.01267  Uiso   1.00
H27    H     0.24900   0.59700   0.65400   0.01267  Uiso   1.00
H28    H     0.48400   0.40200   0.77300   0.01267  Uiso   1.00
C1     C     0.87960   0.96180   0.07670   0.01267  Uiso   1.00
C2     C     0.98080   0.86500   0.06110   0.01267  Uiso   1.00
C3     C     0.90190   0.09450   0.01590   0.01267  Uiso   1.00
C4     C     0.74710   0.92250   0.15630   0.01267  Uiso   1.00
C5     C     0.96830   0.72050   0.12850   0.01267  Uiso   1.00
C6     C     0.52850   0.27630   0.35880   0.01267  Uiso   1.00
C7     C     0.54700   0.29540   0.19640   0.01267  Uiso   1.00
C8     C     0.03820   0.12040   0.42330   0.01267  Uiso   1.00
C9     C     0.13500   0.01920   0.43890   0.01267  Uiso   1.00
C10    C     0.90550   0.09810   0.48410   0.01267  Uiso   1.00
C11    C     0.07750   0.25290   0.34370   0.01267  Uiso   1.00
C12    C     0.27950   0.03170   0.37150   0.01267  Uiso   1.00
C13    C     0.72370   0.47150   0.14120   0.01267  Uiso   1.00
C14    C     0.70460   0.45300   0.30360   0.01267  Uiso   1.00
C15    C     0.12040   0.03820   0.92330   0.01267  Uiso   1.00
C16    C     0.01920   0.13500   0.93890   0.01267  Uiso   1.00
C17    C     0.09810   0.90550   0.98410   0.01267  Uiso   1.00
C18    C     0.25290   0.07750   0.84370   0.01267  Uiso   1.00
C19    C     0.03170   0.27950   0.87150   0.01267  Uiso   1.00
C20    C     0.47150   0.72370   0.64120   0.01267  Uiso   1.00
C21    C     0.45300   0.70460   0.80360   0.01267  Uiso   1.00
C22    C     0.96180   0.87960   0.57670   0.01267  Uiso   1.00
C23    C     0.86500   0.98080   0.56110   0.01267  Uiso   1.00
C24    C     0.09450   0.90190   0.51590   0.01267  Uiso   1.00
C25    C     0.92250   0.74710   0.65630   0.01267  Uiso   1.00
C26    C     0.72050   0.96830   0.62850   0.01267  Uiso   1.00
C27    C     0.27630   0.52850   0.85880   0.01267  Uiso   1.00
C28    C     0.29540   0.54700   0.69640   0.01267  Uiso   1.00
C29    C     0.74910   0.25090   0.25000   0.01267  Uiso   1.00
C30    C     0.50580   0.49420   0.25000   0.01267  Uiso   1.00
C31    C     0.25090   0.74910   0.75000   0.01267  Uiso   1.00
C32    C     0.49420   0.50580   0.75000   0.01267  Uiso   1.00
N1     N     0.59710   0.21930   0.27860   0.01267  Uiso   1.00
N2     N     0.55700   0.42500   0.33130   0.01267  Uiso   1.00
N3     N     0.78070   0.40290   0.22140   0.01267  Uiso   1.00
N4     N     0.57500   0.44300   0.16870   0.01267  Uiso   1.00
N5     N     0.40290   0.78070   0.72140   0.01267  Uiso   1.00
N6     N     0.44300   0.57500   0.66870   0.01267  Uiso   1.00
N7     N     0.21930   0.59710   0.77860   0.01267  Uiso   1.00
N8     N     0.42500   0.55700   0.83130   0.01267  Uiso   1.00
O1     O     0.70380   0.01160   0.19910   0.01267  Uiso   1.00
O2     O     0.68640   0.81100   0.17310   0.01267  Uiso   1.00
O3     O     0.98630   0.62350   0.08920   0.01267  Uiso   1.00
O4     O     0.94620   0.70040   0.21310   0.01267  Uiso   1.00
O5     O     0.98840   0.29620   0.30090   0.01267  Uiso   1.00
O6     O     0.18900   0.31360   0.32690   0.01267  Uiso   1.00
O7     O     0.37650   0.01370   0.41080   0.01267  Uiso   1.00
O8     O     0.29960   0.05380   0.28690   0.01267  Uiso   1.00
O9     O     0.29620   0.98840   0.80090   0.01267  Uiso   1.00
O10    O     0.31360   0.18900   0.82690   0.01267  Uiso   1.00
O11    O     0.01370   0.37650   0.91080   0.01267  Uiso   1.00
O12    O     0.05380   0.29960   0.78690   0.01267  Uiso   1.00
O13    O     0.01160   0.70380   0.69910   0.01267  Uiso   1.00
O14    O     0.81100   0.68640   0.67310   0.01267  Uiso   1.00
O15    O     0.62350   0.98630   0.58920   0.01267  Uiso   1.00
O16    O     0.70040   0.94620   0.71310   0.01267  Uiso   1.00
