data_MURNIX_clean
_audit_creation_date              2014-07-02
_audit_creation_method            'Materials Studio'
_symmetry_space_group_name_H-M    'P1'
_symmetry_Int_Tables_number       1
_symmetry_cell_setting            triclinic
loop_
_symmetry_equiv_pos_as_xyz
  x,y,z
_cell_length_a                    7.8958
_cell_length_b                    9.6083
_cell_length_c                    15.5140
_cell_angle_alpha                 101.8500
_cell_angle_beta                  90.0000
_cell_angle_gamma                 90.0000
loop_
_atom_site_label
_atom_site_type_symbol
_atom_site_fract_x
_atom_site_fract_y
_atom_site_fract_z
_atom_site_U_iso_or_equiv
_atom_site_adp_type
_atom_site_occupancy
Sm1    Sm    0.39843   0.51074   0.54203   0.01267  Uiso   1.00
Sm2    Sm    0.38659   0.01618   0.53690   0.01267  Uiso   1.00
Sm3    Sm    0.89843   0.48926   0.45797   0.01267  Uiso   1.00
Sm4    Sm    0.88659   0.98382   0.46310   0.01267  Uiso   1.00
Cu1    Cu    0.54380   0.74651   0.00557   0.01267  Uiso   1.00
Cu2    Cu    0.04380   0.25349   0.99443   0.01267  Uiso   1.00
H1     H     0.58340   0.63040   0.80740   0.01267  Uiso   1.00
H2     H     0.06200   0.89280   0.89300   0.01267  Uiso   1.00
H3     H     0.02070   0.78340   0.74150   0.01267  Uiso   1.00
H4     H     0.02520   0.59800   0.11170   0.01267  Uiso   1.00
H5     H     0.00510   0.75580   0.24470   0.01267  Uiso   1.00
H6     H     0.47010   0.89760   0.20020   0.01267  Uiso   1.00
H7     H     0.08340   0.36960   0.19260   0.01267  Uiso   1.00
H8     H     0.56200   0.10720   0.10700   0.01267  Uiso   1.00
H9     H     0.52070   0.21660   0.25850   0.01267  Uiso   1.00
H10    H     0.52520   0.40200   0.88830   0.01267  Uiso   1.00
H11    H     0.50510   0.24420   0.75530   0.01267  Uiso   1.00
H12    H     0.97010   0.10240   0.79980   0.01267  Uiso   1.00
C1     C     0.74850   0.63360   0.66340   0.01267  Uiso   1.00
C2     C     0.79910   0.70190   0.76150   0.01267  Uiso   1.00
C3     C     0.67950   0.68500   0.82460   0.01267  Uiso   1.00
C4     C     0.84130   0.82510   0.93330   0.01267  Uiso   1.00
C5     C     0.96450   0.84080   0.87470   0.01267  Uiso   1.00
C6     C     0.93980   0.77490   0.78370   0.01267  Uiso   1.00
C7     C     0.83420   0.90140   0.02890   0.01267  Uiso   1.00
C8     C     0.25410   0.58570   0.98000   0.01267  Uiso   1.00
C9     C     0.24160   0.67300   0.07430   0.01267  Uiso   1.00
C10    C     0.11000   0.66510   0.12900   0.01267  Uiso   1.00
C11    C     0.10050   0.75460   0.20940   0.01267  Uiso   1.00
C12    C     0.23730   0.84420   0.23720   0.01267  Uiso   1.00
C13    C     0.37580   0.84150   0.18140   0.01267  Uiso   1.00
C14    C     0.22880   0.94460   0.32650   0.01267  Uiso   1.00
C15    C     0.18160   0.26680   0.54520   0.01267  Uiso   1.00
C16    C     0.70600   0.24400   0.48100   0.01267  Uiso   1.00
C17    C     0.24850   0.36640   0.33660   0.01267  Uiso   1.00
C18    C     0.29910   0.29810   0.23850   0.01267  Uiso   1.00
C19    C     0.17950   0.31500   0.17540   0.01267  Uiso   1.00
C20    C     0.34130   0.17490   0.06670   0.01267  Uiso   1.00
C21    C     0.46450   0.15920   0.12530   0.01267  Uiso   1.00
C22    C     0.43980   0.22510   0.21630   0.01267  Uiso   1.00
C23    C     0.33420   0.09860   0.97110   0.01267  Uiso   1.00
C24    C     0.75410   0.41430   0.02000   0.01267  Uiso   1.00
C25    C     0.74160   0.32700   0.92570   0.01267  Uiso   1.00
C26    C     0.61000   0.33490   0.87100   0.01267  Uiso   1.00
C27    C     0.60050   0.24540   0.79060   0.01267  Uiso   1.00
C28    C     0.73730   0.15580   0.76280   0.01267  Uiso   1.00
C29    C     0.87580   0.15850   0.81860   0.01267  Uiso   1.00
C30    C     0.72880   0.05540   0.67350   0.01267  Uiso   1.00
C31    C     0.68160   0.73320   0.45480   0.01267  Uiso   1.00
C32    C     0.20600   0.75600   0.51900   0.01267  Uiso   1.00
N1     N     0.70090   0.74600   0.90890   0.01267  Uiso   1.00
N2     N     0.37400   0.75740   0.09940   0.01267  Uiso   1.00
N3     N     0.20090   0.25400   0.09110   0.01267  Uiso   1.00
N4     N     0.87400   0.24260   0.90060   0.01267  Uiso   1.00
O1     O     0.59910   0.60660   0.65110   0.01267  Uiso   1.00
O2     O     0.87330   0.61930   0.61000   0.01267  Uiso   1.00
O3     O     0.71490   0.86650   0.07370   0.01267  Uiso   1.00
O4     O     0.94420   0.99180   0.05650   0.01267  Uiso   1.00
O5     O     0.37570   0.62490   0.93520   0.01267  Uiso   1.00
O6     O     0.15520   0.48860   0.95350   0.01267  Uiso   1.00
O7     O     0.36350   0.97890   0.36910   0.01267  Uiso   1.00
O8     O     0.07990   0.98570   0.34920   0.01267  Uiso   1.00
O9     O     0.33580   0.27200   0.56790   0.01267  Uiso   1.00
O10    O     0.10980   0.14510   0.53010   0.01267  Uiso   1.00
O11    O     0.10480   0.38200   0.53850   0.01267  Uiso   1.00
O12    O     0.65610   0.37190   0.51320   0.01267  Uiso   1.00
O13    O     0.83490   0.22660   0.43020   0.01267  Uiso   1.00
O14    O     0.63730   0.13390   0.50170   0.01267  Uiso   1.00
O15    O     0.09910   0.39340   0.34890   0.01267  Uiso   1.00
O16    O     0.37330   0.38070   0.39000   0.01267  Uiso   1.00
O17    O     0.21490   0.13350   0.92630   0.01267  Uiso   1.00
O18    O     0.44420   0.00820   0.94350   0.01267  Uiso   1.00
O19    O     0.87570   0.37510   0.06480   0.01267  Uiso   1.00
O20    O     0.65520   0.51140   0.04650   0.01267  Uiso   1.00
O21    O     0.86350   0.02110   0.63090   0.01267  Uiso   1.00
O22    O     0.57990   0.01430   0.65080   0.01267  Uiso   1.00
O23    O     0.83580   0.72800   0.43210   0.01267  Uiso   1.00
O24    O     0.60980   0.85490   0.46990   0.01267  Uiso   1.00
O25    O     0.60480   0.61800   0.46150   0.01267  Uiso   1.00
O26    O     0.15610   0.62810   0.48680   0.01267  Uiso   1.00
O27    O     0.33490   0.77340   0.56980   0.01267  Uiso   1.00
O28    O     0.13730   0.86610   0.49830   0.01267  Uiso   1.00
