data_image0
_cell_length_a       12.6846
_cell_length_b       21.7379
_cell_length_c       21.2802
_cell_angle_alpha    90
_cell_angle_beta     90
_cell_angle_gamma    90

_symmetry_space_group_name_H-M    "P 1"
_symmetry_int_tables_number       1

loop_
  _symmetry_equiv_pos_as_xyz
  'x, y, z'

loop_
  _atom_site_label
  _atom_site_occupancy
  _atom_site_fract_x
  _atom_site_fract_y
  _atom_site_fract_z
  _atom_site_thermal_displace_type
  _atom_site_B_iso_or_equiv
  _atom_site_type_symbol
  C1       1.0000 0.87040  0.01640  0.09470  Biso   1.000  C
  C2       1.0000 0.79040  0.99410  0.14160  Biso   1.000  C
  H1       1.0000 0.72830  0.97950  0.11950  Biso   1.000  H
  H2       1.0000 0.81950  0.95990  0.16510  Biso   1.000  H
  C3       1.0000 0.65610  0.03020  0.21510  Biso   1.000  C
  H3       1.0000 0.60440  0.02290  0.18230  Biso   1.000  H
  H4       1.0000 0.63340  0.06580  0.23900  Biso   1.000  H
  C4       1.0000 0.66030  0.97460  0.25830  Biso   1.000  C
  H5       1.0000 0.59140  0.96880  0.27710  Biso   1.000  H
  H6       1.0000 0.67590  0.93840  0.23330  Biso   1.000  H
  C5       1.0000 0.84300  0.99530  0.28100  Biso   1.000  C
  H7       1.0000 0.86880  0.96000  0.25770  Biso   1.000  H
  H8       1.0000 0.89300  0.00380  0.31440  Biso   1.000  H
  C6       1.0000 0.83830  0.05090  0.23680  Biso   1.000  C
  H9       1.0000 0.82090  0.08730  0.26100  Biso   1.000  H
  H10      1.0000 0.90750  0.05730  0.21840  Biso   1.000  H
  C7       1.0000 0.70790  0.02470  0.35710  Biso   1.000  C
  H11      1.0000 0.67660  0.06010  0.33670  Biso   1.000  H
  H12      1.0000 0.76960  0.03850  0.38000  Biso   1.000  H
  C8       1.0000 0.62940  0.99720  0.40280  Biso   1.000  C
  C9       1.0000 0.33900  0.09160  0.49060  Biso   1.000  C
  C10      1.0000 0.25840  0.13825  0.51262  Biso   1.000  C
  H13      1.0000 0.19130  0.11800  0.51960  Biso   1.000  H
  H14      1.0000 0.28120  0.15610  0.55210  Biso   1.000  H
  C11      1.0000 0.34200  0.22500  0.46770  Biso   1.000  C
  H15      1.0000 0.40230  0.20020  0.45570  Biso   1.000  H
  H16      1.0000 0.35320  0.23960  0.51020  Biso   1.000  H
  C12      1.0000 0.33210  0.27960  0.42330  Biso   1.000  C
  H17      1.0000 0.39660  0.30350  0.42530  Biso   1.000  H
  H18      1.0000 0.32520  0.26430  0.38060  Biso   1.000  H
  C13      1.0000 0.14640  0.28280  0.44030  Biso   1.000  C
  H19      1.0000 0.12870  0.26870  0.39840  Biso   1.000  H
  H20      1.0000 0.08880  0.30840  0.45490  Biso   1.000  H
  C14      1.0000 0.15520  0.22700  0.48340  Biso   1.000  C
  H21      1.0000 0.16420  0.24080  0.52640  Biso   1.000  H
  H22      1.0000 0.09050  0.20330  0.48120  Biso   1.000  H
  C15      1.0000 0.26010  0.35747  0.49344  Biso   1.000  C
  H23      1.0000 0.28680  0.33140  0.52680  Biso   1.000  H
  H24      1.0000 0.19400  0.37540  0.50740  Biso   1.000  H
  C16      1.0000 0.33960  0.40870  0.47930  Biso   1.000  C
  N1       1.0000 0.75980  0.04356  0.18557  Biso   1.000  N
  N2       1.0000 0.73980  0.97956  0.30931  Biso   1.000  N
  N3       1.0000 0.24570  0.18720  0.46538  Biso   1.000  N
  N4       1.0000 0.24230  0.32067  0.43661  Biso   1.000  N
  O1       1.0000 0.88080  0.07191  0.08318  Biso   1.000  O
  O2       1.0000 0.92400  0.97469  0.06808  Biso   1.000  O
  O3       1.0000 0.61990  0.94126  0.40802  Biso   1.000  O
  O4       1.0000 0.57950  0.03629  0.43616  Biso   1.000  O
  O5       1.0000 0.39050  0.06435  0.53304  Biso   1.000  O
  O6       1.0000 0.34960  0.08180  0.43350  Biso   1.000  O
  O7       1.0000 0.38990  0.43054  0.52547  Biso   1.000  O
  O8       1.0000 0.34880  0.42781  0.42521  Biso   1.000  O
  Zn1      1.0000 0.75917  0.12803  0.12517  Biso   1.000  Zn
  Zn2      1.0000 0.74004  0.88965  0.35921  Biso   1.000  Zn
  C17      1.0000 0.37040  0.51640  0.09470  Biso   1.000  C
  C18      1.0000 0.29040  0.49410  0.14160  Biso   1.000  C
  H25      1.0000 0.22830  0.47950  0.11950  Biso   1.000  H
  H26      1.0000 0.31950  0.45990  0.16510  Biso   1.000  H
  C19      1.0000 0.15610  0.53020  0.21510  Biso   1.000  C
  H27      1.0000 0.10440  0.52290  0.18230  Biso   1.000  H
  H28      1.0000 0.13340  0.56580  0.23900  Biso   1.000  H
  C20      1.0000 0.16030  0.47460  0.25830  Biso   1.000  C
  H29      1.0000 0.09140  0.46880  0.27710  Biso   1.000  H
  H30      1.0000 0.17590  0.43840  0.23330  Biso   1.000  H
  C21      1.0000 0.34300  0.49530  0.28100  Biso   1.000  C
  H31      1.0000 0.36880  0.46000  0.25770  Biso   1.000  H
  H32      1.0000 0.39300  0.50380  0.31440  Biso   1.000  H
  C22      1.0000 0.33830  0.55090  0.23680  Biso   1.000  C
  H33      1.0000 0.32090  0.58730  0.26100  Biso   1.000  H
  H34      1.0000 0.40750  0.55730  0.21840  Biso   1.000  H
  C23      1.0000 0.20790  0.52470  0.35710  Biso   1.000  C
  H35      1.0000 0.17660  0.56010  0.33670  Biso   1.000  H
  H36      1.0000 0.26960  0.53850  0.38000  Biso   1.000  H
  C24      1.0000 0.12940  0.49720  0.40280  Biso   1.000  C
  C25      1.0000 0.83900  0.59160  0.49060  Biso   1.000  C
  C26      1.0000 0.75840  0.63825  0.51262  Biso   1.000  C
  H37      1.0000 0.69130  0.61800  0.51960  Biso   1.000  H
  H38      1.0000 0.78120  0.65610  0.55210  Biso   1.000  H
  C27      1.0000 0.84200  0.72500  0.46770  Biso   1.000  C
  H39      1.0000 0.90230  0.70020  0.45570  Biso   1.000  H
  H40      1.0000 0.85320  0.73960  0.51020  Biso   1.000  H
  C28      1.0000 0.83210  0.77960  0.42330  Biso   1.000  C
  H41      1.0000 0.89660  0.80350  0.42530  Biso   1.000  H
  H42      1.0000 0.82520  0.76430  0.38060  Biso   1.000  H
  C29      1.0000 0.64640  0.78280  0.44030  Biso   1.000  C
  H43      1.0000 0.62870  0.76870  0.39840  Biso   1.000  H
  H44      1.0000 0.58880  0.80840  0.45490  Biso   1.000  H
  C30      1.0000 0.65520  0.72700  0.48340  Biso   1.000  C
  H45      1.0000 0.66420  0.74080  0.52640  Biso   1.000  H
  H46      1.0000 0.59050  0.70330  0.48120  Biso   1.000  H
  C31      1.0000 0.76010  0.85747  0.49344  Biso   1.000  C
  H47      1.0000 0.78680  0.83140  0.52680  Biso   1.000  H
  H48      1.0000 0.69400  0.87540  0.50740  Biso   1.000  H
  C32      1.0000 0.83960  0.90870  0.47930  Biso   1.000  C
  N5       1.0000 0.25980  0.54356  0.18557  Biso   1.000  N
  N6       1.0000 0.23980  0.47956  0.30931  Biso   1.000  N
  N7       1.0000 0.74570  0.68720  0.46538  Biso   1.000  N
  N8       1.0000 0.74230  0.82067  0.43661  Biso   1.000  N
  O9       1.0000 0.38080  0.57191  0.08318  Biso   1.000  O
  O10      1.0000 0.42400  0.47469  0.06808  Biso   1.000  O
  O11      1.0000 0.11990  0.44126  0.40802  Biso   1.000  O
  O12      1.0000 0.07950  0.53629  0.43616  Biso   1.000  O
  O13      1.0000 0.89050  0.56435  0.53304  Biso   1.000  O
  O14      1.0000 0.84960  0.58180  0.43350  Biso   1.000  O
  O15      1.0000 0.88990  0.93054  0.52547  Biso   1.000  O
  O16      1.0000 0.84880  0.92781  0.42521  Biso   1.000  O
  Zn3      1.0000 0.25917  0.62803  0.12517  Biso   1.000  Zn
  Zn4      1.0000 0.24004  0.38965  0.35921  Biso   1.000  Zn
  C33      1.0000 0.12960  0.98360  0.59470  Biso   1.000  C
  C34      1.0000 0.20960  0.00590  0.64160  Biso   1.000  C
  H49      1.0000 0.27170  0.02050  0.61950  Biso   1.000  H
  H50      1.0000 0.18050  0.04010  0.66510  Biso   1.000  H
  C35      1.0000 0.34390  0.96980  0.71510  Biso   1.000  C
  H51      1.0000 0.39560  0.97710  0.68230  Biso   1.000  H
  H52      1.0000 0.36660  0.93420  0.73900  Biso   1.000  H
  C36      1.0000 0.33970  0.02540  0.75830  Biso   1.000  C
  H53      1.0000 0.40860  0.03120  0.77710  Biso   1.000  H
  H54      1.0000 0.32410  0.06160  0.73330  Biso   1.000  H
  C37      1.0000 0.15700  0.00470  0.78100  Biso   1.000  C
  H55      1.0000 0.13120  0.04000  0.75770  Biso   1.000  H
  H56      1.0000 0.10700  0.99620  0.81440  Biso   1.000  H
  C38      1.0000 0.16170  0.94910  0.73680  Biso   1.000  C
  H57      1.0000 0.17910  0.91270  0.76100  Biso   1.000  H
  H58      1.0000 0.09250  0.94270  0.71840  Biso   1.000  H
  C39      1.0000 0.29210  0.97530  0.85710  Biso   1.000  C
  H59      1.0000 0.32340  0.93990  0.83670  Biso   1.000  H
  H60      1.0000 0.23040  0.96150  0.88000  Biso   1.000  H
  C40      1.0000 0.37060  0.00280  0.90280  Biso   1.000  C
  C41      1.0000 0.66100  0.90840  0.99060  Biso   1.000  C
  C42      1.0000 0.74160  0.86175  0.01262  Biso   1.000  C
  H61      1.0000 0.80870  0.88200  0.01960  Biso   1.000  H
  H62      1.0000 0.71880  0.84390  0.05210  Biso   1.000  H
  C43      1.0000 0.65800  0.77500  0.96770  Biso   1.000  C
  H63      1.0000 0.59770  0.79980  0.95570  Biso   1.000  H
  H64      1.0000 0.64680  0.76040  0.01020  Biso   1.000  H
  C44      1.0000 0.66790  0.72040  0.92330  Biso   1.000  C
  H65      1.0000 0.60340  0.69650  0.92530  Biso   1.000  H
  H66      1.0000 0.67480  0.73570  0.88060  Biso   1.000  H
  C45      1.0000 0.85360  0.71720  0.94030  Biso   1.000  C
  H67      1.0000 0.87130  0.73130  0.89840  Biso   1.000  H
  H68      1.0000 0.91120  0.69160  0.95490  Biso   1.000  H
  C46      1.0000 0.84480  0.77300  0.98340  Biso   1.000  C
  H69      1.0000 0.83580  0.75920  0.02640  Biso   1.000  H
  H70      1.0000 0.90950  0.79670  0.98120  Biso   1.000  H
  C47      1.0000 0.73990  0.64253  0.99344  Biso   1.000  C
  H71      1.0000 0.71320  0.66860  0.02680  Biso   1.000  H
  H72      1.0000 0.80600  0.62460  0.00740  Biso   1.000  H
  C48      1.0000 0.66040  0.59130  0.97930  Biso   1.000  C
  N9       1.0000 0.24020  0.95644  0.68557  Biso   1.000  N
  N10      1.0000 0.26020  0.02044  0.80931  Biso   1.000  N
  N11      1.0000 0.75430  0.81280  0.96538  Biso   1.000  N
  N12      1.0000 0.75770  0.67933  0.93661  Biso   1.000  N
  O17      1.0000 0.11920  0.92809  0.58318  Biso   1.000  O
  O18      1.0000 0.07600  0.02531  0.56808  Biso   1.000  O
  O19      1.0000 0.38010  0.05874  0.90802  Biso   1.000  O
  O20      1.0000 0.42050  0.96371  0.93616  Biso   1.000  O
  O21      1.0000 0.60950  0.93565  0.03304  Biso   1.000  O
  O22      1.0000 0.65040  0.91820  0.93350  Biso   1.000  O
  O23      1.0000 0.61010  0.56946  0.02547  Biso   1.000  O
  O24      1.0000 0.65120  0.57219  0.92521  Biso   1.000  O
  Zn5      1.0000 0.24083  0.87197  0.62517  Biso   1.000  Zn
  Zn6      1.0000 0.25996  0.11035  0.85921  Biso   1.000  Zn
  C49      1.0000 0.62960  0.48360  0.59470  Biso   1.000  C
  C50      1.0000 0.70960  0.50590  0.64160  Biso   1.000  C
  H73      1.0000 0.77170  0.52050  0.61950  Biso   1.000  H
  H74      1.0000 0.68050  0.54010  0.66510  Biso   1.000  H
  C51      1.0000 0.84390  0.46980  0.71510  Biso   1.000  C
  H75      1.0000 0.89560  0.47710  0.68230  Biso   1.000  H
  H76      1.0000 0.86660  0.43420  0.73900  Biso   1.000  H
  C52      1.0000 0.83970  0.52540  0.75830  Biso   1.000  C
  H77      1.0000 0.90860  0.53120  0.77710  Biso   1.000  H
  H78      1.0000 0.82410  0.56160  0.73330  Biso   1.000  H
  C53      1.0000 0.65700  0.50470  0.78100  Biso   1.000  C
  H79      1.0000 0.63120  0.54000  0.75770  Biso   1.000  H
  H80      1.0000 0.60700  0.49620  0.81440  Biso   1.000  H
  C54      1.0000 0.66170  0.44910  0.73680  Biso   1.000  C
  H81      1.0000 0.67910  0.41270  0.76100  Biso   1.000  H
  H82      1.0000 0.59250  0.44270  0.71840  Biso   1.000  H
  C55      1.0000 0.79210  0.47530  0.85710  Biso   1.000  C
  H83      1.0000 0.82340  0.43990  0.83670  Biso   1.000  H
  H84      1.0000 0.73040  0.46150  0.88000  Biso   1.000  H
  C56      1.0000 0.87060  0.50280  0.90280  Biso   1.000  C
  C57      1.0000 0.16100  0.40840  0.99060  Biso   1.000  C
  C58      1.0000 0.24160  0.36175  0.01262  Biso   1.000  C
  H85      1.0000 0.30870  0.38200  0.01960  Biso   1.000  H
  H86      1.0000 0.21880  0.34390  0.05210  Biso   1.000  H
  C59      1.0000 0.15800  0.27500  0.96770  Biso   1.000  C
  H87      1.0000 0.09770  0.29980  0.95570  Biso   1.000  H
  H88      1.0000 0.14680  0.26040  0.01020  Biso   1.000  H
  C60      1.0000 0.16790  0.22040  0.92330  Biso   1.000  C
  H89      1.0000 0.10340  0.19650  0.92530  Biso   1.000  H
  H90      1.0000 0.17480  0.23570  0.88060  Biso   1.000  H
  C61      1.0000 0.35360  0.21720  0.94030  Biso   1.000  C
  H91      1.0000 0.37130  0.23130  0.89840  Biso   1.000  H
  H92      1.0000 0.41120  0.19160  0.95490  Biso   1.000  H
  C62      1.0000 0.34480  0.27300  0.98340  Biso   1.000  C
  H93      1.0000 0.33580  0.25920  0.02640  Biso   1.000  H
  H94      1.0000 0.40950  0.29670  0.98120  Biso   1.000  H
  C63      1.0000 0.23990  0.14253  0.99344  Biso   1.000  C
  H95      1.0000 0.21320  0.16860  0.02680  Biso   1.000  H
  H96      1.0000 0.30600  0.12460  0.00740  Biso   1.000  H
  C64      1.0000 0.16040  0.09130  0.97930  Biso   1.000  C
  N13      1.0000 0.74020  0.45644  0.68557  Biso   1.000  N
  N14      1.0000 0.76020  0.52044  0.80931  Biso   1.000  N
  N15      1.0000 0.25430  0.31280  0.96538  Biso   1.000  N
  N16      1.0000 0.25770  0.17933  0.93661  Biso   1.000  N
  O25      1.0000 0.61920  0.42809  0.58318  Biso   1.000  O
  O26      1.0000 0.57600  0.52531  0.56808  Biso   1.000  O
  O27      1.0000 0.88010  0.55874  0.90802  Biso   1.000  O
  O28      1.0000 0.92050  0.46371  0.93616  Biso   1.000  O
  O29      1.0000 0.10950  0.43565  0.03304  Biso   1.000  O
  O30      1.0000 0.15040  0.41820  0.93350  Biso   1.000  O
  O31      1.0000 0.11010  0.06946  0.02547  Biso   1.000  O
  O32      1.0000 0.15120  0.07219  0.92521  Biso   1.000  O
  Zn7      1.0000 0.74083  0.37197  0.62517  Biso   1.000  Zn
  Zn8      1.0000 0.75996  0.61035  0.85921  Biso   1.000  Zn
  C65      1.0000 0.12960  0.01640  0.40530  Biso   1.000  C
  C66      1.0000 0.20960  0.99410  0.35840  Biso   1.000  C
  H97      1.0000 0.27170  0.97950  0.38050  Biso   1.000  H
  H98      1.0000 0.18050  0.95990  0.33490  Biso   1.000  H
  C67      1.0000 0.34390  0.03020  0.28490  Biso   1.000  C
  H99      1.0000 0.39560  0.02290  0.31770  Biso   1.000  H
  H100     1.0000 0.36660  0.06580  0.26100  Biso   1.000  H
  C68      1.0000 0.33970  0.97460  0.24170  Biso   1.000  C
  H101     1.0000 0.40860  0.96880  0.22290  Biso   1.000  H
  H102     1.0000 0.32410  0.93840  0.26670  Biso   1.000  H
  C69      1.0000 0.15700  0.99530  0.21900  Biso   1.000  C
  H103     1.0000 0.13120  0.96000  0.24230  Biso   1.000  H
  H104     1.0000 0.10700  0.00380  0.18560  Biso   1.000  H
  C70      1.0000 0.16170  0.05090  0.26320  Biso   1.000  C
  H105     1.0000 0.17910  0.08730  0.23900  Biso   1.000  H
  H106     1.0000 0.09250  0.05730  0.28160  Biso   1.000  H
  C71      1.0000 0.29210  0.02470  0.14290  Biso   1.000  C
  H107     1.0000 0.32340  0.06010  0.16330  Biso   1.000  H
  H108     1.0000 0.23040  0.03850  0.12000  Biso   1.000  H
  C72      1.0000 0.37060  0.99720  0.09720  Biso   1.000  C
  C73      1.0000 0.66100  0.09160  0.00940  Biso   1.000  C
  C74      1.0000 0.74160  0.13825  0.98738  Biso   1.000  C
  H109     1.0000 0.80870  0.11800  0.98040  Biso   1.000  H
  H110     1.0000 0.71880  0.15610  0.94790  Biso   1.000  H
  C75      1.0000 0.65800  0.22500  0.03230  Biso   1.000  C
  H111     1.0000 0.59770  0.20020  0.04430  Biso   1.000  H
  H112     1.0000 0.64680  0.23960  0.98980  Biso   1.000  H
  C76      1.0000 0.66790  0.27960  0.07670  Biso   1.000  C
  H113     1.0000 0.60340  0.30350  0.07470  Biso   1.000  H
  H114     1.0000 0.67480  0.26430  0.11940  Biso   1.000  H
  C77      1.0000 0.85360  0.28280  0.05970  Biso   1.000  C
  H115     1.0000 0.87130  0.26870  0.10160  Biso   1.000  H
  H116     1.0000 0.91120  0.30840  0.04510  Biso   1.000  H
  C78      1.0000 0.84480  0.22700  0.01660  Biso   1.000  C
  H117     1.0000 0.83580  0.24080  0.97360  Biso   1.000  H
  H118     1.0000 0.90950  0.20330  0.01880  Biso   1.000  H
  C79      1.0000 0.73990  0.35747  0.00656  Biso   1.000  C
  H119     1.0000 0.71320  0.33140  0.97320  Biso   1.000  H
  H120     1.0000 0.80600  0.37540  0.99260  Biso   1.000  H
  C80      1.0000 0.66040  0.40870  0.02070  Biso   1.000  C
  N17      1.0000 0.24020  0.04356  0.31443  Biso   1.000  N
  N18      1.0000 0.26020  0.97956  0.19069  Biso   1.000  N
  N19      1.0000 0.75430  0.18720  0.03462  Biso   1.000  N
  N20      1.0000 0.75770  0.32067  0.06339  Biso   1.000  N
  O33      1.0000 0.11920  0.07191  0.41682  Biso   1.000  O
  O34      1.0000 0.07600  0.97469  0.43192  Biso   1.000  O
  O35      1.0000 0.38010  0.94126  0.09198  Biso   1.000  O
  O36      1.0000 0.42050  0.03629  0.06384  Biso   1.000  O
  O37      1.0000 0.60950  0.06435  0.96696  Biso   1.000  O
  O38      1.0000 0.65040  0.08180  0.06650  Biso   1.000  O
  O39      1.0000 0.61010  0.43054  0.97453  Biso   1.000  O
  O40      1.0000 0.65120  0.42781  0.07479  Biso   1.000  O
  Zn9      1.0000 0.24083  0.12803  0.37483  Biso   1.000  Zn
  Zn10     1.0000 0.25996  0.88965  0.14079  Biso   1.000  Zn
  C81      1.0000 0.62960  0.51640  0.40530  Biso   1.000  C
  C82      1.0000 0.70960  0.49410  0.35840  Biso   1.000  C
  H121     1.0000 0.77170  0.47950  0.38050  Biso   1.000  H
  H122     1.0000 0.68050  0.45990  0.33490  Biso   1.000  H
  C83      1.0000 0.84390  0.53020  0.28490  Biso   1.000  C
  H123     1.0000 0.89560  0.52290  0.31770  Biso   1.000  H
  H124     1.0000 0.86660  0.56580  0.26100  Biso   1.000  H
  C84      1.0000 0.83970  0.47460  0.24170  Biso   1.000  C
  H125     1.0000 0.90860  0.46880  0.22290  Biso   1.000  H
  H126     1.0000 0.82410  0.43840  0.26670  Biso   1.000  H
  C85      1.0000 0.65700  0.49530  0.21900  Biso   1.000  C
  H127     1.0000 0.63120  0.46000  0.24230  Biso   1.000  H
  H128     1.0000 0.60700  0.50380  0.18560  Biso   1.000  H
  C86      1.0000 0.66170  0.55090  0.26320  Biso   1.000  C
  H129     1.0000 0.67910  0.58730  0.23900  Biso   1.000  H
  H130     1.0000 0.59250  0.55730  0.28160  Biso   1.000  H
  C87      1.0000 0.79210  0.52470  0.14290  Biso   1.000  C
  H131     1.0000 0.82340  0.56010  0.16330  Biso   1.000  H
  H132     1.0000 0.73040  0.53850  0.12000  Biso   1.000  H
  C88      1.0000 0.87060  0.49720  0.09720  Biso   1.000  C
  C89      1.0000 0.16100  0.59160  0.00940  Biso   1.000  C
  C90      1.0000 0.24160  0.63825  0.98738  Biso   1.000  C
  H133     1.0000 0.30870  0.61800  0.98040  Biso   1.000  H
  H134     1.0000 0.21880  0.65610  0.94790  Biso   1.000  H
  C91      1.0000 0.15800  0.72500  0.03230  Biso   1.000  C
  H135     1.0000 0.09770  0.70020  0.04430  Biso   1.000  H
  H136     1.0000 0.14680  0.73960  0.98980  Biso   1.000  H
  C92      1.0000 0.16790  0.77960  0.07670  Biso   1.000  C
  H137     1.0000 0.10340  0.80350  0.07470  Biso   1.000  H
  H138     1.0000 0.17480  0.76430  0.11940  Biso   1.000  H
  C93      1.0000 0.35360  0.78280  0.05970  Biso   1.000  C
  H139     1.0000 0.37130  0.76870  0.10160  Biso   1.000  H
  H140     1.0000 0.41120  0.80840  0.04510  Biso   1.000  H
  C94      1.0000 0.34480  0.72700  0.01660  Biso   1.000  C
  H141     1.0000 0.33580  0.74080  0.97360  Biso   1.000  H
  H142     1.0000 0.40950  0.70330  0.01880  Biso   1.000  H
  C95      1.0000 0.23990  0.85747  0.00656  Biso   1.000  C
  H143     1.0000 0.21320  0.83140  0.97320  Biso   1.000  H
  H144     1.0000 0.30600  0.87540  0.99260  Biso   1.000  H
  C96      1.0000 0.16040  0.90870  0.02070  Biso   1.000  C
  N21      1.0000 0.74020  0.54356  0.31443  Biso   1.000  N
  N22      1.0000 0.76020  0.47956  0.19069  Biso   1.000  N
  N23      1.0000 0.25430  0.68720  0.03462  Biso   1.000  N
  N24      1.0000 0.25770  0.82067  0.06339  Biso   1.000  N
  O41      1.0000 0.61920  0.57191  0.41682  Biso   1.000  O
  O42      1.0000 0.57600  0.47469  0.43192  Biso   1.000  O
  O43      1.0000 0.88010  0.44126  0.09198  Biso   1.000  O
  O44      1.0000 0.92050  0.53629  0.06384  Biso   1.000  O
  O45      1.0000 0.10950  0.56435  0.96696  Biso   1.000  O
  O46      1.0000 0.15040  0.58180  0.06650  Biso   1.000  O
  O47      1.0000 0.11010  0.93054  0.97453  Biso   1.000  O
  O48      1.0000 0.15120  0.92781  0.07479  Biso   1.000  O
  Zn11     1.0000 0.74083  0.62803  0.37483  Biso   1.000  Zn
  Zn12     1.0000 0.75996  0.38965  0.14079  Biso   1.000  Zn
  C97      1.0000 0.87040  0.98360  0.90530  Biso   1.000  C
  C98      1.0000 0.79040  0.00590  0.85840  Biso   1.000  C
  H145     1.0000 0.72830  0.02050  0.88050  Biso   1.000  H
  H146     1.0000 0.81950  0.04010  0.83490  Biso   1.000  H
  C99      1.0000 0.65610  0.96980  0.78490  Biso   1.000  C
  H147     1.0000 0.60440  0.97710  0.81770  Biso   1.000  H
  H148     1.0000 0.63340  0.93420  0.76100  Biso   1.000  H
  C100     1.0000 0.66030  0.02540  0.74170  Biso   1.000  C
  H149     1.0000 0.59140  0.03120  0.72290  Biso   1.000  H
  H150     1.0000 0.67590  0.06160  0.76670  Biso   1.000  H
  C101     1.0000 0.84300  0.00470  0.71900  Biso   1.000  C
  H151     1.0000 0.86880  0.04000  0.74230  Biso   1.000  H
  H152     1.0000 0.89300  0.99620  0.68560  Biso   1.000  H
  C102     1.0000 0.83830  0.94910  0.76320  Biso   1.000  C
  H153     1.0000 0.82090  0.91270  0.73900  Biso   1.000  H
  H154     1.0000 0.90750  0.94270  0.78160  Biso   1.000  H
  C103     1.0000 0.70790  0.97530  0.64290  Biso   1.000  C
  H155     1.0000 0.67660  0.93990  0.66330  Biso   1.000  H
  H156     1.0000 0.76960  0.96150  0.62000  Biso   1.000  H
  C104     1.0000 0.62940  0.00280  0.59720  Biso   1.000  C
  C105     1.0000 0.33900  0.90840  0.50940  Biso   1.000  C
  C106     1.0000 0.25840  0.86175  0.48738  Biso   1.000  C
  H157     1.0000 0.19130  0.88200  0.48040  Biso   1.000  H
  H158     1.0000 0.28120  0.84390  0.44790  Biso   1.000  H
  C107     1.0000 0.34200  0.77500  0.53230  Biso   1.000  C
  H159     1.0000 0.40230  0.79980  0.54430  Biso   1.000  H
  H160     1.0000 0.35320  0.76040  0.48980  Biso   1.000  H
  C108     1.0000 0.33210  0.72040  0.57670  Biso   1.000  C
  H161     1.0000 0.39660  0.69650  0.57470  Biso   1.000  H
  H162     1.0000 0.32520  0.73570  0.61940  Biso   1.000  H
  C109     1.0000 0.14640  0.71720  0.55970  Biso   1.000  C
  H163     1.0000 0.12870  0.73130  0.60160  Biso   1.000  H
  H164     1.0000 0.08880  0.69160  0.54510  Biso   1.000  H
  C110     1.0000 0.15520  0.77300  0.51660  Biso   1.000  C
  H165     1.0000 0.16420  0.75920  0.47360  Biso   1.000  H
  H166     1.0000 0.09050  0.79670  0.51880  Biso   1.000  H
  C111     1.0000 0.26010  0.64253  0.50656  Biso   1.000  C
  H167     1.0000 0.28680  0.66860  0.47320  Biso   1.000  H
  H168     1.0000 0.19400  0.62460  0.49260  Biso   1.000  H
  C112     1.0000 0.33960  0.59130  0.52070  Biso   1.000  C
  N25      1.0000 0.75980  0.95644  0.81443  Biso   1.000  N
  N26      1.0000 0.73980  0.02044  0.69069  Biso   1.000  N
  N27      1.0000 0.24570  0.81280  0.53462  Biso   1.000  N
  N28      1.0000 0.24230  0.67933  0.56339  Biso   1.000  N
  O49      1.0000 0.88080  0.92809  0.91682  Biso   1.000  O
  O50      1.0000 0.92400  0.02531  0.93192  Biso   1.000  O
  O51      1.0000 0.61990  0.05874  0.59198  Biso   1.000  O
  O52      1.0000 0.57950  0.96371  0.56384  Biso   1.000  O
  O53      1.0000 0.39050  0.93565  0.46696  Biso   1.000  O
  O54      1.0000 0.34960  0.91820  0.56650  Biso   1.000  O
  O55      1.0000 0.38990  0.56946  0.47453  Biso   1.000  O
  O56      1.0000 0.34880  0.57219  0.57479  Biso   1.000  O
  Zn13     1.0000 0.75917  0.87197  0.87483  Biso   1.000  Zn
  Zn14     1.0000 0.74004  0.11035  0.64079  Biso   1.000  Zn
  C113     1.0000 0.37040  0.48360  0.90530  Biso   1.000  C
  C114     1.0000 0.29040  0.50590  0.85840  Biso   1.000  C
  H169     1.0000 0.22830  0.52050  0.88050  Biso   1.000  H
  H170     1.0000 0.31950  0.54010  0.83490  Biso   1.000  H
  C115     1.0000 0.15610  0.46980  0.78490  Biso   1.000  C
  H171     1.0000 0.10440  0.47710  0.81770  Biso   1.000  H
  H172     1.0000 0.13340  0.43420  0.76100  Biso   1.000  H
  C116     1.0000 0.16030  0.52540  0.74170  Biso   1.000  C
  H173     1.0000 0.09140  0.53120  0.72290  Biso   1.000  H
  H174     1.0000 0.17590  0.56160  0.76670  Biso   1.000  H
  C117     1.0000 0.34300  0.50470  0.71900  Biso   1.000  C
  H175     1.0000 0.36880  0.54000  0.74230  Biso   1.000  H
  H176     1.0000 0.39300  0.49620  0.68560  Biso   1.000  H
  C118     1.0000 0.33830  0.44910  0.76320  Biso   1.000  C
  H177     1.0000 0.32090  0.41270  0.73900  Biso   1.000  H
  H178     1.0000 0.40750  0.44270  0.78160  Biso   1.000  H
  C119     1.0000 0.20790  0.47530  0.64290  Biso   1.000  C
  H179     1.0000 0.17660  0.43990  0.66330  Biso   1.000  H
  H180     1.0000 0.26960  0.46150  0.62000  Biso   1.000  H
  C120     1.0000 0.12940  0.50280  0.59720  Biso   1.000  C
  C121     1.0000 0.83900  0.40840  0.50940  Biso   1.000  C
  C122     1.0000 0.75840  0.36175  0.48738  Biso   1.000  C
  H181     1.0000 0.69130  0.38200  0.48040  Biso   1.000  H
  H182     1.0000 0.78120  0.34390  0.44790  Biso   1.000  H
  C123     1.0000 0.84200  0.27500  0.53230  Biso   1.000  C
  H183     1.0000 0.90230  0.29980  0.54430  Biso   1.000  H
  H184     1.0000 0.85320  0.26040  0.48980  Biso   1.000  H
  C124     1.0000 0.83210  0.22040  0.57670  Biso   1.000  C
  H185     1.0000 0.89660  0.19650  0.57470  Biso   1.000  H
  H186     1.0000 0.82520  0.23570  0.61940  Biso   1.000  H
  C125     1.0000 0.64640  0.21720  0.55970  Biso   1.000  C
  H187     1.0000 0.62870  0.23130  0.60160  Biso   1.000  H
  H188     1.0000 0.58880  0.19160  0.54510  Biso   1.000  H
  C126     1.0000 0.65520  0.27300  0.51660  Biso   1.000  C
  H189     1.0000 0.66420  0.25920  0.47360  Biso   1.000  H
  H190     1.0000 0.59050  0.29670  0.51880  Biso   1.000  H
  C127     1.0000 0.76010  0.14253  0.50656  Biso   1.000  C
  H191     1.0000 0.78680  0.16860  0.47320  Biso   1.000  H
  H192     1.0000 0.69400  0.12460  0.49260  Biso   1.000  H
  C128     1.0000 0.83960  0.09130  0.52070  Biso   1.000  C
  N29      1.0000 0.25980  0.45644  0.81443  Biso   1.000  N
  N30      1.0000 0.23980  0.52044  0.69069  Biso   1.000  N
  N31      1.0000 0.74570  0.31280  0.53462  Biso   1.000  N
  N32      1.0000 0.74230  0.17933  0.56339  Biso   1.000  N
  O57      1.0000 0.38080  0.42809  0.91682  Biso   1.000  O
  O58      1.0000 0.42400  0.52531  0.93192  Biso   1.000  O
  O59      1.0000 0.11990  0.55874  0.59198  Biso   1.000  O
  O60      1.0000 0.07950  0.46371  0.56384  Biso   1.000  O
  O61      1.0000 0.89050  0.43565  0.46696  Biso   1.000  O
  O62      1.0000 0.84960  0.41820  0.56650  Biso   1.000  O
  O63      1.0000 0.88990  0.06946  0.47453  Biso   1.000  O
  O64      1.0000 0.84880  0.07219  0.57479  Biso   1.000  O
  Zn15     1.0000 0.25917  0.37197  0.87483  Biso   1.000  Zn
  Zn16     1.0000 0.24004  0.61035  0.64079  Biso   1.000  Zn
  Zn17     1.0000 0.01961  0.00000  0.00000  Biso   1.000  Zn
  Zn18     1.0000 0.51961  0.50000  0.00000  Biso   1.000  Zn
  Zn19     1.0000 0.98039  0.00000  0.50000  Biso   1.000  Zn
  Zn20     1.0000 0.48039  0.50000  0.50000  Biso   1.000  Zn
  Zn21     1.0000 0.48620  0.00000  0.50000  Biso   1.000  Zn
  Zn22     1.0000 0.98620  0.50000  0.50000  Biso   1.000  Zn
  Zn23     1.0000 0.51380  0.00000  0.00000  Biso   1.000  Zn
  Zn24     1.0000 0.01380  0.50000  0.00000  Biso   1.000  Zn
