data_image0
_cell_length_a       19.692
_cell_length_b       19.692
_cell_length_c       20.101
_cell_angle_alpha    90
_cell_angle_beta     90
_cell_angle_gamma    90

_symmetry_space_group_name_H-M    "P 1"
_symmetry_int_tables_number       1

loop_
  _symmetry_equiv_pos_as_xyz
  'x, y, z'

loop_
  _atom_site_label
  _atom_site_occupancy
  _atom_site_fract_x
  _atom_site_fract_y
  _atom_site_fract_z
  _atom_site_thermal_displace_type
  _atom_site_B_iso_or_equiv
  _atom_site_type_symbol
  Mn1      1.0000 0.60456  0.51543  0.02730  Biso   1.000  Mn
  N1       1.0000 0.83850  0.36950  0.82764  Biso   1.000  N
  N2       1.0000 0.68980  0.47850  0.95706  Biso   1.000  N
  N3       1.0000 0.75880  0.46930  0.95652  Biso   1.000  N
  N4       1.0000 0.71522  0.42061  0.86507  Biso   1.000  N
  N5       1.0000 0.55269  0.47066  0.93824  Biso   1.000  N
  N6       1.0000 0.48790  0.46380  0.91367  Biso   1.000  N
  N7       1.0000 0.56070  0.42670  0.83578  Biso   1.000  N
  C1       1.0000 0.89830  0.34600  0.80600  Biso   1.000  C
  H1       1.0000 0.89860  0.31520  0.77090  Biso   1.000  H
  C2       1.0000 0.95910  0.36520  0.83300  Biso   1.000  C
  H2       1.0000 0.99960  0.34780  0.81630  Biso   1.000  H
  C3       1.0000 0.95960  0.40990  0.88430  Biso   1.000  C
  H3       1.0000 0.00040  0.42400  0.90310  Biso   1.000  H
  C4       1.0000 0.89810  0.43420  0.90840  Biso   1.000  C
  H4       1.0000 0.89710  0.46500  0.94350  Biso   1.000  H
  C5       1.0000 0.83870  0.41200  0.87950  Biso   1.000  C
  C6       1.0000 0.77150  0.43500  0.90060  Biso   1.000  C
  C7       1.0000 0.66590  0.44900  0.90230  Biso   1.000  C
  C8       1.0000 0.59350  0.44820  0.89030  Biso   1.000  C
  C9       1.0000 0.49530  0.43820  0.85340  Biso   1.000  C
  H5       1.0000 0.45880  0.42890  0.82550  Biso   1.000  H
  Mn2      1.0000 0.10456  0.01543  0.52730  Biso   1.000  Mn
  N8       1.0000 0.33850  0.86950  0.32764  Biso   1.000  N
  N9       1.0000 0.18980  0.97850  0.45706  Biso   1.000  N
  N10      1.0000 0.25880  0.96930  0.45652  Biso   1.000  N
  N11      1.0000 0.21522  0.92061  0.36507  Biso   1.000  N
  N12      1.0000 0.05269  0.97066  0.43824  Biso   1.000  N
  N13      1.0000 0.98790  0.96380  0.41367  Biso   1.000  N
  N14      1.0000 0.06070  0.92670  0.33578  Biso   1.000  N
  C10      1.0000 0.39830  0.84600  0.30600  Biso   1.000  C
  H6       1.0000 0.39860  0.81520  0.27090  Biso   1.000  H
  C11      1.0000 0.45910  0.86520  0.33300  Biso   1.000  C
  H7       1.0000 0.49960  0.84780  0.31630  Biso   1.000  H
  C12      1.0000 0.45960  0.90990  0.38430  Biso   1.000  C
  H8       1.0000 0.50040  0.92400  0.40310  Biso   1.000  H
  C13      1.0000 0.39810  0.93420  0.40840  Biso   1.000  C
  H9       1.0000 0.39710  0.96500  0.44350  Biso   1.000  H
  C14      1.0000 0.33870  0.91200  0.37950  Biso   1.000  C
  C15      1.0000 0.27150  0.93500  0.40060  Biso   1.000  C
  C16      1.0000 0.16590  0.94900  0.40230  Biso   1.000  C
  C17      1.0000 0.09350  0.94820  0.39030  Biso   1.000  C
  C18      1.0000 0.99530  0.93820  0.35340  Biso   1.000  C
  H10      1.0000 0.95880  0.92890  0.32550  Biso   1.000  H
  Mn3      1.0000 0.89544  0.48457  0.52730  Biso   1.000  Mn
  N15      1.0000 0.66150  0.63050  0.32764  Biso   1.000  N
  N16      1.0000 0.81020  0.52150  0.45706  Biso   1.000  N
  N17      1.0000 0.74120  0.53070  0.45652  Biso   1.000  N
  N18      1.0000 0.78478  0.57939  0.36507  Biso   1.000  N
  N19      1.0000 0.94731  0.52934  0.43824  Biso   1.000  N
  N20      1.0000 0.01210  0.53620  0.41367  Biso   1.000  N
  N21      1.0000 0.93930  0.57330  0.33578  Biso   1.000  N
  C19      1.0000 0.60170  0.65400  0.30600  Biso   1.000  C
  H11      1.0000 0.60140  0.68480  0.27090  Biso   1.000  H
  C20      1.0000 0.54090  0.63480  0.33300  Biso   1.000  C
  H12      1.0000 0.50040  0.65220  0.31630  Biso   1.000  H
  C21      1.0000 0.54040  0.59010  0.38430  Biso   1.000  C
  H13      1.0000 0.49960  0.57600  0.40310  Biso   1.000  H
  C22      1.0000 0.60190  0.56580  0.40840  Biso   1.000  C
  H14      1.0000 0.60290  0.53500  0.44350  Biso   1.000  H
  C23      1.0000 0.66130  0.58800  0.37950  Biso   1.000  C
  C24      1.0000 0.72850  0.56500  0.40060  Biso   1.000  C
  C25      1.0000 0.83410  0.55100  0.40230  Biso   1.000  C
  C26      1.0000 0.90650  0.55180  0.39030  Biso   1.000  C
  C27      1.0000 0.00470  0.56180  0.35340  Biso   1.000  C
  H15      1.0000 0.04120  0.57110  0.32550  Biso   1.000  H
  Mn4      1.0000 0.39544  0.98457  0.02730  Biso   1.000  Mn
  N22      1.0000 0.16150  0.13050  0.82764  Biso   1.000  N
  N23      1.0000 0.31020  0.02150  0.95706  Biso   1.000  N
  N24      1.0000 0.24120  0.03070  0.95652  Biso   1.000  N
  N25      1.0000 0.28478  0.07939  0.86507  Biso   1.000  N
  N26      1.0000 0.44731  0.02934  0.93824  Biso   1.000  N
  N27      1.0000 0.51210  0.03620  0.91367  Biso   1.000  N
  N28      1.0000 0.43930  0.07330  0.83578  Biso   1.000  N
  C28      1.0000 0.10170  0.15400  0.80600  Biso   1.000  C
  H16      1.0000 0.10140  0.18480  0.77090  Biso   1.000  H
  C29      1.0000 0.04090  0.13480  0.83300  Biso   1.000  C
  H17      1.0000 0.00040  0.15220  0.81630  Biso   1.000  H
  C30      1.0000 0.04040  0.09010  0.88430  Biso   1.000  C
  H18      1.0000 0.99960  0.07600  0.90310  Biso   1.000  H
  C31      1.0000 0.10190  0.06580  0.90840  Biso   1.000  C
  H19      1.0000 0.10290  0.03500  0.94350  Biso   1.000  H
  C32      1.0000 0.16130  0.08800  0.87950  Biso   1.000  C
  C33      1.0000 0.22850  0.06500  0.90060  Biso   1.000  C
  C34      1.0000 0.33410  0.05100  0.90230  Biso   1.000  C
  C35      1.0000 0.40650  0.05180  0.89030  Biso   1.000  C
  C36      1.0000 0.50470  0.06180  0.85340  Biso   1.000  C
  H20      1.0000 0.54120  0.07110  0.82550  Biso   1.000  H
  Mn5      1.0000 0.23457  0.85456  0.27730  Biso   1.000  Mn
  N29      1.0000 0.38050  0.08850  0.07764  Biso   1.000  N
  N30      1.0000 0.27150  0.93980  0.20706  Biso   1.000  N
  N31      1.0000 0.28070  0.00880  0.20652  Biso   1.000  N
  N32      1.0000 0.32939  0.96522  0.11507  Biso   1.000  N
  N33      1.0000 0.27934  0.80269  0.18824  Biso   1.000  N
  N34      1.0000 0.28620  0.73790  0.16367  Biso   1.000  N
  N35      1.0000 0.32330  0.81070  0.08578  Biso   1.000  N
  C37      1.0000 0.40400  0.14830  0.05600  Biso   1.000  C
  H21      1.0000 0.43480  0.14860  0.02090  Biso   1.000  H
  C38      1.0000 0.38480  0.20910  0.08300  Biso   1.000  C
  H22      1.0000 0.40220  0.24960  0.06630  Biso   1.000  H
  C39      1.0000 0.34010  0.20960  0.13430  Biso   1.000  C
  H23      1.0000 0.32600  0.25040  0.15310  Biso   1.000  H
  C40      1.0000 0.31580  0.14810  0.15840  Biso   1.000  C
  H24      1.0000 0.28500  0.14710  0.19350  Biso   1.000  H
  C41      1.0000 0.33800  0.08870  0.12950  Biso   1.000  C
  C42      1.0000 0.31500  0.02150  0.15060  Biso   1.000  C
  C43      1.0000 0.30100  0.91590  0.15230  Biso   1.000  C
  C44      1.0000 0.30180  0.84350  0.14030  Biso   1.000  C
  C45      1.0000 0.31180  0.74530  0.10340  Biso   1.000  C
  H25      1.0000 0.32110  0.70880  0.07550  Biso   1.000  H
  Mn6      1.0000 0.73457  0.35456  0.77730  Biso   1.000  Mn
  N36      1.0000 0.88050  0.58850  0.57764  Biso   1.000  N
  N37      1.0000 0.77150  0.43980  0.70706  Biso   1.000  N
  N38      1.0000 0.78070  0.50880  0.70652  Biso   1.000  N
  N39      1.0000 0.82939  0.46522  0.61507  Biso   1.000  N
  N40      1.0000 0.77934  0.30269  0.68824  Biso   1.000  N
  N41      1.0000 0.78620  0.23790  0.66367  Biso   1.000  N
  N42      1.0000 0.82330  0.31070  0.58578  Biso   1.000  N
  C46      1.0000 0.90400  0.64830  0.55600  Biso   1.000  C
  H26      1.0000 0.93480  0.64860  0.52090  Biso   1.000  H
  C47      1.0000 0.88480  0.70910  0.58300  Biso   1.000  C
  H27      1.0000 0.90220  0.74960  0.56630  Biso   1.000  H
  C48      1.0000 0.84010  0.70960  0.63430  Biso   1.000  C
  H28      1.0000 0.82600  0.75040  0.65310  Biso   1.000  H
  C49      1.0000 0.81580  0.64810  0.65840  Biso   1.000  C
  H29      1.0000 0.78500  0.64710  0.69350  Biso   1.000  H
  C50      1.0000 0.83800  0.58870  0.62950  Biso   1.000  C
  C51      1.0000 0.81500  0.52150  0.65060  Biso   1.000  C
  C52      1.0000 0.80100  0.41590  0.65230  Biso   1.000  C
  C53      1.0000 0.80180  0.34350  0.64030  Biso   1.000  C
  C54      1.0000 0.81180  0.24530  0.60340  Biso   1.000  C
  H30      1.0000 0.82110  0.20880  0.57550  Biso   1.000  H
  Mn7      1.0000 0.26543  0.14544  0.77730  Biso   1.000  Mn
  N43      1.0000 0.11950  0.91150  0.57764  Biso   1.000  N
  N44      1.0000 0.22850  0.06020  0.70706  Biso   1.000  N
  N45      1.0000 0.21930  0.99120  0.70652  Biso   1.000  N
  N46      1.0000 0.17061  0.03478  0.61507  Biso   1.000  N
  N47      1.0000 0.22066  0.19731  0.68824  Biso   1.000  N
  N48      1.0000 0.21380  0.26210  0.66367  Biso   1.000  N
  N49      1.0000 0.17670  0.18930  0.58578  Biso   1.000  N
  C55      1.0000 0.09600  0.85170  0.55600  Biso   1.000  C
  H31      1.0000 0.06520  0.85140  0.52090  Biso   1.000  H
  C56      1.0000 0.11520  0.79090  0.58300  Biso   1.000  C
  H32      1.0000 0.09780  0.75040  0.56630  Biso   1.000  H
  C57      1.0000 0.15990  0.79040  0.63430  Biso   1.000  C
  H33      1.0000 0.17400  0.74960  0.65310  Biso   1.000  H
  C58      1.0000 0.18420  0.85190  0.65840  Biso   1.000  C
  H34      1.0000 0.21500  0.85290  0.69350  Biso   1.000  H
  C59      1.0000 0.16200  0.91130  0.62950  Biso   1.000  C
  C60      1.0000 0.18500  0.97850  0.65060  Biso   1.000  C
  C61      1.0000 0.19900  0.08410  0.65230  Biso   1.000  C
  C62      1.0000 0.19820  0.15650  0.64030  Biso   1.000  C
  C63      1.0000 0.18820  0.25470  0.60340  Biso   1.000  C
  H35      1.0000 0.17890  0.29120  0.57550  Biso   1.000  H
  Mn8      1.0000 0.76543  0.64544  0.27730  Biso   1.000  Mn
  N50      1.0000 0.61950  0.41150  0.07764  Biso   1.000  N
  N51      1.0000 0.72850  0.56020  0.20706  Biso   1.000  N
  N52      1.0000 0.71930  0.49120  0.20652  Biso   1.000  N
  N53      1.0000 0.67061  0.53478  0.11507  Biso   1.000  N
  N54      1.0000 0.72066  0.69731  0.18824  Biso   1.000  N
  N55      1.0000 0.71380  0.76210  0.16367  Biso   1.000  N
  N56      1.0000 0.67670  0.68930  0.08578  Biso   1.000  N
  C64      1.0000 0.59600  0.35170  0.05600  Biso   1.000  C
  H36      1.0000 0.56520  0.35140  0.02090  Biso   1.000  H
  C65      1.0000 0.61520  0.29090  0.08300  Biso   1.000  C
  H37      1.0000 0.59780  0.25040  0.06630  Biso   1.000  H
  C66      1.0000 0.65990  0.29040  0.13430  Biso   1.000  C
  H38      1.0000 0.67400  0.24960  0.15310  Biso   1.000  H
  C67      1.0000 0.68420  0.35190  0.15840  Biso   1.000  C
  H39      1.0000 0.71500  0.35290  0.19350  Biso   1.000  H
  C68      1.0000 0.66200  0.41130  0.12950  Biso   1.000  C
  C69      1.0000 0.68500  0.47850  0.15060  Biso   1.000  C
  C70      1.0000 0.69900  0.58410  0.15230  Biso   1.000  C
  C71      1.0000 0.69820  0.65650  0.14030  Biso   1.000  C
  C72      1.0000 0.68820  0.75470  0.10340  Biso   1.000  C
  H40      1.0000 0.67890  0.79120  0.07550  Biso   1.000  H
  Mn9      1.0000 0.39544  0.48457  0.97270  Biso   1.000  Mn
  N57      1.0000 0.16150  0.63050  0.17236  Biso   1.000  N
  N58      1.0000 0.31020  0.52150  0.04294  Biso   1.000  N
  N59      1.0000 0.24120  0.53070  0.04348  Biso   1.000  N
  N60      1.0000 0.28478  0.57939  0.13493  Biso   1.000  N
  N61      1.0000 0.44731  0.52934  0.06176  Biso   1.000  N
  N62      1.0000 0.51210  0.53620  0.08633  Biso   1.000  N
  N63      1.0000 0.43930  0.57330  0.16422  Biso   1.000  N
  C73      1.0000 0.10170  0.65400  0.19400  Biso   1.000  C
  H41      1.0000 0.10140  0.68480  0.22910  Biso   1.000  H
  C74      1.0000 0.04090  0.63480  0.16700  Biso   1.000  C
  H42      1.0000 0.00040  0.65220  0.18370  Biso   1.000  H
  C75      1.0000 0.04040  0.59010  0.11570  Biso   1.000  C
  H43      1.0000 0.99960  0.57600  0.09690  Biso   1.000  H
  C76      1.0000 0.10190  0.56580  0.09160  Biso   1.000  C
  H44      1.0000 0.10290  0.53500  0.05650  Biso   1.000  H
  C77      1.0000 0.16130  0.58800  0.12050  Biso   1.000  C
  C78      1.0000 0.22850  0.56500  0.09940  Biso   1.000  C
  C79      1.0000 0.33410  0.55100  0.09770  Biso   1.000  C
  C80      1.0000 0.40650  0.55180  0.10970  Biso   1.000  C
  C81      1.0000 0.50470  0.56180  0.14660  Biso   1.000  C
  H45      1.0000 0.54120  0.57110  0.17450  Biso   1.000  H
  Mn10     1.0000 0.89544  0.98457  0.47270  Biso   1.000  Mn
  N64      1.0000 0.66150  0.13050  0.67236  Biso   1.000  N
  N65      1.0000 0.81020  0.02150  0.54294  Biso   1.000  N
  N66      1.0000 0.74120  0.03070  0.54348  Biso   1.000  N
  N67      1.0000 0.78478  0.07939  0.63493  Biso   1.000  N
  N68      1.0000 0.94731  0.02934  0.56176  Biso   1.000  N
  N69      1.0000 0.01210  0.03620  0.58633  Biso   1.000  N
  N70      1.0000 0.93930  0.07330  0.66422  Biso   1.000  N
  C82      1.0000 0.60170  0.15400  0.69400  Biso   1.000  C
  H46      1.0000 0.60140  0.18480  0.72910  Biso   1.000  H
  C83      1.0000 0.54090  0.13480  0.66700  Biso   1.000  C
  H47      1.0000 0.50040  0.15220  0.68370  Biso   1.000  H
  C84      1.0000 0.54040  0.09010  0.61570  Biso   1.000  C
  H48      1.0000 0.49960  0.07600  0.59690  Biso   1.000  H
  C85      1.0000 0.60190  0.06580  0.59160  Biso   1.000  C
  H49      1.0000 0.60290  0.03500  0.55650  Biso   1.000  H
  C86      1.0000 0.66130  0.08800  0.62050  Biso   1.000  C
  C87      1.0000 0.72850  0.06500  0.59940  Biso   1.000  C
  C88      1.0000 0.83410  0.05100  0.59770  Biso   1.000  C
  C89      1.0000 0.90650  0.05180  0.60970  Biso   1.000  C
  C90      1.0000 0.00470  0.06180  0.64660  Biso   1.000  C
  H50      1.0000 0.04120  0.07110  0.67450  Biso   1.000  H
  Mn11     1.0000 0.10456  0.51543  0.47270  Biso   1.000  Mn
  N71      1.0000 0.33850  0.36950  0.67236  Biso   1.000  N
  N72      1.0000 0.18980  0.47850  0.54294  Biso   1.000  N
  N73      1.0000 0.25880  0.46930  0.54348  Biso   1.000  N
  N74      1.0000 0.21522  0.42061  0.63493  Biso   1.000  N
  N75      1.0000 0.05269  0.47066  0.56176  Biso   1.000  N
  N76      1.0000 0.98790  0.46380  0.58633  Biso   1.000  N
  N77      1.0000 0.06070  0.42670  0.66422  Biso   1.000  N
  C91      1.0000 0.39830  0.34600  0.69400  Biso   1.000  C
  H51      1.0000 0.39860  0.31520  0.72910  Biso   1.000  H
  C92      1.0000 0.45910  0.36520  0.66700  Biso   1.000  C
  H52      1.0000 0.49960  0.34780  0.68370  Biso   1.000  H
  C93      1.0000 0.45960  0.40990  0.61570  Biso   1.000  C
  H53      1.0000 0.50040  0.42400  0.59690  Biso   1.000  H
  C94      1.0000 0.39810  0.43420  0.59160  Biso   1.000  C
  H54      1.0000 0.39710  0.46500  0.55650  Biso   1.000  H
  C95      1.0000 0.33870  0.41200  0.62050  Biso   1.000  C
  C96      1.0000 0.27150  0.43500  0.59940  Biso   1.000  C
  C97      1.0000 0.16590  0.44900  0.59770  Biso   1.000  C
  C98      1.0000 0.09350  0.44820  0.60970  Biso   1.000  C
  C99      1.0000 0.99530  0.43820  0.64660  Biso   1.000  C
  H55      1.0000 0.95880  0.42890  0.67450  Biso   1.000  H
  Mn12     1.0000 0.60456  0.01543  0.97270  Biso   1.000  Mn
  N78      1.0000 0.83850  0.86950  0.17236  Biso   1.000  N
  N79      1.0000 0.68980  0.97850  0.04294  Biso   1.000  N
  N80      1.0000 0.75880  0.96930  0.04348  Biso   1.000  N
  N81      1.0000 0.71522  0.92061  0.13493  Biso   1.000  N
  N82      1.0000 0.55269  0.97066  0.06176  Biso   1.000  N
  N83      1.0000 0.48790  0.96380  0.08633  Biso   1.000  N
  N84      1.0000 0.56070  0.92670  0.16422  Biso   1.000  N
  C100     1.0000 0.89830  0.84600  0.19400  Biso   1.000  C
  H56      1.0000 0.89860  0.81520  0.22910  Biso   1.000  H
  C101     1.0000 0.95910  0.86520  0.16700  Biso   1.000  C
  H57      1.0000 0.99960  0.84780  0.18370  Biso   1.000  H
  C102     1.0000 0.95960  0.90990  0.11570  Biso   1.000  C
  H58      1.0000 0.00040  0.92400  0.09690  Biso   1.000  H
  C103     1.0000 0.89810  0.93420  0.09160  Biso   1.000  C
  H59      1.0000 0.89710  0.96500  0.05650  Biso   1.000  H
  C104     1.0000 0.83870  0.91200  0.12050  Biso   1.000  C
  C105     1.0000 0.77150  0.93500  0.09940  Biso   1.000  C
  C106     1.0000 0.66590  0.94900  0.09770  Biso   1.000  C
  C107     1.0000 0.59350  0.94820  0.10970  Biso   1.000  C
  C108     1.0000 0.49530  0.93820  0.14660  Biso   1.000  C
  H60      1.0000 0.45880  0.92890  0.17450  Biso   1.000  H
  Mn13     1.0000 0.76543  0.14544  0.72270  Biso   1.000  Mn
  N85      1.0000 0.61950  0.91150  0.92236  Biso   1.000  N
  N86      1.0000 0.72850  0.06020  0.79294  Biso   1.000  N
  N87      1.0000 0.71930  0.99120  0.79348  Biso   1.000  N
  N88      1.0000 0.67061  0.03478  0.88493  Biso   1.000  N
  N89      1.0000 0.72066  0.19731  0.81176  Biso   1.000  N
  N90      1.0000 0.71380  0.26210  0.83633  Biso   1.000  N
  N91      1.0000 0.67670  0.18930  0.91422  Biso   1.000  N
  C109     1.0000 0.59600  0.85170  0.94400  Biso   1.000  C
  H61      1.0000 0.56520  0.85140  0.97910  Biso   1.000  H
  C110     1.0000 0.61520  0.79090  0.91700  Biso   1.000  C
  H62      1.0000 0.59780  0.75040  0.93370  Biso   1.000  H
  C111     1.0000 0.65990  0.79040  0.86570  Biso   1.000  C
  H63      1.0000 0.67400  0.74960  0.84690  Biso   1.000  H
  C112     1.0000 0.68420  0.85190  0.84160  Biso   1.000  C
  H64      1.0000 0.71500  0.85290  0.80650  Biso   1.000  H
  C113     1.0000 0.66200  0.91130  0.87050  Biso   1.000  C
  C114     1.0000 0.68500  0.97850  0.84940  Biso   1.000  C
  C115     1.0000 0.69900  0.08410  0.84770  Biso   1.000  C
  C116     1.0000 0.69820  0.15650  0.85970  Biso   1.000  C
  C117     1.0000 0.68820  0.25470  0.89660  Biso   1.000  C
  H65      1.0000 0.67890  0.29120  0.92450  Biso   1.000  H
  Mn14     1.0000 0.26543  0.64544  0.22270  Biso   1.000  Mn
  N92      1.0000 0.11950  0.41150  0.42236  Biso   1.000  N
  N93      1.0000 0.22850  0.56020  0.29294  Biso   1.000  N
  N94      1.0000 0.21930  0.49120  0.29348  Biso   1.000  N
  N95      1.0000 0.17061  0.53478  0.38493  Biso   1.000  N
  N96      1.0000 0.22066  0.69731  0.31176  Biso   1.000  N
  N97      1.0000 0.21380  0.76210  0.33633  Biso   1.000  N
  N98      1.0000 0.17670  0.68930  0.41422  Biso   1.000  N
  C118     1.0000 0.09600  0.35170  0.44400  Biso   1.000  C
  H66      1.0000 0.06520  0.35140  0.47910  Biso   1.000  H
  C119     1.0000 0.11520  0.29090  0.41700  Biso   1.000  C
  H67      1.0000 0.09780  0.25040  0.43370  Biso   1.000  H
  C120     1.0000 0.15990  0.29040  0.36570  Biso   1.000  C
  H68      1.0000 0.17400  0.24960  0.34690  Biso   1.000  H
  C121     1.0000 0.18420  0.35190  0.34160  Biso   1.000  C
  H69      1.0000 0.21500  0.35290  0.30650  Biso   1.000  H
  C122     1.0000 0.16200  0.41130  0.37050  Biso   1.000  C
  C123     1.0000 0.18500  0.47850  0.34940  Biso   1.000  C
  C124     1.0000 0.19900  0.58410  0.34770  Biso   1.000  C
  C125     1.0000 0.19820  0.65650  0.35970  Biso   1.000  C
  C126     1.0000 0.18820  0.75470  0.39660  Biso   1.000  C
  H70      1.0000 0.17890  0.79120  0.42450  Biso   1.000  H
  Mn15     1.0000 0.73457  0.85456  0.22270  Biso   1.000  Mn
  N99      1.0000 0.88050  0.08850  0.42236  Biso   1.000  N
  N100     1.0000 0.77150  0.93980  0.29294  Biso   1.000  N
  N101     1.0000 0.78070  0.00880  0.29348  Biso   1.000  N
  N102     1.0000 0.82939  0.96522  0.38493  Biso   1.000  N
  N103     1.0000 0.77934  0.80269  0.31176  Biso   1.000  N
  N104     1.0000 0.78620  0.73790  0.33633  Biso   1.000  N
  N105     1.0000 0.82330  0.81070  0.41422  Biso   1.000  N
  C127     1.0000 0.90400  0.14830  0.44400  Biso   1.000  C
  H71      1.0000 0.93480  0.14860  0.47910  Biso   1.000  H
  C128     1.0000 0.88480  0.20910  0.41700  Biso   1.000  C
  H72      1.0000 0.90220  0.24960  0.43370  Biso   1.000  H
  C129     1.0000 0.84010  0.20960  0.36570  Biso   1.000  C
  H73      1.0000 0.82600  0.25040  0.34690  Biso   1.000  H
  C130     1.0000 0.81580  0.14810  0.34160  Biso   1.000  C
  H74      1.0000 0.78500  0.14710  0.30650  Biso   1.000  H
  C131     1.0000 0.83800  0.08870  0.37050  Biso   1.000  C
  C132     1.0000 0.81500  0.02150  0.34940  Biso   1.000  C
  C133     1.0000 0.80100  0.91590  0.34770  Biso   1.000  C
  C134     1.0000 0.80180  0.84350  0.35970  Biso   1.000  C
  C135     1.0000 0.81180  0.74530  0.39660  Biso   1.000  C
  H75      1.0000 0.82110  0.70880  0.42450  Biso   1.000  H
  Mn16     1.0000 0.23457  0.35456  0.72270  Biso   1.000  Mn
  N106     1.0000 0.38050  0.58850  0.92236  Biso   1.000  N
  N107     1.0000 0.27150  0.43980  0.79294  Biso   1.000  N
  N108     1.0000 0.28070  0.50880  0.79348  Biso   1.000  N
  N109     1.0000 0.32939  0.46522  0.88493  Biso   1.000  N
  N110     1.0000 0.27934  0.30269  0.81176  Biso   1.000  N
  N111     1.0000 0.28620  0.23790  0.83633  Biso   1.000  N
  N112     1.0000 0.32330  0.31070  0.91422  Biso   1.000  N
  C136     1.0000 0.40400  0.64830  0.94400  Biso   1.000  C
  H76      1.0000 0.43480  0.64860  0.97910  Biso   1.000  H
  C137     1.0000 0.38480  0.70910  0.91700  Biso   1.000  C
  H77      1.0000 0.40220  0.74960  0.93370  Biso   1.000  H
  C138     1.0000 0.34010  0.70960  0.86570  Biso   1.000  C
  H78      1.0000 0.32600  0.75040  0.84690  Biso   1.000  H
  C139     1.0000 0.31580  0.64810  0.84160  Biso   1.000  C
  H79      1.0000 0.28500  0.64710  0.80650  Biso   1.000  H
  C140     1.0000 0.33800  0.58870  0.87050  Biso   1.000  C
  C141     1.0000 0.31500  0.52150  0.84940  Biso   1.000  C
  C142     1.0000 0.30100  0.41590  0.84770  Biso   1.000  C
  C143     1.0000 0.30180  0.34350  0.85970  Biso   1.000  C
  C144     1.0000 0.31180  0.24530  0.89660  Biso   1.000  C
  H80      1.0000 0.32110  0.20880  0.92450  Biso   1.000  H
