data_image0
_cell_length_a       19.623
_cell_length_b       19.623
_cell_length_c       19.147
_cell_angle_alpha    90
_cell_angle_beta     90
_cell_angle_gamma    90

_symmetry_space_group_name_H-M    "P 1"
_symmetry_int_tables_number       1

loop_
  _symmetry_equiv_pos_as_xyz
  'x, y, z'

loop_
  _atom_site_label
  _atom_site_occupancy
  _atom_site_fract_x
  _atom_site_fract_y
  _atom_site_fract_z
  _atom_site_thermal_displace_type
  _atom_site_B_iso_or_equiv
  _atom_site_type_symbol
  Fe1      1.0000 0.39624  0.52176  0.02003  Biso   1.000  Fe
  N1       1.0000 0.38293  0.41754  0.07140  Biso   1.000  N
  N2       1.0000 0.32919  0.53958  0.10716  Biso   1.000  N
  N3       1.0000 0.27050  0.49598  0.19840  Biso   1.000  N
  H1       1.0000 0.25390  0.46710  0.22760  Biso   1.000  H
  N4       1.0000 0.26240  0.56483  0.19883  Biso   1.000  N
  N5       1.0000 0.33500  0.69682  0.08489  Biso   1.000  N
  N6       1.0000 0.27632  0.70140  0.18493  Biso   1.000  N
  N7       1.0000 0.29098  0.76686  0.16637  Biso   1.000  N
  C1       1.0000 0.41220  0.35800  0.05320  Biso   1.000  C
  H2       1.0000 0.44560  0.35690  0.01870  Biso   1.000  H
  C2       1.0000 0.39250  0.29950  0.08550  Biso   1.000  C
  H3       1.0000 0.41240  0.25880  0.07120  Biso   1.000  H
  C3       1.0000 0.34730  0.29710  0.13540  Biso   1.000  C
  H4       1.0000 0.33630  0.25630  0.15750  Biso   1.000  H
  C4       1.0000 0.31760  0.35550  0.15350  Biso   1.000  C
  H5       1.0000 0.28350  0.35540  0.18710  Biso   1.000  H
  C5       1.0000 0.33690  0.41680  0.12280  Biso   1.000  C
  C6       1.0000 0.30990  0.48270  0.14290  Biso   1.000  C
  C7       1.0000 0.29816  0.58853  0.14440  Biso   1.000  C
  C8       1.0000 0.30315  0.66218  0.13532  Biso   1.000  C
  C9       1.0000 0.32490  0.76120  0.10680  Biso   1.000  C
  H6       1.0000 0.34040  0.79890  0.08200  Biso   1.000  H
  Fe2      1.0000 0.89624  0.02176  0.52003  Biso   1.000  Fe
  N8       1.0000 0.88293  0.91754  0.57140  Biso   1.000  N
  N9       1.0000 0.82919  0.03958  0.60716  Biso   1.000  N
  N10      1.0000 0.77050  0.99598  0.69840  Biso   1.000  N
  H7       1.0000 0.75390  0.96710  0.72760  Biso   1.000  H
  N11      1.0000 0.76240  0.06483  0.69883  Biso   1.000  N
  N12      1.0000 0.83500  0.19682  0.58489  Biso   1.000  N
  N13      1.0000 0.77632  0.20140  0.68493  Biso   1.000  N
  N14      1.0000 0.79098  0.26686  0.66637  Biso   1.000  N
  C10      1.0000 0.91220  0.85800  0.55320  Biso   1.000  C
  H8       1.0000 0.94560  0.85690  0.51870  Biso   1.000  H
  C11      1.0000 0.89250  0.79950  0.58550  Biso   1.000  C
  H9       1.0000 0.91240  0.75880  0.57120  Biso   1.000  H
  C12      1.0000 0.84730  0.79710  0.63540  Biso   1.000  C
  H10      1.0000 0.83630  0.75630  0.65750  Biso   1.000  H
  C13      1.0000 0.81760  0.85550  0.65350  Biso   1.000  C
  H11      1.0000 0.78350  0.85540  0.68710  Biso   1.000  H
  C14      1.0000 0.83690  0.91680  0.62280  Biso   1.000  C
  C15      1.0000 0.80990  0.98270  0.64290  Biso   1.000  C
  C16      1.0000 0.79816  0.08853  0.64440  Biso   1.000  C
  C17      1.0000 0.80315  0.16218  0.63532  Biso   1.000  C
  C18      1.0000 0.82490  0.26120  0.60680  Biso   1.000  C
  H12      1.0000 0.84040  0.29890  0.58200  Biso   1.000  H
  Fe3      1.0000 0.10376  0.47824  0.52003  Biso   1.000  Fe
  N15      1.0000 0.11707  0.58246  0.57140  Biso   1.000  N
  N16      1.0000 0.17081  0.46042  0.60716  Biso   1.000  N
  N17      1.0000 0.22950  0.50402  0.69840  Biso   1.000  N
  H13      1.0000 0.24610  0.53290  0.72760  Biso   1.000  H
  N18      1.0000 0.23760  0.43517  0.69883  Biso   1.000  N
  N19      1.0000 0.16500  0.30318  0.58489  Biso   1.000  N
  N20      1.0000 0.22368  0.29860  0.68493  Biso   1.000  N
  N21      1.0000 0.20902  0.23314  0.66637  Biso   1.000  N
  C19      1.0000 0.08780  0.64200  0.55320  Biso   1.000  C
  H14      1.0000 0.05440  0.64310  0.51870  Biso   1.000  H
  C20      1.0000 0.10750  0.70050  0.58550  Biso   1.000  C
  H15      1.0000 0.08760  0.74120  0.57120  Biso   1.000  H
  C21      1.0000 0.15270  0.70290  0.63540  Biso   1.000  C
  H16      1.0000 0.16370  0.74370  0.65750  Biso   1.000  H
  C22      1.0000 0.18240  0.64450  0.65350  Biso   1.000  C
  H17      1.0000 0.21650  0.64460  0.68710  Biso   1.000  H
  C23      1.0000 0.16310  0.58320  0.62280  Biso   1.000  C
  C24      1.0000 0.19010  0.51730  0.64290  Biso   1.000  C
  C25      1.0000 0.20184  0.41147  0.64440  Biso   1.000  C
  C26      1.0000 0.19685  0.33782  0.63532  Biso   1.000  C
  C27      1.0000 0.17510  0.23880  0.60680  Biso   1.000  C
  H18      1.0000 0.15960  0.20110  0.58200  Biso   1.000  H
  Fe4      1.0000 0.60376  0.97824  0.02003  Biso   1.000  Fe
  N22      1.0000 0.61707  0.08246  0.07140  Biso   1.000  N
  N23      1.0000 0.67081  0.96042  0.10716  Biso   1.000  N
  N24      1.0000 0.72950  0.00402  0.19840  Biso   1.000  N
  H19      1.0000 0.74610  0.03290  0.22760  Biso   1.000  H
  N25      1.0000 0.73760  0.93517  0.19883  Biso   1.000  N
  N26      1.0000 0.66500  0.80318  0.08489  Biso   1.000  N
  N27      1.0000 0.72368  0.79860  0.18493  Biso   1.000  N
  N28      1.0000 0.70902  0.73314  0.16637  Biso   1.000  N
  C28      1.0000 0.58780  0.14200  0.05320  Biso   1.000  C
  H20      1.0000 0.55440  0.14310  0.01870  Biso   1.000  H
  C29      1.0000 0.60750  0.20050  0.08550  Biso   1.000  C
  H21      1.0000 0.58760  0.24120  0.07120  Biso   1.000  H
  C30      1.0000 0.65270  0.20290  0.13540  Biso   1.000  C
  H22      1.0000 0.66370  0.24370  0.15750  Biso   1.000  H
  C31      1.0000 0.68240  0.14450  0.15350  Biso   1.000  C
  H23      1.0000 0.71650  0.14460  0.18710  Biso   1.000  H
  C32      1.0000 0.66310  0.08320  0.12280  Biso   1.000  C
  C33      1.0000 0.69010  0.01730  0.14290  Biso   1.000  C
  C34      1.0000 0.70184  0.91147  0.14440  Biso   1.000  C
  C35      1.0000 0.69685  0.83782  0.13532  Biso   1.000  C
  C36      1.0000 0.67510  0.73880  0.10680  Biso   1.000  C
  H24      1.0000 0.65960  0.70110  0.08200  Biso   1.000  H
  Fe5      1.0000 0.22824  0.64624  0.27003  Biso   1.000  Fe
  N29      1.0000 0.33246  0.63293  0.32140  Biso   1.000  N
  N30      1.0000 0.21042  0.57919  0.35716  Biso   1.000  N
  N31      1.0000 0.25402  0.52050  0.44840  Biso   1.000  N
  H25      1.0000 0.28290  0.50390  0.47760  Biso   1.000  H
  N32      1.0000 0.18517  0.51240  0.44883  Biso   1.000  N
  N33      1.0000 0.05318  0.58500  0.33489  Biso   1.000  N
  N34      1.0000 0.04860  0.52632  0.43493  Biso   1.000  N
  N35      1.0000 0.98314  0.54098  0.41637  Biso   1.000  N
  C37      1.0000 0.39200  0.66220  0.30320  Biso   1.000  C
  H26      1.0000 0.39310  0.69560  0.26870  Biso   1.000  H
  C38      1.0000 0.45050  0.64250  0.33550  Biso   1.000  C
  H27      1.0000 0.49120  0.66240  0.32120  Biso   1.000  H
  C39      1.0000 0.45290  0.59730  0.38540  Biso   1.000  C
  H28      1.0000 0.49370  0.58630  0.40750  Biso   1.000  H
  C40      1.0000 0.39450  0.56760  0.40350  Biso   1.000  C
  H29      1.0000 0.39460  0.53350  0.43710  Biso   1.000  H
  C41      1.0000 0.33320  0.58690  0.37280  Biso   1.000  C
  C42      1.0000 0.26730  0.55990  0.39290  Biso   1.000  C
  C43      1.0000 0.16147  0.54816  0.39440  Biso   1.000  C
  C44      1.0000 0.08782  0.55315  0.38532  Biso   1.000  C
  C45      1.0000 0.98880  0.57490  0.35680  Biso   1.000  C
  H30      1.0000 0.95110  0.59040  0.33200  Biso   1.000  H
  Fe6      1.0000 0.72824  0.14624  0.77003  Biso   1.000  Fe
  N36      1.0000 0.83246  0.13293  0.82140  Biso   1.000  N
  N37      1.0000 0.71042  0.07919  0.85716  Biso   1.000  N
  N38      1.0000 0.75402  0.02050  0.94840  Biso   1.000  N
  H31      1.0000 0.78290  0.00390  0.97760  Biso   1.000  H
  N39      1.0000 0.68517  0.01240  0.94883  Biso   1.000  N
  N40      1.0000 0.55318  0.08500  0.83489  Biso   1.000  N
  N41      1.0000 0.54860  0.02632  0.93493  Biso   1.000  N
  N42      1.0000 0.48314  0.04098  0.91637  Biso   1.000  N
  C46      1.0000 0.89200  0.16220  0.80320  Biso   1.000  C
  H32      1.0000 0.89310  0.19560  0.76870  Biso   1.000  H
  C47      1.0000 0.95050  0.14250  0.83550  Biso   1.000  C
  H33      1.0000 0.99120  0.16240  0.82120  Biso   1.000  H
  C48      1.0000 0.95290  0.09730  0.88540  Biso   1.000  C
  H34      1.0000 0.99370  0.08630  0.90750  Biso   1.000  H
  C49      1.0000 0.89450  0.06760  0.90350  Biso   1.000  C
  H35      1.0000 0.89460  0.03350  0.93710  Biso   1.000  H
  C50      1.0000 0.83320  0.08690  0.87280  Biso   1.000  C
  C51      1.0000 0.76730  0.05990  0.89290  Biso   1.000  C
  C52      1.0000 0.66147  0.04816  0.89440  Biso   1.000  C
  C53      1.0000 0.58782  0.05315  0.88532  Biso   1.000  C
  C54      1.0000 0.48880  0.07490  0.85680  Biso   1.000  C
  H36      1.0000 0.45110  0.09040  0.83200  Biso   1.000  H
  Fe7      1.0000 0.27176  0.35376  0.77003  Biso   1.000  Fe
  N43      1.0000 0.16754  0.36707  0.82140  Biso   1.000  N
  N44      1.0000 0.28958  0.42081  0.85716  Biso   1.000  N
  N45      1.0000 0.24598  0.47950  0.94840  Biso   1.000  N
  H37      1.0000 0.21710  0.49610  0.97760  Biso   1.000  H
  N46      1.0000 0.31483  0.48760  0.94883  Biso   1.000  N
  N47      1.0000 0.44682  0.41500  0.83489  Biso   1.000  N
  N48      1.0000 0.45140  0.47368  0.93493  Biso   1.000  N
  N49      1.0000 0.51686  0.45902  0.91637  Biso   1.000  N
  C55      1.0000 0.10800  0.33780  0.80320  Biso   1.000  C
  H38      1.0000 0.10690  0.30440  0.76870  Biso   1.000  H
  C56      1.0000 0.04950  0.35750  0.83550  Biso   1.000  C
  H39      1.0000 0.00880  0.33760  0.82120  Biso   1.000  H
  C57      1.0000 0.04710  0.40270  0.88540  Biso   1.000  C
  H40      1.0000 0.00630  0.41370  0.90750  Biso   1.000  H
  C58      1.0000 0.10550  0.43240  0.90350  Biso   1.000  C
  H41      1.0000 0.10540  0.46650  0.93710  Biso   1.000  H
  C59      1.0000 0.16680  0.41310  0.87280  Biso   1.000  C
  C60      1.0000 0.23270  0.44010  0.89290  Biso   1.000  C
  C61      1.0000 0.33853  0.45184  0.89440  Biso   1.000  C
  C62      1.0000 0.41218  0.44685  0.88532  Biso   1.000  C
  C63      1.0000 0.51120  0.42510  0.85680  Biso   1.000  C
  H42      1.0000 0.54890  0.40960  0.83200  Biso   1.000  H
  Fe8      1.0000 0.77176  0.85376  0.27003  Biso   1.000  Fe
  N50      1.0000 0.66754  0.86707  0.32140  Biso   1.000  N
  N51      1.0000 0.78958  0.92081  0.35716  Biso   1.000  N
  N52      1.0000 0.74598  0.97950  0.44840  Biso   1.000  N
  H43      1.0000 0.71710  0.99610  0.47760  Biso   1.000  H
  N53      1.0000 0.81483  0.98760  0.44883  Biso   1.000  N
  N54      1.0000 0.94682  0.91500  0.33489  Biso   1.000  N
  N55      1.0000 0.95140  0.97368  0.43493  Biso   1.000  N
  N56      1.0000 0.01686  0.95902  0.41637  Biso   1.000  N
  C64      1.0000 0.60800  0.83780  0.30320  Biso   1.000  C
  H44      1.0000 0.60690  0.80440  0.26870  Biso   1.000  H
  C65      1.0000 0.54950  0.85750  0.33550  Biso   1.000  C
  H45      1.0000 0.50880  0.83760  0.32120  Biso   1.000  H
  C66      1.0000 0.54710  0.90270  0.38540  Biso   1.000  C
  H46      1.0000 0.50630  0.91370  0.40750  Biso   1.000  H
  C67      1.0000 0.60550  0.93240  0.40350  Biso   1.000  C
  H47      1.0000 0.60540  0.96650  0.43710  Biso   1.000  H
  C68      1.0000 0.66680  0.91310  0.37280  Biso   1.000  C
  C69      1.0000 0.73270  0.94010  0.39290  Biso   1.000  C
  C70      1.0000 0.83853  0.95184  0.39440  Biso   1.000  C
  C71      1.0000 0.91218  0.94685  0.38532  Biso   1.000  C
  C72      1.0000 0.01120  0.92510  0.35680  Biso   1.000  C
  H48      1.0000 0.04890  0.90960  0.33200  Biso   1.000  H
  Fe9      1.0000 0.60376  0.47824  0.97997  Biso   1.000  Fe
  N57      1.0000 0.61707  0.58246  0.92860  Biso   1.000  N
  N58      1.0000 0.67081  0.46042  0.89284  Biso   1.000  N
  N59      1.0000 0.72950  0.50402  0.80160  Biso   1.000  N
  H49      1.0000 0.74610  0.53290  0.77240  Biso   1.000  H
  N60      1.0000 0.73760  0.43517  0.80117  Biso   1.000  N
  N61      1.0000 0.66500  0.30318  0.91511  Biso   1.000  N
  N62      1.0000 0.72368  0.29860  0.81507  Biso   1.000  N
  N63      1.0000 0.70902  0.23314  0.83363  Biso   1.000  N
  C73      1.0000 0.58780  0.64200  0.94680  Biso   1.000  C
  H50      1.0000 0.55440  0.64310  0.98130  Biso   1.000  H
  C74      1.0000 0.60750  0.70050  0.91450  Biso   1.000  C
  H51      1.0000 0.58760  0.74120  0.92880  Biso   1.000  H
  C75      1.0000 0.65270  0.70290  0.86460  Biso   1.000  C
  H52      1.0000 0.66370  0.74370  0.84250  Biso   1.000  H
  C76      1.0000 0.68240  0.64450  0.84650  Biso   1.000  C
  H53      1.0000 0.71650  0.64460  0.81290  Biso   1.000  H
  C77      1.0000 0.66310  0.58320  0.87720  Biso   1.000  C
  C78      1.0000 0.69010  0.51730  0.85710  Biso   1.000  C
  C79      1.0000 0.70184  0.41147  0.85560  Biso   1.000  C
  C80      1.0000 0.69685  0.33782  0.86468  Biso   1.000  C
  C81      1.0000 0.67510  0.23880  0.89320  Biso   1.000  C
  H54      1.0000 0.65960  0.20110  0.91800  Biso   1.000  H
  Fe10     1.0000 0.10376  0.97824  0.47997  Biso   1.000  Fe
  N64      1.0000 0.11707  0.08246  0.42860  Biso   1.000  N
  N65      1.0000 0.17081  0.96042  0.39284  Biso   1.000  N
  N66      1.0000 0.22950  0.00402  0.30160  Biso   1.000  N
  H55      1.0000 0.24610  0.03290  0.27240  Biso   1.000  H
  N67      1.0000 0.23760  0.93517  0.30117  Biso   1.000  N
  N68      1.0000 0.16500  0.80318  0.41511  Biso   1.000  N
  N69      1.0000 0.22368  0.79860  0.31507  Biso   1.000  N
  N70      1.0000 0.20902  0.73314  0.33363  Biso   1.000  N
  C82      1.0000 0.08780  0.14200  0.44680  Biso   1.000  C
  H56      1.0000 0.05440  0.14310  0.48130  Biso   1.000  H
  C83      1.0000 0.10750  0.20050  0.41450  Biso   1.000  C
  H57      1.0000 0.08760  0.24120  0.42880  Biso   1.000  H
  C84      1.0000 0.15270  0.20290  0.36460  Biso   1.000  C
  H58      1.0000 0.16370  0.24370  0.34250  Biso   1.000  H
  C85      1.0000 0.18240  0.14450  0.34650  Biso   1.000  C
  H59      1.0000 0.21650  0.14460  0.31290  Biso   1.000  H
  C86      1.0000 0.16310  0.08320  0.37720  Biso   1.000  C
  C87      1.0000 0.19010  0.01730  0.35710  Biso   1.000  C
  C88      1.0000 0.20184  0.91147  0.35560  Biso   1.000  C
  C89      1.0000 0.19685  0.83782  0.36468  Biso   1.000  C
  C90      1.0000 0.17510  0.73880  0.39320  Biso   1.000  C
  H60      1.0000 0.15960  0.70110  0.41800  Biso   1.000  H
  Fe11     1.0000 0.89624  0.52176  0.47997  Biso   1.000  Fe
  N71      1.0000 0.88293  0.41754  0.42860  Biso   1.000  N
  N72      1.0000 0.82919  0.53958  0.39284  Biso   1.000  N
  N73      1.0000 0.77050  0.49598  0.30160  Biso   1.000  N
  H61      1.0000 0.75390  0.46710  0.27240  Biso   1.000  H
  N74      1.0000 0.76240  0.56483  0.30117  Biso   1.000  N
  N75      1.0000 0.83500  0.69682  0.41511  Biso   1.000  N
  N76      1.0000 0.77632  0.70140  0.31507  Biso   1.000  N
  N77      1.0000 0.79098  0.76686  0.33363  Biso   1.000  N
  C91      1.0000 0.91220  0.35800  0.44680  Biso   1.000  C
  H62      1.0000 0.94560  0.35690  0.48130  Biso   1.000  H
  C92      1.0000 0.89250  0.29950  0.41450  Biso   1.000  C
  H63      1.0000 0.91240  0.25880  0.42880  Biso   1.000  H
  C93      1.0000 0.84730  0.29710  0.36460  Biso   1.000  C
  H64      1.0000 0.83630  0.25630  0.34250  Biso   1.000  H
  C94      1.0000 0.81760  0.35550  0.34650  Biso   1.000  C
  H65      1.0000 0.78350  0.35540  0.31290  Biso   1.000  H
  C95      1.0000 0.83690  0.41680  0.37720  Biso   1.000  C
  C96      1.0000 0.80990  0.48270  0.35710  Biso   1.000  C
  C97      1.0000 0.79816  0.58853  0.35560  Biso   1.000  C
  C98      1.0000 0.80315  0.66218  0.36468  Biso   1.000  C
  C99      1.0000 0.82490  0.76120  0.39320  Biso   1.000  C
  H66      1.0000 0.84040  0.79890  0.41800  Biso   1.000  H
  Fe12     1.0000 0.39624  0.02176  0.97997  Biso   1.000  Fe
  N78      1.0000 0.38293  0.91754  0.92860  Biso   1.000  N
  N79      1.0000 0.32919  0.03958  0.89284  Biso   1.000  N
  N80      1.0000 0.27050  0.99598  0.80160  Biso   1.000  N
  H67      1.0000 0.25390  0.96710  0.77240  Biso   1.000  H
  N81      1.0000 0.26240  0.06483  0.80117  Biso   1.000  N
  N82      1.0000 0.33500  0.19682  0.91511  Biso   1.000  N
  N83      1.0000 0.27632  0.20140  0.81507  Biso   1.000  N
  N84      1.0000 0.29098  0.26686  0.83363  Biso   1.000  N
  C100     1.0000 0.41220  0.85800  0.94680  Biso   1.000  C
  H68      1.0000 0.44560  0.85690  0.98130  Biso   1.000  H
  C101     1.0000 0.39250  0.79950  0.91450  Biso   1.000  C
  H69      1.0000 0.41240  0.75880  0.92880  Biso   1.000  H
  C102     1.0000 0.34730  0.79710  0.86460  Biso   1.000  C
  H70      1.0000 0.33630  0.75630  0.84250  Biso   1.000  H
  C103     1.0000 0.31760  0.85550  0.84650  Biso   1.000  C
  H71      1.0000 0.28350  0.85540  0.81290  Biso   1.000  H
  C104     1.0000 0.33690  0.91680  0.87720  Biso   1.000  C
  C105     1.0000 0.30990  0.98270  0.85710  Biso   1.000  C
  C106     1.0000 0.29816  0.08853  0.85560  Biso   1.000  C
  C107     1.0000 0.30315  0.16218  0.86468  Biso   1.000  C
  C108     1.0000 0.32490  0.26120  0.89320  Biso   1.000  C
  H72      1.0000 0.34040  0.29890  0.91800  Biso   1.000  H
  Fe13     1.0000 0.77176  0.35376  0.72997  Biso   1.000  Fe
  N85      1.0000 0.66754  0.36707  0.67860  Biso   1.000  N
  N86      1.0000 0.78958  0.42081  0.64284  Biso   1.000  N
  N87      1.0000 0.74598  0.47950  0.55160  Biso   1.000  N
  H73      1.0000 0.71710  0.49610  0.52240  Biso   1.000  H
  N88      1.0000 0.81483  0.48760  0.55117  Biso   1.000  N
  N89      1.0000 0.94682  0.41500  0.66511  Biso   1.000  N
  N90      1.0000 0.95140  0.47368  0.56507  Biso   1.000  N
  N91      1.0000 0.01686  0.45902  0.58363  Biso   1.000  N
  C109     1.0000 0.60800  0.33780  0.69680  Biso   1.000  C
  H74      1.0000 0.60690  0.30440  0.73130  Biso   1.000  H
  C110     1.0000 0.54950  0.35750  0.66450  Biso   1.000  C
  H75      1.0000 0.50880  0.33760  0.67880  Biso   1.000  H
  C111     1.0000 0.54710  0.40270  0.61460  Biso   1.000  C
  H76      1.0000 0.50630  0.41370  0.59250  Biso   1.000  H
  C112     1.0000 0.60550  0.43240  0.59650  Biso   1.000  C
  H77      1.0000 0.60540  0.46650  0.56290  Biso   1.000  H
  C113     1.0000 0.66680  0.41310  0.62720  Biso   1.000  C
  C114     1.0000 0.73270  0.44010  0.60710  Biso   1.000  C
  C115     1.0000 0.83853  0.45184  0.60560  Biso   1.000  C
  C116     1.0000 0.91218  0.44685  0.61468  Biso   1.000  C
  C117     1.0000 0.01120  0.42510  0.64320  Biso   1.000  C
  H78      1.0000 0.04890  0.40960  0.66800  Biso   1.000  H
  Fe14     1.0000 0.27176  0.85376  0.22997  Biso   1.000  Fe
  N92      1.0000 0.16754  0.86707  0.17860  Biso   1.000  N
  N93      1.0000 0.28958  0.92081  0.14284  Biso   1.000  N
  N94      1.0000 0.24598  0.97950  0.05160  Biso   1.000  N
  H79      1.0000 0.21710  0.99610  0.02240  Biso   1.000  H
  N95      1.0000 0.31483  0.98760  0.05117  Biso   1.000  N
  N96      1.0000 0.44682  0.91500  0.16511  Biso   1.000  N
  N97      1.0000 0.45140  0.97368  0.06507  Biso   1.000  N
  N98      1.0000 0.51686  0.95902  0.08363  Biso   1.000  N
  C118     1.0000 0.10800  0.83780  0.19680  Biso   1.000  C
  H80      1.0000 0.10690  0.80440  0.23130  Biso   1.000  H
  C119     1.0000 0.04950  0.85750  0.16450  Biso   1.000  C
  H81      1.0000 0.00880  0.83760  0.17880  Biso   1.000  H
  C120     1.0000 0.04710  0.90270  0.11460  Biso   1.000  C
  H82      1.0000 0.00630  0.91370  0.09250  Biso   1.000  H
  C121     1.0000 0.10550  0.93240  0.09650  Biso   1.000  C
  H83      1.0000 0.10540  0.96650  0.06290  Biso   1.000  H
  C122     1.0000 0.16680  0.91310  0.12720  Biso   1.000  C
  C123     1.0000 0.23270  0.94010  0.10710  Biso   1.000  C
  C124     1.0000 0.33853  0.95184  0.10560  Biso   1.000  C
  C125     1.0000 0.41218  0.94685  0.11468  Biso   1.000  C
  C126     1.0000 0.51120  0.92510  0.14320  Biso   1.000  C
  H84      1.0000 0.54890  0.90960  0.16800  Biso   1.000  H
  Fe15     1.0000 0.72824  0.64624  0.22997  Biso   1.000  Fe
  N99      1.0000 0.83246  0.63293  0.17860  Biso   1.000  N
  N100     1.0000 0.71042  0.57919  0.14284  Biso   1.000  N
  N101     1.0000 0.75402  0.52050  0.05160  Biso   1.000  N
  H85      1.0000 0.78290  0.50390  0.02240  Biso   1.000  H
  N102     1.0000 0.68517  0.51240  0.05117  Biso   1.000  N
  N103     1.0000 0.55318  0.58500  0.16511  Biso   1.000  N
  N104     1.0000 0.54860  0.52632  0.06507  Biso   1.000  N
  N105     1.0000 0.48314  0.54098  0.08363  Biso   1.000  N
  C127     1.0000 0.89200  0.66220  0.19680  Biso   1.000  C
  H86      1.0000 0.89310  0.69560  0.23130  Biso   1.000  H
  C128     1.0000 0.95050  0.64250  0.16450  Biso   1.000  C
  H87      1.0000 0.99120  0.66240  0.17880  Biso   1.000  H
  C129     1.0000 0.95290  0.59730  0.11460  Biso   1.000  C
  H88      1.0000 0.99370  0.58630  0.09250  Biso   1.000  H
  C130     1.0000 0.89450  0.56760  0.09650  Biso   1.000  C
  H89      1.0000 0.89460  0.53350  0.06290  Biso   1.000  H
  C131     1.0000 0.83320  0.58690  0.12720  Biso   1.000  C
  C132     1.0000 0.76730  0.55990  0.10710  Biso   1.000  C
  C133     1.0000 0.66147  0.54816  0.10560  Biso   1.000  C
  C134     1.0000 0.58782  0.55315  0.11468  Biso   1.000  C
  C135     1.0000 0.48880  0.57490  0.14320  Biso   1.000  C
  H90      1.0000 0.45110  0.59040  0.16800  Biso   1.000  H
  Fe16     1.0000 0.22824  0.14624  0.72997  Biso   1.000  Fe
  N106     1.0000 0.33246  0.13293  0.67860  Biso   1.000  N
  N107     1.0000 0.21042  0.07919  0.64284  Biso   1.000  N
  N108     1.0000 0.25402  0.02050  0.55160  Biso   1.000  N
  H91      1.0000 0.28290  0.00390  0.52240  Biso   1.000  H
  N109     1.0000 0.18517  0.01240  0.55117  Biso   1.000  N
  N110     1.0000 0.05318  0.08500  0.66511  Biso   1.000  N
  N111     1.0000 0.04860  0.02632  0.56507  Biso   1.000  N
  N112     1.0000 0.98314  0.04098  0.58363  Biso   1.000  N
  C136     1.0000 0.39200  0.16220  0.69680  Biso   1.000  C
  H92      1.0000 0.39310  0.19560  0.73130  Biso   1.000  H
  C137     1.0000 0.45050  0.14250  0.66450  Biso   1.000  C
  H93      1.0000 0.49120  0.16240  0.67880  Biso   1.000  H
  C138     1.0000 0.45290  0.09730  0.61460  Biso   1.000  C
  H94      1.0000 0.49370  0.08630  0.59250  Biso   1.000  H
  C139     1.0000 0.39450  0.06760  0.59650  Biso   1.000  C
  H95      1.0000 0.39460  0.03350  0.56290  Biso   1.000  H
  C140     1.0000 0.33320  0.08690  0.62720  Biso   1.000  C
  C141     1.0000 0.26730  0.05990  0.60710  Biso   1.000  C
  C142     1.0000 0.16147  0.04816  0.60560  Biso   1.000  C
  C143     1.0000 0.08782  0.05315  0.61468  Biso   1.000  C
  C144     1.0000 0.98880  0.07490  0.64320  Biso   1.000  C
  H96      1.0000 0.95110  0.09040  0.66800  Biso   1.000  H
