data_image0
_cell_length_a       7.9341
_cell_length_b       11.55
_cell_length_c       18.1157
_cell_angle_alpha    90
_cell_angle_beta     90
_cell_angle_gamma    90

_symmetry_space_group_name_H-M    "P 1"
_symmetry_int_tables_number       1

loop_
  _symmetry_equiv_pos_as_xyz
  'x, y, z'

loop_
  _atom_site_label
  _atom_site_occupancy
  _atom_site_fract_x
  _atom_site_fract_y
  _atom_site_fract_z
  _atom_site_thermal_displace_type
  _atom_site_B_iso_or_equiv
  _atom_site_type_symbol
  C1       1.0000 0.30500  0.92750  0.26843  Biso   1.000  C
  C2       1.0000 0.38740  0.82110  0.26400  Biso   1.000  C
  H1       1.0000 0.42480  0.78380  0.30780  Biso   1.000  H
  C3       1.0000 0.41480  0.76960  0.19625  Biso   1.000  C
  H2       1.0000 0.47300  0.69780  0.19370  Biso   1.000  H
  C4       1.0000 0.35840  0.82140  0.13208  Biso   1.000  C
  C5       1.0000 0.27490  0.92760  0.13660  Biso   1.000  C
  H3       1.0000 0.23560  0.96410  0.09290  Biso   1.000  H
  C6       1.0000 0.24910  0.98000  0.20410  Biso   1.000  C
  H4       1.0000 0.19260  0.05240  0.20650  Biso   1.000  H
  C7       1.0000 0.38480  0.77070  0.05919  Biso   1.000  C
  N1       1.0000 0.27350  0.98230  0.33691  Biso   1.000  N
  H5       1.0000 0.29000  0.05000  0.33300  Biso   1.000  H
  H6       1.0000 0.31700  0.95500  0.36800  Biso   1.000  H
  N2       1.0000 0.43820  0.66960  0.03904  Biso   1.000  N
  C8       1.0000 0.69500  0.07250  0.26843  Biso   1.000  C
  C9       1.0000 0.61260  0.17890  0.26400  Biso   1.000  C
  H7       1.0000 0.57520  0.21620  0.30780  Biso   1.000  H
  C10      1.0000 0.58520  0.23040  0.19625  Biso   1.000  C
  H8       1.0000 0.52700  0.30220  0.19370  Biso   1.000  H
  C11      1.0000 0.64160  0.17860  0.13208  Biso   1.000  C
  C12      1.0000 0.72510  0.07240  0.13660  Biso   1.000  C
  H9       1.0000 0.76440  0.03590  0.09290  Biso   1.000  H
  C13      1.0000 0.75090  0.02000  0.20410  Biso   1.000  C
  H10      1.0000 0.80740  0.94760  0.20650  Biso   1.000  H
  C14      1.0000 0.61520  0.22930  0.05919  Biso   1.000  C
  N3       1.0000 0.72650  0.01770  0.33691  Biso   1.000  N
  H11      1.0000 0.71000  0.95000  0.33300  Biso   1.000  H
  H12      1.0000 0.68300  0.04500  0.36800  Biso   1.000  H
  N4       1.0000 0.56180  0.33040  0.03904  Biso   1.000  N
  C15      1.0000 0.69500  0.07250  0.73157  Biso   1.000  C
  C16      1.0000 0.61260  0.17890  0.73600  Biso   1.000  C
  H13      1.0000 0.57520  0.21620  0.69220  Biso   1.000  H
  C17      1.0000 0.58520  0.23040  0.80375  Biso   1.000  C
  H14      1.0000 0.52700  0.30220  0.80630  Biso   1.000  H
  C18      1.0000 0.64160  0.17860  0.86792  Biso   1.000  C
  C19      1.0000 0.72510  0.07240  0.86340  Biso   1.000  C
  H15      1.0000 0.76440  0.03590  0.90710  Biso   1.000  H
  C20      1.0000 0.75090  0.02000  0.79590  Biso   1.000  C
  H16      1.0000 0.80740  0.94760  0.79350  Biso   1.000  H
  C21      1.0000 0.61520  0.22930  0.94081  Biso   1.000  C
  N5       1.0000 0.72650  0.01770  0.66309  Biso   1.000  N
  H17      1.0000 0.71000  0.95000  0.66700  Biso   1.000  H
  H18      1.0000 0.68300  0.04500  0.63200  Biso   1.000  H
  N6       1.0000 0.56180  0.33040  0.96096  Biso   1.000  N
  C22      1.0000 0.30500  0.92750  0.73157  Biso   1.000  C
  C23      1.0000 0.38740  0.82110  0.73600  Biso   1.000  C
  H19      1.0000 0.42480  0.78380  0.69220  Biso   1.000  H
  C24      1.0000 0.41480  0.76960  0.80375  Biso   1.000  C
  H20      1.0000 0.47300  0.69780  0.80630  Biso   1.000  H
  C25      1.0000 0.35840  0.82140  0.86792  Biso   1.000  C
  C26      1.0000 0.27490  0.92760  0.86340  Biso   1.000  C
  H21      1.0000 0.23560  0.96410  0.90710  Biso   1.000  H
  C27      1.0000 0.24910  0.98000  0.79590  Biso   1.000  C
  H22      1.0000 0.19260  0.05240  0.79350  Biso   1.000  H
  C28      1.0000 0.38480  0.77070  0.94081  Biso   1.000  C
  N7       1.0000 0.27350  0.98230  0.66309  Biso   1.000  N
  H23      1.0000 0.29000  0.05000  0.66700  Biso   1.000  H
  H24      1.0000 0.31700  0.95500  0.63200  Biso   1.000  H
  N8       1.0000 0.43820  0.66960  0.96096  Biso   1.000  N
  Ag1      1.0000 0.50000  0.50000  0.09898  Biso   1.000  Ag
  Ag2      1.0000 0.50000  0.50000  0.90102  Biso   1.000  Ag
  O1       1.0000 0.35000  0.83900  0.00000  Biso   1.000  O
  O2       1.0000 0.65000  0.16100  0.00000  Biso   1.000  O
  C29      1.0000 0.19500  0.42750  0.23157  Biso   1.000  C
  C30      1.0000 0.11260  0.32110  0.23600  Biso   1.000  C
  H25      1.0000 0.07520  0.28380  0.19220  Biso   1.000  H
  C31      1.0000 0.08520  0.26960  0.30375  Biso   1.000  C
  H26      1.0000 0.02700  0.19780  0.30630  Biso   1.000  H
  C32      1.0000 0.14160  0.32140  0.36792  Biso   1.000  C
  C33      1.0000 0.22510  0.42760  0.36340  Biso   1.000  C
  H27      1.0000 0.26440  0.46410  0.40710  Biso   1.000  H
  C34      1.0000 0.25090  0.48000  0.29590  Biso   1.000  C
  H28      1.0000 0.30740  0.55240  0.29350  Biso   1.000  H
  C35      1.0000 0.11520  0.27070  0.44081  Biso   1.000  C
  N9       1.0000 0.22650  0.48230  0.16309  Biso   1.000  N
  H29      1.0000 0.21000  0.55000  0.16700  Biso   1.000  H
  H30      1.0000 0.18300  0.45500  0.13200  Biso   1.000  H
  N10      1.0000 0.06180  0.16960  0.46096  Biso   1.000  N
  C36      1.0000 0.80500  0.57250  0.23157  Biso   1.000  C
  C37      1.0000 0.88740  0.67890  0.23600  Biso   1.000  C
  H31      1.0000 0.92480  0.71620  0.19220  Biso   1.000  H
  C38      1.0000 0.91480  0.73040  0.30375  Biso   1.000  C
  H32      1.0000 0.97300  0.80220  0.30630  Biso   1.000  H
  C39      1.0000 0.85840  0.67860  0.36792  Biso   1.000  C
  C40      1.0000 0.77490  0.57240  0.36340  Biso   1.000  C
  H33      1.0000 0.73560  0.53590  0.40710  Biso   1.000  H
  C41      1.0000 0.74910  0.52000  0.29590  Biso   1.000  C
  H34      1.0000 0.69260  0.44760  0.29350  Biso   1.000  H
  C42      1.0000 0.88480  0.72930  0.44081  Biso   1.000  C
  N11      1.0000 0.77350  0.51770  0.16309  Biso   1.000  N
  H35      1.0000 0.79000  0.45000  0.16700  Biso   1.000  H
  H36      1.0000 0.81700  0.54500  0.13200  Biso   1.000  H
  N12      1.0000 0.93820  0.83040  0.46096  Biso   1.000  N
  C43      1.0000 0.80500  0.57250  0.76843  Biso   1.000  C
  C44      1.0000 0.88740  0.67890  0.76400  Biso   1.000  C
  H37      1.0000 0.92480  0.71620  0.80780  Biso   1.000  H
  C45      1.0000 0.91480  0.73040  0.69625  Biso   1.000  C
  H38      1.0000 0.97300  0.80220  0.69370  Biso   1.000  H
  C46      1.0000 0.85840  0.67860  0.63208  Biso   1.000  C
  C47      1.0000 0.77490  0.57240  0.63660  Biso   1.000  C
  H39      1.0000 0.73560  0.53590  0.59290  Biso   1.000  H
  C48      1.0000 0.74910  0.52000  0.70410  Biso   1.000  C
  H40      1.0000 0.69260  0.44760  0.70650  Biso   1.000  H
  C49      1.0000 0.88480  0.72930  0.55919  Biso   1.000  C
  N13      1.0000 0.77350  0.51770  0.83691  Biso   1.000  N
  H41      1.0000 0.79000  0.45000  0.83300  Biso   1.000  H
  H42      1.0000 0.81700  0.54500  0.86800  Biso   1.000  H
  N14      1.0000 0.93820  0.83040  0.53904  Biso   1.000  N
  C50      1.0000 0.19500  0.42750  0.76843  Biso   1.000  C
  C51      1.0000 0.11260  0.32110  0.76400  Biso   1.000  C
  H43      1.0000 0.07520  0.28380  0.80780  Biso   1.000  H
  C52      1.0000 0.08520  0.26960  0.69625  Biso   1.000  C
  H44      1.0000 0.02700  0.19780  0.69370  Biso   1.000  H
  C53      1.0000 0.14160  0.32140  0.63208  Biso   1.000  C
  C54      1.0000 0.22510  0.42760  0.63660  Biso   1.000  C
  H45      1.0000 0.26440  0.46410  0.59290  Biso   1.000  H
  C55      1.0000 0.25090  0.48000  0.70410  Biso   1.000  C
  H46      1.0000 0.30740  0.55240  0.70650  Biso   1.000  H
  C56      1.0000 0.11520  0.27070  0.55919  Biso   1.000  C
  N15      1.0000 0.22650  0.48230  0.83691  Biso   1.000  N
  H47      1.0000 0.21000  0.55000  0.83300  Biso   1.000  H
  H48      1.0000 0.18300  0.45500  0.86800  Biso   1.000  H
  N16      1.0000 0.06180  0.16960  0.53904  Biso   1.000  N
  Ag3      1.0000 0.00000  0.00000  0.40102  Biso   1.000  Ag
  Ag4      1.0000 0.00000  0.00000  0.59898  Biso   1.000  Ag
  O3       1.0000 0.15000  0.33900  0.50000  Biso   1.000  O
  O4       1.0000 0.85000  0.66100  0.50000  Biso   1.000  O
