data_MUTVUT_clean
_audit_creation_date              2014-07-02
_audit_creation_method            'Materials Studio'
_symmetry_space_group_name_H-M    'P1'
_symmetry_Int_Tables_number       1
_symmetry_cell_setting            triclinic
loop_
_symmetry_equiv_pos_as_xyz
  x,y,z
_cell_length_a                    9.3345
_cell_length_b                    12.0427
_cell_length_c                    27.5140
_cell_angle_alpha                 90.0000
_cell_angle_beta                  90.0000
_cell_angle_gamma                 112.8030
loop_
_atom_site_label
_atom_site_type_symbol
_atom_site_fract_x
_atom_site_fract_y
_atom_site_fract_z
_atom_site_U_iso_or_equiv
_atom_site_adp_type
_atom_site_occupancy
Cd1    Cd    0.64916  -0.00000   0.50000   0.01267  Uiso   1.00
Cd2    Cd    0.35084   0.00000   1.00000   0.01267  Uiso   1.00
Cd3    Cd    0.74404   0.48808   0.25000   0.01267  Uiso   1.00
Cd4    Cd    0.25596   0.51192   0.75000   0.01267  Uiso   1.00
H1     H     0.74290   0.62820   0.50900   0.01267  Uiso   1.00
H2     H     0.88930   0.51540   0.49390   0.01267  Uiso   1.00
H3     H     0.13480   0.75160   0.39340   0.01267  Uiso   1.00
H4     H     0.97970   0.86220   0.40690   0.01267  Uiso   1.00
H5     H     0.41330   0.64580   0.44740   0.01267  Uiso   1.00
H6     H     0.59090   0.64620   0.38960   0.01267  Uiso   1.00
H7     H     0.25260   0.52060   0.29110   0.01267  Uiso   1.00
H8     H     0.07460   0.52340   0.34960   0.01267  Uiso   1.00
H9     H     0.47860   0.23760   0.25910   0.01267  Uiso   1.00
H10    H     0.32050   0.23880   0.24030   0.01267  Uiso   1.00
H11    H     0.36710   0.13040   0.22760   0.01267  Uiso   1.00
H12    H     0.74530   0.45520   0.12570   0.01267  Uiso   1.00
H13    H     0.52640   0.32500   0.07630   0.01267  Uiso   1.00
H14    H     0.27390   0.13600   0.09660   0.01267  Uiso   1.00
H15    H     0.24330   0.09520   0.15110   0.01267  Uiso   1.00
H16    H     0.14970   0.24380   0.16630   0.01267  Uiso   1.00
H17    H     0.18610   0.29000   0.11270   0.01267  Uiso   1.00
H18    H     0.99500   0.11140   0.08360   0.01267  Uiso   1.00
H19    H     0.96250   0.05900   0.13660   0.01267  Uiso   1.00
H20    H     0.90640   0.26320   0.10620   0.01267  Uiso   1.00
H21    H     0.87170   0.20900   0.15870   0.01267  Uiso   1.00
H22    H     0.61830   0.00480   0.16840   0.01267  Uiso   1.00
H23    H     0.39380   0.91080   0.11580   0.01267  Uiso   1.00
H24    H     0.69720   0.15560   0.99410   0.01267  Uiso   1.00
H25    H     0.72540   0.26720   0.02780   0.01267  Uiso   1.00
H26    H     0.84790   0.20780   0.02610   0.01267  Uiso   1.00
H27    H     0.25710   0.37180   0.00900   0.01267  Uiso   1.00
H28    H     0.11070   0.48460   0.99390   0.01267  Uiso   1.00
H29    H     0.86520   0.24840   0.89340   0.01267  Uiso   1.00
H30    H     0.02030   0.13780   0.90690   0.01267  Uiso   1.00
H31    H     0.58670   0.35420   0.94740   0.01267  Uiso   1.00
H32    H     0.40910   0.35380   0.88960   0.01267  Uiso   1.00
H33    H     0.74740   0.47940   0.79110   0.01267  Uiso   1.00
H34    H     0.92540   0.47660   0.84960   0.01267  Uiso   1.00
H35    H     0.52140   0.76240   0.75910   0.01267  Uiso   1.00
H36    H     0.67950   0.76120   0.74030   0.01267  Uiso   1.00
H37    H     0.63290   0.86960   0.72760   0.01267  Uiso   1.00
H38    H     0.25470   0.54480   0.62570   0.01267  Uiso   1.00
H39    H     0.47360   0.67500   0.57630   0.01267  Uiso   1.00
H40    H     0.72610   0.86400   0.59660   0.01267  Uiso   1.00
H41    H     0.75670   0.90480   0.65110   0.01267  Uiso   1.00
H42    H     0.85030   0.75620   0.66630   0.01267  Uiso   1.00
H43    H     0.81390   0.71000   0.61270   0.01267  Uiso   1.00
H44    H     0.00500   0.88860   0.58360   0.01267  Uiso   1.00
H45    H     0.03750   0.94100   0.63660   0.01267  Uiso   1.00
H46    H     0.09360   0.73680   0.60620   0.01267  Uiso   1.00
H47    H     0.12830   0.79100   0.65870   0.01267  Uiso   1.00
H48    H     0.38170   0.99520   0.66840   0.01267  Uiso   1.00
H49    H     0.60620   0.08920   0.61580   0.01267  Uiso   1.00
H50    H     0.30280   0.84440   0.49410   0.01267  Uiso   1.00
H51    H     0.27460   0.73280   0.52780   0.01267  Uiso   1.00
H52    H     0.15210   0.79220   0.52610   0.01267  Uiso   1.00
H53    H     0.88530   0.62820   0.99100   0.01267  Uiso   1.00
H54    H     0.62610   0.51540   0.00610   0.01267  Uiso   1.00
H55    H     0.61680   0.75160   0.10660   0.01267  Uiso   1.00
H56    H     0.88250   0.86220   0.09310   0.01267  Uiso   1.00
H57    H     0.23250   0.64580   0.05260   0.01267  Uiso   1.00
H58    H     0.05530   0.64620   0.11040   0.01267  Uiso   1.00
H59    H     0.26800   0.52060   0.20890   0.01267  Uiso   1.00
H60    H     0.44880   0.52340   0.15040   0.01267  Uiso   1.00
H61    H     0.75900   0.23760   0.24090   0.01267  Uiso   1.00
H62    H     0.91830   0.23880   0.25970   0.01267  Uiso   1.00
H63    H     0.76330   0.13040   0.27240   0.01267  Uiso   1.00
H64    H     0.70990   0.45520   0.37430   0.01267  Uiso   1.00
H65    H     0.79860   0.32500   0.42370   0.01267  Uiso   1.00
H66    H     0.86210   0.13600   0.40340   0.01267  Uiso   1.00
H67    H     0.85190   0.09520   0.34890   0.01267  Uiso   1.00
H68    H     0.09410   0.24380   0.33370   0.01267  Uiso   1.00
H69    H     0.10390   0.29000   0.38730   0.01267  Uiso   1.00
H70    H     0.11640   0.11140   0.41640   0.01267  Uiso   1.00
H71    H     0.09650   0.05900   0.36340   0.01267  Uiso   1.00
H72    H     0.35680   0.26320   0.39380   0.01267  Uiso   1.00
H73    H     0.33730   0.20900   0.34130   0.01267  Uiso   1.00
H74    H     0.38650   0.00480   0.33160   0.01267  Uiso   1.00
H75    H     0.51700   0.91080   0.38420   0.01267  Uiso   1.00
H76    H     0.45840   0.15560   0.50590   0.01267  Uiso   1.00
H77    H     0.54180   0.26720   0.47220   0.01267  Uiso   1.00
H78    H     0.35990   0.20780   0.47390   0.01267  Uiso   1.00
H79    H     0.11470   0.37180   0.49100   0.01267  Uiso   1.00
H80    H     0.37390   0.48460   0.50610   0.01267  Uiso   1.00
H81    H     0.38320   0.24840   0.60660   0.01267  Uiso   1.00
H82    H     0.11750   0.13780   0.59310   0.01267  Uiso   1.00
H83    H     0.76750   0.35420   0.55260   0.01267  Uiso   1.00
H84    H     0.94470   0.35380   0.61040   0.01267  Uiso   1.00
H85    H     0.73200   0.47940   0.70890   0.01267  Uiso   1.00
H86    H     0.55120   0.47660   0.65040   0.01267  Uiso   1.00
H87    H     0.24100   0.76240   0.74090   0.01267  Uiso   1.00
H88    H     0.08170   0.76120   0.75970   0.01267  Uiso   1.00
H89    H     0.23670   0.86960   0.77240   0.01267  Uiso   1.00
H90    H     0.29010   0.54480   0.87430   0.01267  Uiso   1.00
H91    H     0.20140   0.67500   0.92370   0.01267  Uiso   1.00
H92    H     0.13790   0.86400   0.90340   0.01267  Uiso   1.00
H93    H     0.14810   0.90480   0.84890   0.01267  Uiso   1.00
H94    H     0.90590   0.75620   0.83370   0.01267  Uiso   1.00
H95    H     0.89610   0.71000   0.88730   0.01267  Uiso   1.00
H96    H     0.88360   0.88860   0.91640   0.01267  Uiso   1.00
H97    H     0.90350   0.94100   0.86340   0.01267  Uiso   1.00
H98    H     0.64320   0.73680   0.89380   0.01267  Uiso   1.00
H99    H     0.66270   0.79100   0.84130   0.01267  Uiso   1.00
H100   H     0.61350   0.99520   0.83160   0.01267  Uiso   1.00
H101   H     0.48300   0.08920   0.88420   0.01267  Uiso   1.00
H102   H     0.54160   0.84440   0.00590   0.01267  Uiso   1.00
H103   H     0.45820   0.73280   0.97220   0.01267  Uiso   1.00
H104   H     0.64010   0.79220   0.97390   0.01267  Uiso   1.00
C1     C     0.75670   0.83400   0.46920   0.01267  Uiso   1.00
C2     C     0.84670   0.75500   0.45960   0.01267  Uiso   1.00
C3     C     0.82040   0.65300   0.48550   0.01267  Uiso   1.00
C4     C     0.90920   0.58640   0.47680   0.01267  Uiso   1.00
C5     C     0.02570   0.62380   0.44340   0.01267  Uiso   1.00
C6     C     0.05570   0.72680   0.41640   0.01267  Uiso   1.00
C7     C     0.96310   0.79280   0.42480   0.01267  Uiso   1.00
C8     C     0.22550   0.57660   0.40420   0.01267  Uiso   1.00
C9     C     0.38050   0.61840   0.41610   0.01267  Uiso   1.00
C10    C     0.48620   0.61960   0.38150   0.01267  Uiso   1.00
C11    C     0.43970   0.58200   0.33490   0.01267  Uiso   1.00
C12    C     0.28530   0.54520   0.32270   0.01267  Uiso   1.00
C13    C     0.17860   0.54520   0.35790   0.01267  Uiso   1.00
C14    C     0.55390   0.56860   0.29880   0.01267  Uiso   1.00
C15    C     0.40560   0.21580   0.23270   0.01267  Uiso   1.00
C16    C     0.48410   0.27900   0.18760   0.01267  Uiso   1.00
C17    C     0.65500   0.39540   0.13750   0.01267  Uiso   1.00
C18    C     0.53480   0.32380   0.11000   0.01267  Uiso   1.00
C19    C     0.27270   0.16440   0.12960   0.01267  Uiso   1.00
C20    C     0.15420   0.21880   0.13300   0.01267  Uiso   1.00
C21    C     0.99280   0.13240   0.11760   0.01267  Uiso   1.00
C22    C     0.87390   0.18880   0.12460   0.01267  Uiso   1.00
C23    C     0.60940   0.02480   0.13620   0.01267  Uiso   1.00
C24    C     0.48570   0.97380   0.10700   0.01267  Uiso   1.00
C25    C     0.65690   0.11080   0.06490   0.01267  Uiso   1.00
C26    C     0.73910   0.19260   0.02470   0.01267  Uiso   1.00
C27    C     0.24330   0.16600   0.96920   0.01267  Uiso   1.00
C28    C     0.15330   0.24500   0.95960   0.01267  Uiso   1.00
C29    C     0.17960   0.34700   0.98550   0.01267  Uiso   1.00
C30    C     0.09080   0.41360   0.97680   0.01267  Uiso   1.00
C31    C     0.97430   0.37620   0.94340   0.01267  Uiso   1.00
C32    C     0.94430   0.27320   0.91640   0.01267  Uiso   1.00
C33    C     0.03690   0.20720   0.92480   0.01267  Uiso   1.00
C34    C     0.77450   0.42340   0.90420   0.01267  Uiso   1.00
C35    C     0.61950   0.38160   0.91610   0.01267  Uiso   1.00
C36    C     0.51380   0.38040   0.88150   0.01267  Uiso   1.00
C37    C     0.56030   0.41800   0.83490   0.01267  Uiso   1.00
C38    C     0.71470   0.45480   0.82270   0.01267  Uiso   1.00
C39    C     0.82140   0.45480   0.85790   0.01267  Uiso   1.00
C40    C     0.44610   0.43140   0.79880   0.01267  Uiso   1.00
C41    C     0.59440   0.78420   0.73270   0.01267  Uiso   1.00
C42    C     0.51590   0.72100   0.68760   0.01267  Uiso   1.00
C43    C     0.34500   0.60460   0.63750   0.01267  Uiso   1.00
C44    C     0.46520   0.67620   0.61000   0.01267  Uiso   1.00
C45    C     0.72730   0.83560   0.62960   0.01267  Uiso   1.00
C46    C     0.84580   0.78120   0.63300   0.01267  Uiso   1.00
C47    C     0.00720   0.86760   0.61760   0.01267  Uiso   1.00
C48    C     0.12610   0.81120   0.62460   0.01267  Uiso   1.00
C49    C     0.39060   0.97520   0.63620   0.01267  Uiso   1.00
C50    C     0.51430   0.02620   0.60700   0.01267  Uiso   1.00
C51    C     0.34310   0.88920   0.56490   0.01267  Uiso   1.00
C52    C     0.26090   0.80740   0.52470   0.01267  Uiso   1.00
C53    C     0.07730   0.83400   0.03080   0.01267  Uiso   1.00
C54    C     0.90830   0.75500   0.04040   0.01267  Uiso   1.00
C55    C     0.83260   0.65300   0.01450   0.01267  Uiso   1.00
C56    C     0.67720   0.58640   0.02320   0.01267  Uiso   1.00
C57    C     0.59810   0.62380   0.05660   0.01267  Uiso   1.00
C58    C     0.67110   0.72680   0.08360   0.01267  Uiso   1.00
C59    C     0.82970   0.79280   0.07520   0.01267  Uiso   1.00
C60    C     0.35110   0.57660   0.09580   0.01267  Uiso   1.00
C61    C     0.23790   0.61840   0.08390   0.01267  Uiso   1.00
C62    C     0.13340   0.61960   0.11850   0.01267  Uiso   1.00
C63    C     0.14230   0.58200   0.16510   0.01267  Uiso   1.00
C64    C     0.25990   0.54520   0.17730   0.01267  Uiso   1.00
C65    C     0.36660   0.54520   0.14210   0.01267  Uiso   1.00
C66    C     0.01470   0.56860   0.20120   0.01267  Uiso   1.00
C67    C     0.81020   0.21580   0.26730   0.01267  Uiso   1.00
C68    C     0.79490   0.27900   0.31240   0.01267  Uiso   1.00
C69    C     0.74040   0.39540   0.36250   0.01267  Uiso   1.00
C70    C     0.78900   0.32380   0.39000   0.01267  Uiso   1.00
C71    C     0.89170   0.16440   0.37040   0.01267  Uiso   1.00
C72    C     0.06460   0.21880   0.36700   0.01267  Uiso   1.00
C73    C     0.13960   0.13240   0.38240   0.01267  Uiso   1.00
C74    C     0.31490   0.18880   0.37540   0.01267  Uiso   1.00
C75    C     0.41540   0.02480   0.36380   0.01267  Uiso   1.00
C76    C     0.48810   0.97380   0.39300   0.01267  Uiso   1.00
C77    C     0.45390   0.11080   0.43510   0.01267  Uiso   1.00
C78    C     0.45350   0.19260   0.47530   0.01267  Uiso   1.00
C79    C     0.92270   0.16600   0.53080   0.01267  Uiso   1.00
C80    C     0.09170   0.24500   0.54040   0.01267  Uiso   1.00
C81    C     0.16740   0.34700   0.51450   0.01267  Uiso   1.00
C82    C     0.32280   0.41360   0.52320   0.01267  Uiso   1.00
C83    C     0.40190   0.37620   0.55660   0.01267  Uiso   1.00
C84    C     0.32890   0.27320   0.58360   0.01267  Uiso   1.00
C85    C     0.17030   0.20720   0.57520   0.01267  Uiso   1.00
C86    C     0.64890   0.42340   0.59580   0.01267  Uiso   1.00
C87    C     0.76210   0.38160   0.58390   0.01267  Uiso   1.00
C88    C     0.86660   0.38040   0.61850   0.01267  Uiso   1.00
C89    C     0.85770   0.41800   0.66510   0.01267  Uiso   1.00
C90    C     0.74010   0.45480   0.67730   0.01267  Uiso   1.00
C91    C     0.63340   0.45480   0.64210   0.01267  Uiso   1.00
C92    C     0.98530   0.43140   0.70120   0.01267  Uiso   1.00
C93    C     0.18980   0.78420   0.76730   0.01267  Uiso   1.00
C94    C     0.20510   0.72100   0.81240   0.01267  Uiso   1.00
C95    C     0.25960   0.60460   0.86250   0.01267  Uiso   1.00
C96    C     0.21100   0.67620   0.89000   0.01267  Uiso   1.00
C97    C     0.10830   0.83560   0.87040   0.01267  Uiso   1.00
C98    C     0.93540   0.78120   0.86700   0.01267  Uiso   1.00
C99    C     0.86040   0.86760   0.88240   0.01267  Uiso   1.00
C100   C     0.68510   0.81120   0.87540   0.01267  Uiso   1.00
C101   C     0.58460   0.97520   0.86380   0.01267  Uiso   1.00
C102   C     0.51190   0.02620   0.89300   0.01267  Uiso   1.00
C103   C     0.54610   0.88920   0.93510   0.01267  Uiso   1.00
C104   C     0.54650   0.80740   0.97530   0.01267  Uiso   1.00
N1     N     0.62370   0.36660   0.18570   0.01267  Uiso   1.00
N2     N     0.42660   0.24800   0.14220   0.01267  Uiso   1.00
N3     N     0.71880   0.11140   0.10960   0.01267  Uiso   1.00
N4     N     0.51470   0.02760   0.06264   0.01267  Uiso   1.00
N5     N     0.37630   0.63340   0.68570   0.01267  Uiso   1.00
N6     N     0.57340   0.75200   0.64220   0.01267  Uiso   1.00
N7     N     0.28120   0.88860   0.60960   0.01267  Uiso   1.00
N8     N     0.48530   0.97240   0.56264   0.01267  Uiso   1.00
N9     N     0.74290   0.36660   0.31430   0.01267  Uiso   1.00
N10    N     0.82140   0.24800   0.35780   0.01267  Uiso   1.00
N11    N     0.39260   0.11140   0.39040   0.01267  Uiso   1.00
N12    N     0.51290   0.02760   0.43736   0.01267  Uiso   1.00
N13    N     0.25710   0.63340   0.81430   0.01267  Uiso   1.00
N14    N     0.17860   0.75200   0.85780   0.01267  Uiso   1.00
N15    N     0.60740   0.88860   0.89040   0.01267  Uiso   1.00
N16    N     0.48710   0.97240   0.93736   0.01267  Uiso   1.00
O1     O     0.65630   0.80540   0.50280   0.01267  Uiso   1.00
O2     O     0.78630   0.92540   0.44470   0.01267  Uiso   1.00
O3     O     0.11850   0.55860   0.44188   0.01267  Uiso   1.00
O4     O     0.69860   0.61980   0.30800   0.01267  Uiso   1.00
O5     O     0.50220   0.50280   0.26190   0.01267  Uiso   1.00
O6     O     0.34370   0.19460   0.00280   0.01267  Uiso   1.00
O7     O     0.21370   0.07460   0.94470   0.01267  Uiso   1.00
O8     O     0.88150   0.44140   0.94188   0.01267  Uiso   1.00
O9     O     0.30140   0.38020   0.80800   0.01267  Uiso   1.00
O10    O     0.49780   0.49720   0.76190   0.01267  Uiso   1.00
O11    O     0.14910   0.80540   0.99720   0.01267  Uiso   1.00
O12    O     0.13910   0.92540   0.05530   0.01267  Uiso   1.00
O13    O     0.44010   0.55860   0.05812   0.01267  Uiso   1.00
O14    O     0.92120   0.61980   0.19200   0.01267  Uiso   1.00
O15    O     0.00060   0.50280   0.23810   0.01267  Uiso   1.00
O16    O     0.85090   0.19460   0.49720   0.01267  Uiso   1.00
O17    O     0.86090   0.07460   0.55530   0.01267  Uiso   1.00
O18    O     0.55990   0.44140   0.55812   0.01267  Uiso   1.00
O19    O     0.07880   0.38020   0.69200   0.01267  Uiso   1.00
O20    O     0.99940   0.49720   0.73810   0.01267  Uiso   1.00
