data_MUVGUG_clean
_audit_creation_date              2014-07-02
_audit_creation_method            'Materials Studio'
_symmetry_space_group_name_H-M    'P1'
_symmetry_Int_Tables_number       1
_symmetry_cell_setting            triclinic
loop_
_symmetry_equiv_pos_as_xyz
  x,y,z
_cell_length_a                    11.4190
_cell_length_b                    12.6700
_cell_length_c                    14.7520
_cell_angle_alpha                 90.0000
_cell_angle_beta                  90.0000
_cell_angle_gamma                 90.0000
loop_
_atom_site_label
_atom_site_type_symbol
_atom_site_fract_x
_atom_site_fract_y
_atom_site_fract_z
_atom_site_U_iso_or_equiv
_atom_site_adp_type
_atom_site_occupancy
Zn1    Zn    0.50000   0.50000   0.25000   0.01267  Uiso   1.00
Zn2    Zn    0.50000   0.50000   0.75000   0.01267  Uiso   1.00
H1     H     0.91080   0.65550   0.27480   0.01267  Uiso   1.00
H2     H     0.69800   0.77970   0.13610   0.01267  Uiso   1.00
H3     H     0.70970   0.65040   0.27640   0.01267  Uiso   1.00
H4     H     0.83950   0.90910   0.13550   0.01267  Uiso   1.00
H5     H     0.08920   0.34450   0.27480   0.01267  Uiso   1.00
H6     H     0.30200   0.22030   0.13610   0.01267  Uiso   1.00
H7     H     0.29030   0.34960   0.27640   0.01267  Uiso   1.00
H8     H     0.16050   0.09090   0.13550   0.01267  Uiso   1.00
H9     H     0.08920   0.65550   0.22520   0.01267  Uiso   1.00
H10    H     0.30200   0.77970   0.36390   0.01267  Uiso   1.00
H11    H     0.29030   0.65040   0.22360   0.01267  Uiso   1.00
H12    H     0.16050   0.90910   0.36450   0.01267  Uiso   1.00
H13    H     0.91080   0.34450   0.22520   0.01267  Uiso   1.00
H14    H     0.69800   0.22030   0.36390   0.01267  Uiso   1.00
H15    H     0.70970   0.34960   0.22360   0.01267  Uiso   1.00
H16    H     0.83950   0.09090   0.36450   0.01267  Uiso   1.00
H17    H     0.08920   0.34450   0.72520   0.01267  Uiso   1.00
H18    H     0.30200   0.22030   0.86390   0.01267  Uiso   1.00
H19    H     0.29030   0.34960   0.72360   0.01267  Uiso   1.00
H20    H     0.16050   0.09090   0.86450   0.01267  Uiso   1.00
H21    H     0.91080   0.65550   0.72520   0.01267  Uiso   1.00
H22    H     0.69800   0.77970   0.86390   0.01267  Uiso   1.00
H23    H     0.70970   0.65040   0.72360   0.01267  Uiso   1.00
H24    H     0.83950   0.90910   0.86450   0.01267  Uiso   1.00
H25    H     0.91080   0.34450   0.77480   0.01267  Uiso   1.00
H26    H     0.69800   0.22030   0.63610   0.01267  Uiso   1.00
H27    H     0.70970   0.34960   0.77640   0.01267  Uiso   1.00
H28    H     0.83950   0.09090   0.63550   0.01267  Uiso   1.00
H29    H     0.08920   0.65550   0.77480   0.01267  Uiso   1.00
H30    H     0.30200   0.77970   0.63610   0.01267  Uiso   1.00
H31    H     0.29030   0.65040   0.77640   0.01267  Uiso   1.00
H32    H     0.16050   0.90910   0.63550   0.01267  Uiso   1.00
C1     C     0.75080   0.58840   0.26510   0.01267  Uiso   1.00
C2     C     0.87190   0.59200   0.26500   0.01267  Uiso   1.00
C3     C     0.53820   0.65150   0.08041   0.01267  Uiso   1.00
C4     C     0.72430   0.80740   0.08140   0.01267  Uiso   1.00
C5     C     0.92060   0.09000   0.08040   0.01267  Uiso   1.00
C6     C     0.80740   0.88600   0.08100   0.01267  Uiso   1.00
C7     C     0.24920   0.41160   0.26510   0.01267  Uiso   1.00
C8     C     0.12810   0.40800   0.26500   0.01267  Uiso   1.00
C9     C     0.46180   0.34850   0.08041   0.01267  Uiso   1.00
C10    C     0.27570   0.19260   0.08140   0.01267  Uiso   1.00
C11    C     0.07940   0.91000   0.08040   0.01267  Uiso   1.00
C12    C     0.19260   0.11400   0.08100   0.01267  Uiso   1.00
C13    C     0.24920   0.58840   0.23490   0.01267  Uiso   1.00
C14    C     0.12810   0.59200   0.23500   0.01267  Uiso   1.00
C15    C     0.46180   0.65150   0.41959   0.01267  Uiso   1.00
C16    C     0.27570   0.80740   0.41860   0.01267  Uiso   1.00
C17    C     0.07940   0.09000   0.41960   0.01267  Uiso   1.00
C18    C     0.19260   0.88600   0.41900   0.01267  Uiso   1.00
C19    C     0.75080   0.41160   0.23490   0.01267  Uiso   1.00
C20    C     0.87190   0.40800   0.23500   0.01267  Uiso   1.00
C21    C     0.53820   0.34850   0.41959   0.01267  Uiso   1.00
C22    C     0.72430   0.19260   0.41860   0.01267  Uiso   1.00
C23    C     0.92060   0.91000   0.41960   0.01267  Uiso   1.00
C24    C     0.80740   0.11400   0.41900   0.01267  Uiso   1.00
C25    C     0.24920   0.41160   0.73490   0.01267  Uiso   1.00
C26    C     0.12810   0.40800   0.73500   0.01267  Uiso   1.00
C27    C     0.46180   0.34850   0.91959   0.01267  Uiso   1.00
C28    C     0.27570   0.19260   0.91860   0.01267  Uiso   1.00
C29    C     0.07940   0.91000   0.91960   0.01267  Uiso   1.00
C30    C     0.19260   0.11400   0.91900   0.01267  Uiso   1.00
C31    C     0.75080   0.58840   0.73490   0.01267  Uiso   1.00
C32    C     0.87190   0.59200   0.73500   0.01267  Uiso   1.00
C33    C     0.53820   0.65150   0.91959   0.01267  Uiso   1.00
C34    C     0.72430   0.80740   0.91860   0.01267  Uiso   1.00
C35    C     0.92060   0.09000   0.91960   0.01267  Uiso   1.00
C36    C     0.80740   0.88600   0.91900   0.01267  Uiso   1.00
C37    C     0.75080   0.41160   0.76510   0.01267  Uiso   1.00
C38    C     0.87190   0.40800   0.76500   0.01267  Uiso   1.00
C39    C     0.53820   0.34850   0.58041   0.01267  Uiso   1.00
C40    C     0.72430   0.19260   0.58140   0.01267  Uiso   1.00
C41    C     0.92060   0.91000   0.58040   0.01267  Uiso   1.00
C42    C     0.80740   0.11400   0.58100   0.01267  Uiso   1.00
C43    C     0.24920   0.58840   0.76510   0.01267  Uiso   1.00
C44    C     0.12810   0.59200   0.76500   0.01267  Uiso   1.00
C45    C     0.46180   0.65150   0.58041   0.01267  Uiso   1.00
C46    C     0.27570   0.80740   0.58140   0.01267  Uiso   1.00
C47    C     0.07940   0.09000   0.58040   0.01267  Uiso   1.00
C48    C     0.19260   0.88600   0.58100   0.01267  Uiso   1.00
C49    C     0.58500   0.69150   0.00000   0.01267  Uiso   1.00
C50    C     0.67830   0.76840   0.00000   0.01267  Uiso   1.00
C51    C     0.93200   0.02360   0.00000   0.01267  Uiso   1.00
C52    C     0.84290   0.93150   0.00000   0.01267  Uiso   1.00
C53    C     0.41500   0.30850   0.00000   0.01267  Uiso   1.00
C54    C     0.32170   0.23160   0.00000   0.01267  Uiso   1.00
C55    C     0.06800   0.97640   0.00000   0.01267  Uiso   1.00
C56    C     0.15710   0.06850   0.00000   0.01267  Uiso   1.00
C57    C     0.41500   0.69150   0.50000   0.01267  Uiso   1.00
C58    C     0.32170   0.76840   0.50000   0.01267  Uiso   1.00
C59    C     0.06800   0.02360   0.50000   0.01267  Uiso   1.00
C60    C     0.15710   0.93150   0.50000   0.01267  Uiso   1.00
C61    C     0.58500   0.30850   0.50000   0.01267  Uiso   1.00
C62    C     0.67830   0.23160   0.50000   0.01267  Uiso   1.00
C63    C     0.93200   0.97640   0.50000   0.01267  Uiso   1.00
C64    C     0.84290   0.06850   0.50000   0.01267  Uiso   1.00
C65    C     0.93470   0.50000   0.25000   0.01267  Uiso   1.00
C66    C     0.06530   0.50000   0.25000   0.01267  Uiso   1.00
C67    C     0.06530   0.50000   0.75000   0.01267  Uiso   1.00
C68    C     0.93470   0.50000   0.75000   0.01267  Uiso   1.00
N1     N     0.89900   0.13570   0.14480   0.01267  Uiso   1.00
N2     N     0.50128   0.61970   0.14748   0.01267  Uiso   1.00
N3     N     0.10100   0.86430   0.14480   0.01267  Uiso   1.00
N4     N     0.49872   0.38030   0.14748   0.01267  Uiso   1.00
N5     N     0.10100   0.13570   0.35520   0.01267  Uiso   1.00
N6     N     0.49872   0.61970   0.35252   0.01267  Uiso   1.00
N7     N     0.89900   0.86430   0.35520   0.01267  Uiso   1.00
N8     N     0.50128   0.38030   0.35252   0.01267  Uiso   1.00
N9     N     0.10100   0.86430   0.85520   0.01267  Uiso   1.00
N10    N     0.49872   0.38030   0.85252   0.01267  Uiso   1.00
N11    N     0.89900   0.13570   0.85520   0.01267  Uiso   1.00
N12    N     0.50128   0.61970   0.85252   0.01267  Uiso   1.00
N13    N     0.89900   0.86430   0.64480   0.01267  Uiso   1.00
N14    N     0.50128   0.38030   0.64748   0.01267  Uiso   1.00
N15    N     0.10100   0.13570   0.64480   0.01267  Uiso   1.00
N16    N     0.49872   0.61970   0.64748   0.01267  Uiso   1.00
N17    N     0.68970   0.50000   0.25000   0.01267  Uiso   1.00
N18    N     0.31030   0.50000   0.25000   0.01267  Uiso   1.00
N19    N     0.31030   0.50000   0.75000   0.01267  Uiso   1.00
N20    N     0.68970   0.50000   0.75000   0.01267  Uiso   1.00
