data_MUVHER_clean
_audit_creation_date              2014-07-02
_audit_creation_method            'Materials Studio'
_symmetry_space_group_name_H-M    'P1'
_symmetry_Int_Tables_number       1
_symmetry_cell_setting            triclinic
loop_
_symmetry_equiv_pos_as_xyz
  x,y,z
_cell_length_a                    11.3749
_cell_length_b                    12.7239
_cell_length_c                    14.8010
_cell_angle_alpha                 90.0000
_cell_angle_beta                  90.0000
_cell_angle_gamma                 90.0000
loop_
_atom_site_label
_atom_site_type_symbol
_atom_site_fract_x
_atom_site_fract_y
_atom_site_fract_z
_atom_site_U_iso_or_equiv
_atom_site_adp_type
_atom_site_occupancy
Zn1    Zn    0.00000   0.00000   0.25000   0.01267  Uiso   1.00
Zn2    Zn    0.00000   0.00000   0.75000   0.01267  Uiso   1.00
H1     H     0.58870   0.84360   0.22680   0.01267  Uiso   1.00
H2     H     0.79240   0.84800   0.22830   0.01267  Uiso   1.00
H3     H     0.19610   0.71750   0.13670   0.01267  Uiso   1.00
H4     H     0.33070   0.58260   0.13610   0.01267  Uiso   1.00
H5     H     0.41130   0.15640   0.22680   0.01267  Uiso   1.00
H6     H     0.20760   0.15200   0.22830   0.01267  Uiso   1.00
H7     H     0.80390   0.28250   0.13670   0.01267  Uiso   1.00
H8     H     0.66930   0.41740   0.13610   0.01267  Uiso   1.00
H9     H     0.41130   0.84360   0.27320   0.01267  Uiso   1.00
H10    H     0.20760   0.84800   0.27170   0.01267  Uiso   1.00
H11    H     0.80390   0.71750   0.36330   0.01267  Uiso   1.00
H12    H     0.66930   0.58260   0.36390   0.01267  Uiso   1.00
H13    H     0.58870   0.15640   0.27320   0.01267  Uiso   1.00
H14    H     0.79240   0.15200   0.27170   0.01267  Uiso   1.00
H15    H     0.19610   0.28250   0.36330   0.01267  Uiso   1.00
H16    H     0.33070   0.41740   0.36390   0.01267  Uiso   1.00
H17    H     0.41130   0.15640   0.77320   0.01267  Uiso   1.00
H18    H     0.20760   0.15200   0.77170   0.01267  Uiso   1.00
H19    H     0.80390   0.28250   0.86330   0.01267  Uiso   1.00
H20    H     0.66930   0.41740   0.86390   0.01267  Uiso   1.00
H21    H     0.58870   0.84360   0.77320   0.01267  Uiso   1.00
H22    H     0.79240   0.84800   0.77170   0.01267  Uiso   1.00
H23    H     0.19610   0.71750   0.86330   0.01267  Uiso   1.00
H24    H     0.33070   0.58260   0.86390   0.01267  Uiso   1.00
H25    H     0.58870   0.15640   0.72680   0.01267  Uiso   1.00
H26    H     0.79240   0.15200   0.72830   0.01267  Uiso   1.00
H27    H     0.19610   0.28250   0.63670   0.01267  Uiso   1.00
H28    H     0.33070   0.41740   0.63610   0.01267  Uiso   1.00
H29    H     0.41130   0.84360   0.72680   0.01267  Uiso   1.00
H30    H     0.20760   0.84800   0.72830   0.01267  Uiso   1.00
H31    H     0.80390   0.71750   0.63670   0.01267  Uiso   1.00
H32    H     0.66930   0.58260   0.63610   0.01267  Uiso   1.00
C1     C     0.03920   0.84939   0.08053   0.01267  Uiso   1.00
C2     C     0.41810   0.41120   0.08060   0.01267  Uiso   1.00
C3     C     0.62840   0.90840   0.23648   0.01267  Uiso   1.00
C4     C     0.75030   0.91160   0.23727   0.01267  Uiso   1.00
C5     C     0.22190   0.68920   0.08070   0.01267  Uiso   1.00
C6     C     0.30230   0.60970   0.08040   0.01267  Uiso   1.00
C7     C     0.96080   0.15061   0.08053   0.01267  Uiso   1.00
C8     C     0.58190   0.58880   0.08060   0.01267  Uiso   1.00
C9     C     0.37160   0.09160   0.23648   0.01267  Uiso   1.00
C10    C     0.24970   0.08840   0.23727   0.01267  Uiso   1.00
C11    C     0.77810   0.31080   0.08070   0.01267  Uiso   1.00
C12    C     0.69770   0.39030   0.08040   0.01267  Uiso   1.00
C13    C     0.96080   0.84939   0.41947   0.01267  Uiso   1.00
C14    C     0.58190   0.41120   0.41940   0.01267  Uiso   1.00
C15    C     0.37160   0.90840   0.26352   0.01267  Uiso   1.00
C16    C     0.24970   0.91160   0.26273   0.01267  Uiso   1.00
C17    C     0.77810   0.68920   0.41930   0.01267  Uiso   1.00
C18    C     0.69770   0.60970   0.41960   0.01267  Uiso   1.00
C19    C     0.03920   0.15061   0.41947   0.01267  Uiso   1.00
C20    C     0.41810   0.58880   0.41940   0.01267  Uiso   1.00
C21    C     0.62840   0.09160   0.26352   0.01267  Uiso   1.00
C22    C     0.75030   0.08840   0.26273   0.01267  Uiso   1.00
C23    C     0.22190   0.31080   0.41930   0.01267  Uiso   1.00
C24    C     0.30230   0.39030   0.41960   0.01267  Uiso   1.00
C25    C     0.96080   0.15061   0.91947   0.01267  Uiso   1.00
C26    C     0.58190   0.58880   0.91940   0.01267  Uiso   1.00
C27    C     0.37160   0.09160   0.76352   0.01267  Uiso   1.00
C28    C     0.24970   0.08840   0.76273   0.01267  Uiso   1.00
C29    C     0.77810   0.31080   0.91930   0.01267  Uiso   1.00
C30    C     0.69770   0.39030   0.91960   0.01267  Uiso   1.00
C31    C     0.03920   0.84939   0.91947   0.01267  Uiso   1.00
C32    C     0.41810   0.41120   0.91940   0.01267  Uiso   1.00
C33    C     0.62840   0.90840   0.76352   0.01267  Uiso   1.00
C34    C     0.75030   0.91160   0.76273   0.01267  Uiso   1.00
C35    C     0.22190   0.68920   0.91930   0.01267  Uiso   1.00
C36    C     0.30230   0.60970   0.91960   0.01267  Uiso   1.00
C37    C     0.03920   0.15061   0.58053   0.01267  Uiso   1.00
C38    C     0.41810   0.58880   0.58060   0.01267  Uiso   1.00
C39    C     0.62840   0.09160   0.73648   0.01267  Uiso   1.00
C40    C     0.75030   0.08840   0.73727   0.01267  Uiso   1.00
C41    C     0.22190   0.31080   0.58070   0.01267  Uiso   1.00
C42    C     0.30230   0.39030   0.58040   0.01267  Uiso   1.00
C43    C     0.96080   0.84939   0.58053   0.01267  Uiso   1.00
C44    C     0.58190   0.41120   0.58060   0.01267  Uiso   1.00
C45    C     0.37160   0.90840   0.73648   0.01267  Uiso   1.00
C46    C     0.24970   0.91160   0.73727   0.01267  Uiso   1.00
C47    C     0.77810   0.68920   0.58070   0.01267  Uiso   1.00
C48    C     0.69770   0.60970   0.58040   0.01267  Uiso   1.00
C49    C     0.56500   0.00000   0.25000   0.01267  Uiso   1.00
C50    C     0.43500   0.00000   0.25000   0.01267  Uiso   1.00
C51    C     0.43500   0.00000   0.75000   0.01267  Uiso   1.00
C52    C     0.56500   0.00000   0.75000   0.01267  Uiso   1.00
C53    C     0.17640   0.72990   0.00000   0.01267  Uiso   1.00
C54    C     0.43300   0.47940   0.00000   0.01267  Uiso   1.00
C55    C     0.34310   0.56780   0.00000   0.01267  Uiso   1.00
C56    C     0.08520   0.80970   0.00000   0.01267  Uiso   1.00
C57    C     0.82360   0.27010   0.00000   0.01267  Uiso   1.00
C58    C     0.56700   0.52060   0.00000   0.01267  Uiso   1.00
C59    C     0.65690   0.43220   0.00000   0.01267  Uiso   1.00
C60    C     0.91480   0.19030   0.00000   0.01267  Uiso   1.00
C61    C     0.82360   0.72990   0.50000   0.01267  Uiso   1.00
C62    C     0.56700   0.47940   0.50000   0.01267  Uiso   1.00
C63    C     0.65690   0.56780   0.50000   0.01267  Uiso   1.00
C64    C     0.91480   0.80970   0.50000   0.01267  Uiso   1.00
C65    C     0.17640   0.27010   0.50000   0.01267  Uiso   1.00
C66    C     0.43300   0.52060   0.50000   0.01267  Uiso   1.00
C67    C     0.34310   0.43220   0.50000   0.01267  Uiso   1.00
C68    C     0.08520   0.19030   0.50000   0.01267  Uiso   1.00
N1     N     0.40400   0.36170   0.14280   0.01267  Uiso   1.00
N2     N     0.00190   0.88100   0.14706   0.01267  Uiso   1.00
N3     N     0.59600   0.63830   0.14280   0.01267  Uiso   1.00
N4     N     0.99810   0.11900   0.14706   0.01267  Uiso   1.00
N5     N     0.59600   0.36170   0.35720   0.01267  Uiso   1.00
N6     N     0.99810   0.88100   0.35294   0.01267  Uiso   1.00
N7     N     0.40400   0.63830   0.35720   0.01267  Uiso   1.00
N8     N     0.00190   0.11900   0.35294   0.01267  Uiso   1.00
N9     N     0.59600   0.63830   0.85720   0.01267  Uiso   1.00
N10    N     0.99810   0.11900   0.85294   0.01267  Uiso   1.00
N11    N     0.40400   0.36170   0.85720   0.01267  Uiso   1.00
N12    N     0.00190   0.88100   0.85294   0.01267  Uiso   1.00
N13    N     0.40400   0.63830   0.64280   0.01267  Uiso   1.00
N14    N     0.00190   0.11900   0.64706   0.01267  Uiso   1.00
N15    N     0.59600   0.36170   0.64280   0.01267  Uiso   1.00
N16    N     0.99810   0.88100   0.64706   0.01267  Uiso   1.00
N17    N     0.81140   0.00000   0.25000   0.01267  Uiso   1.00
N18    N     0.18860   0.00000   0.25000   0.01267  Uiso   1.00
N19    N     0.18860   0.00000   0.75000   0.01267  Uiso   1.00
N20    N     0.81140   0.00000   0.75000   0.01267  Uiso   1.00
