data_MUVJIX_clean
_audit_creation_date              2014-07-02
_audit_creation_method            'Materials Studio'
_symmetry_space_group_name_H-M    'P1'
_symmetry_Int_Tables_number       1
_symmetry_cell_setting            triclinic
loop_
_symmetry_equiv_pos_as_xyz
  x,y,z
_cell_length_a                    9.0620
_cell_length_b                    9.6180
_cell_length_c                    25.6000
_cell_angle_alpha                 90.0000
_cell_angle_beta                  90.0000
_cell_angle_gamma                 90.0000
loop_
_atom_site_label
_atom_site_type_symbol
_atom_site_fract_x
_atom_site_fract_y
_atom_site_fract_z
_atom_site_U_iso_or_equiv
_atom_site_adp_type
_atom_site_occupancy
Mn1    Mn    0.22690   0.75000   0.25000   0.01267  Uiso   1.00
Mn2    Mn    0.27310   0.75000   0.75000   0.01267  Uiso   1.00
Mn3    Mn    0.77310   0.25000   0.75000   0.01267  Uiso   1.00
Mn4    Mn    0.72690   0.25000   0.25000   0.01267  Uiso   1.00
Mn5    Mn    0.75000   0.44400   0.50000   0.01267  Uiso   1.00
Mn6    Mn    0.75000   0.05600   0.00000   0.01267  Uiso   1.00
Mn7    Mn    0.25000   0.55600   0.50000   0.01267  Uiso   1.00
Mn8    Mn    0.25000   0.94400   0.00000   0.01267  Uiso   1.00
H1     H     0.71170   0.71090   0.28540   0.01267  Uiso   1.00
H2     H     0.73240   0.63440   0.37210   0.01267  Uiso   1.00
H3     H     0.16860   0.65040   0.36020   0.01267  Uiso   1.00
H4     H     0.78830   0.71090   0.71460   0.01267  Uiso   1.00
H5     H     0.76760   0.63440   0.62790   0.01267  Uiso   1.00
H6     H     0.33140   0.65040   0.63980   0.01267  Uiso   1.00
H7     H     0.78830   0.78910   0.78540   0.01267  Uiso   1.00
H8     H     0.76760   0.86560   0.87210   0.01267  Uiso   1.00
H9     H     0.33140   0.84960   0.86020   0.01267  Uiso   1.00
H10    H     0.71170   0.78910   0.21460   0.01267  Uiso   1.00
H11    H     0.73240   0.86560   0.12790   0.01267  Uiso   1.00
H12    H     0.16860   0.84960   0.13980   0.01267  Uiso   1.00
H13    H     0.28830   0.28910   0.71460   0.01267  Uiso   1.00
H14    H     0.26760   0.36560   0.62790   0.01267  Uiso   1.00
H15    H     0.83140   0.34960   0.63980   0.01267  Uiso   1.00
H16    H     0.21170   0.28910   0.28540   0.01267  Uiso   1.00
H17    H     0.23240   0.36560   0.37210   0.01267  Uiso   1.00
H18    H     0.66860   0.34960   0.36020   0.01267  Uiso   1.00
H19    H     0.21170   0.21090   0.21460   0.01267  Uiso   1.00
H20    H     0.23240   0.13440   0.12790   0.01267  Uiso   1.00
H21    H     0.66860   0.15040   0.13980   0.01267  Uiso   1.00
H22    H     0.28830   0.21090   0.78540   0.01267  Uiso   1.00
H23    H     0.26760   0.13440   0.87210   0.01267  Uiso   1.00
H24    H     0.83140   0.15040   0.86020   0.01267  Uiso   1.00
C1     C     0.34800   0.79100   0.21250   0.01267  Uiso   1.00
C2     C     0.93600   0.72500   0.27620   0.01267  Uiso   1.00
C3     C     0.80500   0.69900   0.30180   0.01267  Uiso   1.00
C4     C     0.81900   0.65400   0.35240   0.01267  Uiso   1.00
C5     C     0.95200   0.63800   0.37460   0.01267  Uiso   1.00
C6     C     0.07300   0.66200   0.34540   0.01267  Uiso   1.00
C7     C     0.97000   0.59000   0.42990   0.01267  Uiso   1.00
C8     C     0.15200   0.79100   0.78750   0.01267  Uiso   1.00
C9     C     0.56400   0.72500   0.72380   0.01267  Uiso   1.00
C10    C     0.69500   0.69900   0.69820   0.01267  Uiso   1.00
C11    C     0.68100   0.65400   0.64760   0.01267  Uiso   1.00
C12    C     0.54800   0.63800   0.62540   0.01267  Uiso   1.00
C13    C     0.42700   0.66200   0.65460   0.01267  Uiso   1.00
C14    C     0.53000   0.59000   0.57010   0.01267  Uiso   1.00
C15    C     0.15200   0.70900   0.71250   0.01267  Uiso   1.00
C16    C     0.56400   0.77500   0.77620   0.01267  Uiso   1.00
C17    C     0.69500   0.80100   0.80180   0.01267  Uiso   1.00
C18    C     0.68100   0.84600   0.85240   0.01267  Uiso   1.00
C19    C     0.54800   0.86200   0.87460   0.01267  Uiso   1.00
C20    C     0.42700   0.83800   0.84540   0.01267  Uiso   1.00
C21    C     0.53000   0.91000   0.92990   0.01267  Uiso   1.00
C22    C     0.34800   0.70900   0.28750   0.01267  Uiso   1.00
C23    C     0.93600   0.77500   0.22380   0.01267  Uiso   1.00
C24    C     0.80500   0.80100   0.19820   0.01267  Uiso   1.00
C25    C     0.81900   0.84600   0.14760   0.01267  Uiso   1.00
C26    C     0.95200   0.86200   0.12540   0.01267  Uiso   1.00
C27    C     0.07300   0.83800   0.15460   0.01267  Uiso   1.00
C28    C     0.97000   0.91000   0.07010   0.01267  Uiso   1.00
C29    C     0.65200   0.20900   0.78750   0.01267  Uiso   1.00
C30    C     0.06400   0.27500   0.72380   0.01267  Uiso   1.00
C31    C     0.19500   0.30100   0.69820   0.01267  Uiso   1.00
C32    C     0.18100   0.34600   0.64760   0.01267  Uiso   1.00
C33    C     0.04800   0.36200   0.62540   0.01267  Uiso   1.00
C34    C     0.92700   0.33800   0.65460   0.01267  Uiso   1.00
C35    C     0.03000   0.41000   0.57010   0.01267  Uiso   1.00
C36    C     0.84800   0.20900   0.21250   0.01267  Uiso   1.00
C37    C     0.43600   0.27500   0.27620   0.01267  Uiso   1.00
C38    C     0.30500   0.30100   0.30180   0.01267  Uiso   1.00
C39    C     0.31900   0.34600   0.35240   0.01267  Uiso   1.00
C40    C     0.45200   0.36200   0.37460   0.01267  Uiso   1.00
C41    C     0.57300   0.33800   0.34540   0.01267  Uiso   1.00
C42    C     0.47000   0.41000   0.42990   0.01267  Uiso   1.00
C43    C     0.84800   0.29100   0.28750   0.01267  Uiso   1.00
C44    C     0.43600   0.22500   0.22380   0.01267  Uiso   1.00
C45    C     0.30500   0.19900   0.19820   0.01267  Uiso   1.00
C46    C     0.31900   0.15400   0.14760   0.01267  Uiso   1.00
C47    C     0.45200   0.13800   0.12540   0.01267  Uiso   1.00
C48    C     0.57300   0.16200   0.15460   0.01267  Uiso   1.00
C49    C     0.47000   0.09000   0.07010   0.01267  Uiso   1.00
C50    C     0.65200   0.29100   0.71250   0.01267  Uiso   1.00
C51    C     0.06400   0.22500   0.77620   0.01267  Uiso   1.00
C52    C     0.19500   0.19900   0.80180   0.01267  Uiso   1.00
C53    C     0.18100   0.15400   0.85240   0.01267  Uiso   1.00
C54    C     0.04800   0.13800   0.87460   0.01267  Uiso   1.00
C55    C     0.92700   0.16200   0.84540   0.01267  Uiso   1.00
C56    C     0.03000   0.09000   0.92990   0.01267  Uiso   1.00
N1     N     0.06000   0.70400   0.29580   0.01267  Uiso   1.00
N2     N     0.44000   0.70400   0.70420   0.01267  Uiso   1.00
N3     N     0.44000   0.79600   0.79580   0.01267  Uiso   1.00
N4     N     0.06000   0.79600   0.20420   0.01267  Uiso   1.00
N5     N     0.94000   0.29600   0.70420   0.01267  Uiso   1.00
N6     N     0.56000   0.29600   0.29580   0.01267  Uiso   1.00
N7     N     0.56000   0.20400   0.20420   0.01267  Uiso   1.00
N8     N     0.94000   0.20400   0.79580   0.01267  Uiso   1.00
Cl1    Cl    0.20510   0.52400   0.21100   0.01267  Uiso   1.00
Cl2    Cl    0.29490   0.52400   0.78900   0.01267  Uiso   1.00
Cl3    Cl    0.29490   0.97600   0.71100   0.01267  Uiso   1.00
Cl4    Cl    0.20510   0.97600   0.28900   0.01267  Uiso   1.00
Cl5    Cl    0.79490   0.47600   0.78900   0.01267  Uiso   1.00
Cl6    Cl    0.70510   0.47600   0.21100   0.01267  Uiso   1.00
Cl7    Cl    0.70510   0.02400   0.28900   0.01267  Uiso   1.00
Cl8    Cl    0.79490   0.02400   0.71100   0.01267  Uiso   1.00
O1     O     0.47600   0.83200   0.17440   0.01267  Uiso   1.00
O2     O     0.85000   0.59200   0.45690   0.01267  Uiso   1.00
O3     O     0.09500   0.55800   0.44230   0.01267  Uiso   1.00
O4     O     0.02400   0.83200   0.82560   0.01267  Uiso   1.00
O5     O     0.65000   0.59200   0.54310   0.01267  Uiso   1.00
O6     O     0.40500   0.55800   0.55770   0.01267  Uiso   1.00
O7     O     0.02400   0.66800   0.67440   0.01267  Uiso   1.00
O8     O     0.65000   0.90800   0.95690   0.01267  Uiso   1.00
O9     O     0.40500   0.94200   0.94230   0.01267  Uiso   1.00
O10    O     0.47600   0.66800   0.32560   0.01267  Uiso   1.00
O11    O     0.85000   0.90800   0.04310   0.01267  Uiso   1.00
O12    O     0.09500   0.94200   0.05770   0.01267  Uiso   1.00
O13    O     0.52400   0.16800   0.82560   0.01267  Uiso   1.00
O14    O     0.15000   0.40800   0.54310   0.01267  Uiso   1.00
O15    O     0.90500   0.44200   0.55770   0.01267  Uiso   1.00
O16    O     0.97600   0.16800   0.17440   0.01267  Uiso   1.00
O17    O     0.35000   0.40800   0.45690   0.01267  Uiso   1.00
O18    O     0.59500   0.44200   0.44230   0.01267  Uiso   1.00
O19    O     0.97600   0.33200   0.32560   0.01267  Uiso   1.00
O20    O     0.35000   0.09200   0.04310   0.01267  Uiso   1.00
O21    O     0.59500   0.05800   0.05770   0.01267  Uiso   1.00
O22    O     0.52400   0.33200   0.67440   0.01267  Uiso   1.00
O23    O     0.15000   0.09200   0.95690   0.01267  Uiso   1.00
O24    O     0.90500   0.05800   0.94230   0.01267  Uiso   1.00
