data_image0
_cell_length_a       19.046
_cell_length_b       19.046
_cell_length_c       8.3306
_cell_angle_alpha    90
_cell_angle_beta     90
_cell_angle_gamma    120

_symmetry_space_group_name_H-M    "P 1"
_symmetry_int_tables_number       1

loop_
  _symmetry_equiv_pos_as_xyz
  'x, y, z'

loop_
  _atom_site_label
  _atom_site_occupancy
  _atom_site_fract_x
  _atom_site_fract_y
  _atom_site_fract_z
  _atom_site_thermal_displace_type
  _atom_site_B_iso_or_equiv
  _atom_site_type_symbol
  Ga1      1.0000 0.73698  0.26313  0.12590  Biso   1.000  Ga
  Ga2      1.0000 0.81344  0.00000  0.00000  Biso   1.000  Ga
  P1       1.0000 0.82167  0.91080  0.31850  Biso   1.000  P
  P2       1.0000 0.83171  0.16840  0.10080  Biso   1.000  P
  H1       1.0000 0.84000  0.18400  0.25700  Biso   1.000  H
  P3       1.0000 0.58257  0.16498  0.33180  Biso   1.000  P
  O1       1.0000 0.77620  0.88730  0.49400  Biso   1.000  O
  H2       1.0000 0.24680  0.16240  0.47870  Biso   1.000  H
  H3       1.0000 0.76470  0.92730  0.57150  Biso   1.000  H
  O2       1.0000 0.91150  0.95500  0.34800  Biso   1.000  O
  O3       1.0000 0.79680  0.96440  0.22870  Biso   1.000  O
  O4       1.0000 0.79670  0.83300  0.22790  Biso   1.000  O
  O5       1.0000 0.70820  0.28940  0.93920  Biso   1.000  O
  O6       1.0000 0.78630  0.08200  0.04810  Biso   1.000  O
  O7       1.0000 0.91870  0.21410  0.05360  Biso   1.000  O
  O8       1.0000 0.54030  0.08020  0.39580  Biso   1.000  O
  O9       1.0000 0.65310  0.17850  0.22800  Biso   1.000  O
  O10      1.0000 0.61100  0.22430  0.47370  Biso   1.000  O
  O11      1.0000 0.52620  0.17880  0.22850  Biso   1.000  O
  O12      1.0000 0.78830  0.21190  0.04050  Biso   1.000  O
  O13      1.0000 0.85290  0.92670  0.94760  Biso   1.000  O
  H4       1.0000 0.90420  0.95000  0.93800  Biso   1.000  H
  Ga3      1.0000 0.73687  0.47385  0.12590  Biso   1.000  Ga
  Ga4      1.0000 0.00000  0.81344  0.00000  Biso   1.000  Ga
  P4       1.0000 0.08920  0.91087  0.31850  Biso   1.000  P
  P5       1.0000 0.83160  0.66331  0.10080  Biso   1.000  P
  H5       1.0000 0.81600  0.65600  0.25700  Biso   1.000  H
  P6       1.0000 0.83502  0.41759  0.33180  Biso   1.000  P
  O14      1.0000 0.11270  0.88890  0.49400  Biso   1.000  O
  H6       1.0000 0.83760  0.08440  0.47870  Biso   1.000  H
  H7       1.0000 0.07270  0.83740  0.57150  Biso   1.000  H
  O15      1.0000 0.04500  0.95650  0.34800  Biso   1.000  O
  O16      1.0000 0.03560  0.83240  0.22870  Biso   1.000  O
  O17      1.0000 0.16700  0.96370  0.22790  Biso   1.000  O
  O18      1.0000 0.71060  0.41880  0.93920  Biso   1.000  O
  O19      1.0000 0.91800  0.70430  0.04810  Biso   1.000  O
  O20      1.0000 0.78590  0.70460  0.05360  Biso   1.000  O
  O21      1.0000 0.91980  0.46010  0.39580  Biso   1.000  O
  O22      1.0000 0.82150  0.47460  0.22800  Biso   1.000  O
  O23      1.0000 0.77570  0.38670  0.47370  Biso   1.000  O
  O24      1.0000 0.82120  0.34740  0.22850  Biso   1.000  O
  O25      1.0000 0.78810  0.57640  0.04050  Biso   1.000  O
  O26      1.0000 0.07330  0.92620  0.94760  Biso   1.000  O
  H8       1.0000 0.05000  0.95420  0.93800  Biso   1.000  H
  Ga5      1.0000 0.52615  0.26302  0.12590  Biso   1.000  Ga
  Ga6      1.0000 0.18656  0.18656  0.00000  Biso   1.000  Ga
  P7       1.0000 0.08913  0.17833  0.31850  Biso   1.000  P
  P8       1.0000 0.33669  0.16829  0.10080  Biso   1.000  P
  H9       1.0000 0.34400  0.16000  0.25700  Biso   1.000  H
  P9       1.0000 0.58241  0.41743  0.33180  Biso   1.000  P
  O27      1.0000 0.11110  0.22380  0.49400  Biso   1.000  O
  H10      1.0000 0.91560  0.75320  0.47870  Biso   1.000  H
  H11      1.0000 0.16260  0.23530  0.57150  Biso   1.000  H
  O28      1.0000 0.04350  0.08850  0.34800  Biso   1.000  O
  O29      1.0000 0.16760  0.20320  0.22870  Biso   1.000  O
  O30      1.0000 0.03630  0.20330  0.22790  Biso   1.000  O
  O31      1.0000 0.58120  0.29180  0.93920  Biso   1.000  O
  O32      1.0000 0.29570  0.21370  0.04810  Biso   1.000  O
  O33      1.0000 0.29540  0.08130  0.05360  Biso   1.000  O
  O34      1.0000 0.53990  0.45970  0.39580  Biso   1.000  O
  O35      1.0000 0.52540  0.34690  0.22800  Biso   1.000  O
  O36      1.0000 0.61330  0.38900  0.47370  Biso   1.000  O
  O37      1.0000 0.65260  0.47380  0.22850  Biso   1.000  O
  O38      1.0000 0.42360  0.21170  0.04050  Biso   1.000  O
  O39      1.0000 0.07380  0.14710  0.94760  Biso   1.000  O
  H12      1.0000 0.04580  0.09580  0.93800  Biso   1.000  H
  Ga7      1.0000 0.26302  0.73687  0.87410  Biso   1.000  Ga
  Ga8      1.0000 0.18656  0.00000  0.00000  Biso   1.000  Ga
  P10      1.0000 0.17833  0.08920  0.68150  Biso   1.000  P
  P11      1.0000 0.16829  0.83160  0.89920  Biso   1.000  P
  H13      1.0000 0.16000  0.81600  0.74300  Biso   1.000  H
  P12      1.0000 0.41743  0.83502  0.66820  Biso   1.000  P
  O40      1.0000 0.22380  0.11270  0.50600  Biso   1.000  O
  H14      1.0000 0.75320  0.83760  0.52130  Biso   1.000  H
  H15      1.0000 0.23530  0.07270  0.42850  Biso   1.000  H
  O41      1.0000 0.08850  0.04500  0.65200  Biso   1.000  O
  O42      1.0000 0.20320  0.03560  0.77130  Biso   1.000  O
  O43      1.0000 0.20330  0.16700  0.77210  Biso   1.000  O
  O44      1.0000 0.29180  0.71060  0.06080  Biso   1.000  O
  O45      1.0000 0.21370  0.91800  0.95190  Biso   1.000  O
  O46      1.0000 0.08130  0.78590  0.94640  Biso   1.000  O
  O47      1.0000 0.45970  0.91980  0.60420  Biso   1.000  O
  O48      1.0000 0.34690  0.82150  0.77200  Biso   1.000  O
  O49      1.0000 0.38900  0.77570  0.52630  Biso   1.000  O
  O50      1.0000 0.47380  0.82120  0.77150  Biso   1.000  O
  O51      1.0000 0.21170  0.78810  0.95950  Biso   1.000  O
  O52      1.0000 0.14710  0.07330  0.05240  Biso   1.000  O
  H16      1.0000 0.09580  0.05000  0.06200  Biso   1.000  H
  Ga9      1.0000 0.26313  0.52615  0.87410  Biso   1.000  Ga
  Ga10     1.0000 0.00000  0.18656  0.00000  Biso   1.000  Ga
  P13      1.0000 0.91080  0.08913  0.68150  Biso   1.000  P
  P14      1.0000 0.16840  0.33669  0.89920  Biso   1.000  P
  H17      1.0000 0.18400  0.34400  0.74300  Biso   1.000  H
  P15      1.0000 0.16498  0.58241  0.66820  Biso   1.000  P
  O53      1.0000 0.88730  0.11110  0.50600  Biso   1.000  O
  H18      1.0000 0.16240  0.91560  0.52130  Biso   1.000  H
  H19      1.0000 0.92730  0.16260  0.42850  Biso   1.000  H
  O54      1.0000 0.95500  0.04350  0.65200  Biso   1.000  O
  O55      1.0000 0.96440  0.16760  0.77130  Biso   1.000  O
  O56      1.0000 0.83300  0.03630  0.77210  Biso   1.000  O
  O57      1.0000 0.28940  0.58120  0.06080  Biso   1.000  O
  O58      1.0000 0.08200  0.29570  0.95190  Biso   1.000  O
  O59      1.0000 0.21410  0.29540  0.94640  Biso   1.000  O
  O60      1.0000 0.08020  0.53990  0.60420  Biso   1.000  O
  O61      1.0000 0.17850  0.52540  0.77200  Biso   1.000  O
  O62      1.0000 0.22430  0.61330  0.52630  Biso   1.000  O
  O63      1.0000 0.17880  0.65260  0.77150  Biso   1.000  O
  O64      1.0000 0.21190  0.42360  0.95950  Biso   1.000  O
  O65      1.0000 0.92670  0.07380  0.05240  Biso   1.000  O
  H20      1.0000 0.95000  0.04580  0.06200  Biso   1.000  H
  Ga11     1.0000 0.47385  0.73698  0.87410  Biso   1.000  Ga
  Ga12     1.0000 0.81344  0.81344  0.00000  Biso   1.000  Ga
  P16      1.0000 0.91087  0.82167  0.68150  Biso   1.000  P
  P17      1.0000 0.66331  0.83171  0.89920  Biso   1.000  P
  H21      1.0000 0.65600  0.84000  0.74300  Biso   1.000  H
  P18      1.0000 0.41759  0.58257  0.66820  Biso   1.000  P
  O66      1.0000 0.88890  0.77620  0.50600  Biso   1.000  O
  H22      1.0000 0.08440  0.24680  0.52130  Biso   1.000  H
  H23      1.0000 0.83740  0.76470  0.42850  Biso   1.000  H
  O67      1.0000 0.95650  0.91150  0.65200  Biso   1.000  O
  O68      1.0000 0.83240  0.79680  0.77130  Biso   1.000  O
  O69      1.0000 0.96370  0.79670  0.77210  Biso   1.000  O
  O70      1.0000 0.41880  0.70820  0.06080  Biso   1.000  O
  O71      1.0000 0.70430  0.78630  0.95190  Biso   1.000  O
  O72      1.0000 0.70460  0.91870  0.94640  Biso   1.000  O
  O73      1.0000 0.46010  0.54030  0.60420  Biso   1.000  O
  O74      1.0000 0.47460  0.65310  0.77200  Biso   1.000  O
  O75      1.0000 0.38670  0.61100  0.52630  Biso   1.000  O
  O76      1.0000 0.34740  0.52620  0.77150  Biso   1.000  O
  O77      1.0000 0.57640  0.78830  0.95950  Biso   1.000  O
  O78      1.0000 0.92620  0.85290  0.05240  Biso   1.000  O
  H24      1.0000 0.95420  0.90420  0.06200  Biso   1.000  H
  Ga13     1.0000 0.66667  0.33333  0.48378  Biso   1.000  Ga
  P19      1.0000 0.66667  0.33333  0.88280  Biso   1.000  P
  O79      1.0000 0.66667  0.33333  0.70430  Biso   1.000  O
  Ga14     1.0000 0.33333  0.66667  0.51622  Biso   1.000  Ga
  P20      1.0000 0.33333  0.66667  0.11720  Biso   1.000  P
  O80      1.0000 0.33333  0.66667  0.29570  Biso   1.000  O
  Ga15     1.0000 0.00000  0.00000  0.50000  Biso   1.000  Ga
