data_image0
_cell_length_a       16.233
_cell_length_b       11.871
_cell_length_c       17.988
_cell_angle_alpha    90
_cell_angle_beta     103.64
_cell_angle_gamma    90

_symmetry_space_group_name_H-M    "P 1"
_symmetry_int_tables_number       1

loop_
  _symmetry_equiv_pos_as_xyz
  'x, y, z'

loop_
  _atom_site_label
  _atom_site_occupancy
  _atom_site_fract_x
  _atom_site_fract_y
  _atom_site_fract_z
  _atom_site_thermal_displace_type
  _atom_site_B_iso_or_equiv
  _atom_site_type_symbol
  Mo1      1.0000 0.71661  0.64115  0.06756  Biso   1.000  Mo
  Mo2      1.0000 0.61756  0.76711  0.96696  Biso   1.000  Mo
  Mo3      1.0000 0.61104  0.25555  0.92182  Biso   1.000  Mo
  Mo4      1.0000 0.71570  0.34802  0.03696  Biso   1.000  Mo
  Mo5      1.0000 0.47969  0.64604  0.80501  Biso   1.000  Mo
  Mo6      1.0000 0.47646  0.42944  0.78680  Biso   1.000  Mo
  Mn1      1.0000 0.87581  0.50267  0.86551  Biso   1.000  Mn
  P1       1.0000 0.62327  0.83688  0.79026  Biso   1.000  P
  P2       1.0000 0.88887  0.50735  0.05832  Biso   1.000  P
  P3       1.0000 0.56122  0.20135  0.73720  Biso   1.000  P
  P4       1.0000 0.67246  0.52452  0.88604  Biso   1.000  P
  O1       1.0000 0.69970  0.76070  0.78070  Biso   1.000  O
  O2       1.0000 0.73960  0.74540  0.99200  Biso   1.000  O
  O3       1.0000 0.59240  0.63460  0.02430  Biso   1.000  O
  O4       1.0000 0.59180  0.36140  0.00120  Biso   1.000  O
  O5       1.0000 0.46460  0.52430  0.87510  Biso   1.000  O
  O6       1.0000 0.48620  0.29090  0.86250  Biso   1.000  O
  O7       1.0000 0.48540  0.12220  0.73470  Biso   1.000  O
  O8       1.0000 0.51780  0.55040  0.73230  Biso   1.000  O
  O9       1.0000 0.90190  0.53930  0.98210  Biso   1.000  O
  O10      1.0000 0.52860  0.32420  0.72210  Biso   1.000  O
  O11      1.0000 0.84300  0.39370  0.06070  Biso   1.000  O
  O12      1.0000 0.70570  0.47980  0.11460  Biso   1.000  O
  O13      1.0000 0.84150  0.59960  0.09150  Biso   1.000  O
  O14      1.0000 0.62210  0.19610  0.81840  Biso   1.000  O
  O15      1.0000 0.53930  0.77510  0.76030  Biso   1.000  O
  O16      1.0000 0.60860  0.16910  0.67740  Biso   1.000  O
  O17      1.0000 0.63030  0.94330  0.74820  Biso   1.000  O
  O18      1.0000 0.63450  0.86250  0.87610  Biso   1.000  O
  O19      1.0000 0.97700  0.49710  0.11760  Biso   1.000  O
  O20      1.0000 0.73960  0.54010  0.84180  Biso   1.000  O
  O21      1.0000 0.49190  0.75540  0.90020  Biso   1.000  O
  O22      1.0000 0.71180  0.51010  0.97320  Biso   1.000  O
  O23      1.0000 0.73420  0.27380  0.94650  Biso   1.000  O
  O24      1.0000 0.61540  0.63140  0.87760  Biso   1.000  O
  O25      1.0000 0.61440  0.42340  0.85820  Biso   1.000  O
  Mo7      1.0000 0.78339  0.14115  0.43244  Biso   1.000  Mo
  Mo8      1.0000 0.88244  0.26711  0.53304  Biso   1.000  Mo
  Mo9      1.0000 0.88896  0.75555  0.57818  Biso   1.000  Mo
  Mo10     1.0000 0.78430  0.84802  0.46304  Biso   1.000  Mo
  Mo11     1.0000 0.02031  0.14604  0.69499  Biso   1.000  Mo
  Mo12     1.0000 0.02354  0.92944  0.71320  Biso   1.000  Mo
  Mn2      1.0000 0.62419  0.00267  0.63449  Biso   1.000  Mn
  P5       1.0000 0.87673  0.33688  0.70974  Biso   1.000  P
  P6       1.0000 0.61113  0.00735  0.44168  Biso   1.000  P
  P7       1.0000 0.93878  0.70135  0.76280  Biso   1.000  P
  P8       1.0000 0.82754  0.02452  0.61396  Biso   1.000  P
  O26      1.0000 0.80030  0.26070  0.71930  Biso   1.000  O
  O27      1.0000 0.76040  0.24540  0.50800  Biso   1.000  O
  O28      1.0000 0.90760  0.13460  0.47570  Biso   1.000  O
  O29      1.0000 0.90820  0.86140  0.49880  Biso   1.000  O
  O30      1.0000 0.03540  0.02430  0.62490  Biso   1.000  O
  O31      1.0000 0.01380  0.79090  0.63750  Biso   1.000  O
  O32      1.0000 0.01460  0.62220  0.76530  Biso   1.000  O
  O33      1.0000 0.98220  0.05040  0.76770  Biso   1.000  O
  O34      1.0000 0.59810  0.03930  0.51790  Biso   1.000  O
  O35      1.0000 0.97140  0.82420  0.77790  Biso   1.000  O
  O36      1.0000 0.65700  0.89370  0.43930  Biso   1.000  O
  O37      1.0000 0.79430  0.97980  0.38540  Biso   1.000  O
  O38      1.0000 0.65850  0.09960  0.40850  Biso   1.000  O
  O39      1.0000 0.87790  0.69610  0.68160  Biso   1.000  O
  O40      1.0000 0.96070  0.27510  0.73970  Biso   1.000  O
  O41      1.0000 0.89140  0.66910  0.82260  Biso   1.000  O
  O42      1.0000 0.86970  0.44330  0.75180  Biso   1.000  O
  O43      1.0000 0.86550  0.36250  0.62390  Biso   1.000  O
  O44      1.0000 0.52300  0.99710  0.38240  Biso   1.000  O
  O45      1.0000 0.76040  0.04010  0.65820  Biso   1.000  O
  O46      1.0000 0.00810  0.25540  0.59980  Biso   1.000  O
  O47      1.0000 0.78820  0.01010  0.52680  Biso   1.000  O
  O48      1.0000 0.76580  0.77380  0.55350  Biso   1.000  O
  O49      1.0000 0.88460  0.13140  0.62240  Biso   1.000  O
  O50      1.0000 0.88560  0.92340  0.64180  Biso   1.000  O
  Mo13     1.0000 0.28339  0.35885  0.93244  Biso   1.000  Mo
  Mo14     1.0000 0.38244  0.23289  0.03304  Biso   1.000  Mo
  Mo15     1.0000 0.38896  0.74445  0.07818  Biso   1.000  Mo
  Mo16     1.0000 0.28430  0.65198  0.96304  Biso   1.000  Mo
  Mo17     1.0000 0.52031  0.35396  0.19499  Biso   1.000  Mo
  Mo18     1.0000 0.52354  0.57056  0.21320  Biso   1.000  Mo
  Mn3      1.0000 0.12419  0.49733  0.13449  Biso   1.000  Mn
  P9       1.0000 0.37673  0.16312  0.20974  Biso   1.000  P
  P10      1.0000 0.11113  0.49265  0.94168  Biso   1.000  P
  P11      1.0000 0.43878  0.79865  0.26280  Biso   1.000  P
  P12      1.0000 0.32754  0.47548  0.11396  Biso   1.000  P
  O51      1.0000 0.30030  0.23930  0.21930  Biso   1.000  O
  O52      1.0000 0.26040  0.25460  0.00800  Biso   1.000  O
  O53      1.0000 0.40760  0.36540  0.97570  Biso   1.000  O
  O54      1.0000 0.40820  0.63860  0.99880  Biso   1.000  O
  O55      1.0000 0.53540  0.47570  0.12490  Biso   1.000  O
  O56      1.0000 0.51380  0.70910  0.13750  Biso   1.000  O
  O57      1.0000 0.51460  0.87780  0.26530  Biso   1.000  O
  O58      1.0000 0.48220  0.44960  0.26770  Biso   1.000  O
  O59      1.0000 0.09810  0.46070  0.01790  Biso   1.000  O
  O60      1.0000 0.47140  0.67580  0.27790  Biso   1.000  O
  O61      1.0000 0.15700  0.60630  0.93930  Biso   1.000  O
  O62      1.0000 0.29430  0.52020  0.88540  Biso   1.000  O
  O63      1.0000 0.15850  0.40040  0.90850  Biso   1.000  O
  O64      1.0000 0.37790  0.80390  0.18160  Biso   1.000  O
  O65      1.0000 0.46070  0.22490  0.23970  Biso   1.000  O
  O66      1.0000 0.39140  0.83090  0.32260  Biso   1.000  O
  O67      1.0000 0.36970  0.05670  0.25180  Biso   1.000  O
  O68      1.0000 0.36550  0.13750  0.12390  Biso   1.000  O
  O69      1.0000 0.02300  0.50290  0.88240  Biso   1.000  O
  O70      1.0000 0.26040  0.45990  0.15820  Biso   1.000  O
  O71      1.0000 0.50810  0.24460  0.09980  Biso   1.000  O
  O72      1.0000 0.28820  0.48990  0.02680  Biso   1.000  O
  O73      1.0000 0.26580  0.72620  0.05350  Biso   1.000  O
  O74      1.0000 0.38460  0.36860  0.12240  Biso   1.000  O
  O75      1.0000 0.38560  0.57660  0.14180  Biso   1.000  O
  Mo19     1.0000 0.21661  0.85885  0.56756  Biso   1.000  Mo
  Mo20     1.0000 0.11756  0.73289  0.46696  Biso   1.000  Mo
  Mo21     1.0000 0.11104  0.24445  0.42182  Biso   1.000  Mo
  Mo22     1.0000 0.21570  0.15198  0.53696  Biso   1.000  Mo
  Mo23     1.0000 0.97969  0.85396  0.30501  Biso   1.000  Mo
  Mo24     1.0000 0.97646  0.07056  0.28680  Biso   1.000  Mo
  Mn4      1.0000 0.37581  0.99733  0.36551  Biso   1.000  Mn
  P13      1.0000 0.12327  0.66312  0.29026  Biso   1.000  P
  P14      1.0000 0.38887  0.99265  0.55832  Biso   1.000  P
  P15      1.0000 0.06122  0.29865  0.23720  Biso   1.000  P
  P16      1.0000 0.17246  0.97548  0.38604  Biso   1.000  P
  O76      1.0000 0.19970  0.73930  0.28070  Biso   1.000  O
  O77      1.0000 0.23960  0.75460  0.49200  Biso   1.000  O
  O78      1.0000 0.09240  0.86540  0.52430  Biso   1.000  O
  O79      1.0000 0.09180  0.13860  0.50120  Biso   1.000  O
  O80      1.0000 0.96460  0.97570  0.37510  Biso   1.000  O
  O81      1.0000 0.98620  0.20910  0.36250  Biso   1.000  O
  O82      1.0000 0.98540  0.37780  0.23470  Biso   1.000  O
  O83      1.0000 0.01780  0.94960  0.23230  Biso   1.000  O
  O84      1.0000 0.40190  0.96070  0.48210  Biso   1.000  O
  O85      1.0000 0.02860  0.17580  0.22210  Biso   1.000  O
  O86      1.0000 0.34300  0.10630  0.56070  Biso   1.000  O
  O87      1.0000 0.20570  0.02020  0.61460  Biso   1.000  O
  O88      1.0000 0.34150  0.90040  0.59150  Biso   1.000  O
  O89      1.0000 0.12210  0.30390  0.31840  Biso   1.000  O
  O90      1.0000 0.03930  0.72490  0.26030  Biso   1.000  O
  O91      1.0000 0.10860  0.33090  0.17740  Biso   1.000  O
  O92      1.0000 0.13030  0.55670  0.24820  Biso   1.000  O
  O93      1.0000 0.13450  0.63750  0.37610  Biso   1.000  O
  O94      1.0000 0.47700  0.00290  0.61760  Biso   1.000  O
  O95      1.0000 0.23960  0.95990  0.34180  Biso   1.000  O
  O96      1.0000 0.99190  0.74460  0.40020  Biso   1.000  O
  O97      1.0000 0.21180  0.98990  0.47320  Biso   1.000  O
  O98      1.0000 0.23420  0.22620  0.44650  Biso   1.000  O
  O99      1.0000 0.11540  0.86860  0.37760  Biso   1.000  O
  O100     1.0000 0.11440  0.07660  0.35820  Biso   1.000  O
  Mn5      1.0000 0.50000  0.50000  0.00000  Biso   1.000  Mn
  Mn6      1.0000 0.00000  0.00000  0.50000  Biso   1.000  Mn
