data_image0
_cell_length_a       12.563
_cell_length_b       22.354
_cell_length_c       26.164
_cell_angle_alpha    90
_cell_angle_beta     99.581
_cell_angle_gamma    90

_symmetry_space_group_name_H-M    "P 1"
_symmetry_int_tables_number       1

loop_
  _symmetry_equiv_pos_as_xyz
  'x, y, z'

loop_
  _atom_site_label
  _atom_site_occupancy
  _atom_site_fract_x
  _atom_site_fract_y
  _atom_site_fract_z
  _atom_site_thermal_displace_type
  _atom_site_B_iso_or_equiv
  _atom_site_type_symbol
  Mo1      1.0000 0.71917  0.39247  0.07747  Biso   1.000  Mo
  Mo2      1.0000 0.57646  0.26692  0.10837  Biso   1.000  Mo
  Mo3      1.0000 0.91832  0.38010  0.06267  Biso   1.000  Mo
  Mo4      1.0000 0.04095  0.23844  0.07406  Biso   1.000  Mo
  Mo5      1.0000 0.66071  0.16138  0.11214  Biso   1.000  Mo
  Mo6      1.0000 0.92942  0.14622  0.09476  Biso   1.000  Mo
  P1       1.0000 0.83120  0.08800  0.19780  Biso   1.000  P
  P2       1.0000 0.14450  0.35413  0.14372  Biso   1.000  P
  P3       1.0000 0.85098  0.27384  0.14772  Biso   1.000  P
  P4       1.0000 0.59007  0.39108  0.17978  Biso   1.000  P
  Mn1      1.0000 0.34876  0.43652  0.20384  Biso   1.000  Mn
  O1       1.0000 0.89640  0.28070  0.20430  Biso   1.000  O
  O2       1.0000 0.85020  0.13230  0.24460  Biso   1.000  O
  O3       1.0000 0.90070  0.20700  0.03980  Biso   1.000  O
  O4       1.0000 0.57920  0.34050  0.05920  Biso   1.000  O
  O5       1.0000 0.76860  0.11860  0.07090  Biso   1.000  O
  O6       1.0000 0.11090  0.34470  0.19510  Biso   1.000  O
  O7       1.0000 0.15360  0.29400  0.11510  Biso   1.000  O
  O8       1.0000 0.91570  0.09540  0.16150  Biso   1.000  O
  O9       1.0000 0.00160  0.31490  0.02670  Biso   1.000  O
  O10      1.0000 0.72290  0.10370  0.16860  Biso   1.000  O
  O11      1.0000 0.83300  0.02530  0.21800  Biso   1.000  O
  O12      1.0000 0.78490  0.33870  0.03130  Biso   1.000  O
  O13      1.0000 0.62220  0.21350  0.16590  Biso   1.000  O
  O14      1.0000 0.04700  0.18970  0.13590  Biso   1.000  O
  O15      1.0000 0.06330  0.39500  0.10810  Biso   1.000  O
  O16      1.0000 0.64950  0.41960  0.13880  Biso   1.000  O
  O17      1.0000 0.54820  0.32870  0.16320  Biso   1.000  O
  O18      1.0000 0.74370  0.30890  0.13090  Biso   1.000  O
  O19      1.0000 0.82580  0.20680  0.13400  Biso   1.000  O
  O20      1.0000 0.93060  0.29700  0.11250  Biso   1.000  O
  O21      1.0000 0.25530  0.38440  0.14880  Biso   1.000  O
  O22      1.0000 0.66750  0.38720  0.23100  Biso   1.000  O
  O23      1.0000 0.64910  0.22390  0.05800  Biso   1.000  O
  O24      1.0000 0.49630  0.43280  0.18410  Biso   1.000  O
  O25      1.0000 0.85510  0.41780  0.11740  Biso   1.000  O
  Mo7      1.0000 0.21917  0.89247  0.07747  Biso   1.000  Mo
  Mo8      1.0000 0.07646  0.76692  0.10837  Biso   1.000  Mo
  Mo9      1.0000 0.41832  0.88010  0.06267  Biso   1.000  Mo
  Mo10     1.0000 0.54095  0.73844  0.07406  Biso   1.000  Mo
  Mo11     1.0000 0.16071  0.66138  0.11214  Biso   1.000  Mo
  Mo12     1.0000 0.42942  0.64622  0.09476  Biso   1.000  Mo
  P5       1.0000 0.33120  0.58800  0.19780  Biso   1.000  P
  P6       1.0000 0.64450  0.85413  0.14372  Biso   1.000  P
  P7       1.0000 0.35098  0.77384  0.14772  Biso   1.000  P
  P8       1.0000 0.09007  0.89108  0.17978  Biso   1.000  P
  Mn2      1.0000 0.84876  0.93652  0.20384  Biso   1.000  Mn
  O26      1.0000 0.39640  0.78070  0.20430  Biso   1.000  O
  O27      1.0000 0.35020  0.63230  0.24460  Biso   1.000  O
  O28      1.0000 0.40070  0.70700  0.03980  Biso   1.000  O
  O29      1.0000 0.07920  0.84050  0.05920  Biso   1.000  O
  O30      1.0000 0.26860  0.61860  0.07090  Biso   1.000  O
  O31      1.0000 0.61090  0.84470  0.19510  Biso   1.000  O
  O32      1.0000 0.65360  0.79400  0.11510  Biso   1.000  O
  O33      1.0000 0.41570  0.59540  0.16150  Biso   1.000  O
  O34      1.0000 0.50160  0.81490  0.02670  Biso   1.000  O
  O35      1.0000 0.22290  0.60370  0.16860  Biso   1.000  O
  O36      1.0000 0.33300  0.52530  0.21800  Biso   1.000  O
  O37      1.0000 0.28490  0.83870  0.03130  Biso   1.000  O
  O38      1.0000 0.12220  0.71350  0.16590  Biso   1.000  O
  O39      1.0000 0.54700  0.68970  0.13590  Biso   1.000  O
  O40      1.0000 0.56330  0.89500  0.10810  Biso   1.000  O
  O41      1.0000 0.14950  0.91960  0.13880  Biso   1.000  O
  O42      1.0000 0.04820  0.82870  0.16320  Biso   1.000  O
  O43      1.0000 0.24370  0.80890  0.13090  Biso   1.000  O
  O44      1.0000 0.32580  0.70680  0.13400  Biso   1.000  O
  O45      1.0000 0.43060  0.79700  0.11250  Biso   1.000  O
  O46      1.0000 0.75530  0.88440  0.14880  Biso   1.000  O
  O47      1.0000 0.16750  0.88720  0.23100  Biso   1.000  O
  O48      1.0000 0.14910  0.72390  0.05800  Biso   1.000  O
  O49      1.0000 0.99630  0.93280  0.18410  Biso   1.000  O
  O50      1.0000 0.35510  0.91780  0.11740  Biso   1.000  O
  Mo13     1.0000 0.28083  0.39247  0.42253  Biso   1.000  Mo
  Mo14     1.0000 0.42354  0.26692  0.39163  Biso   1.000  Mo
  Mo15     1.0000 0.08168  0.38010  0.43733  Biso   1.000  Mo
  Mo16     1.0000 0.95905  0.23844  0.42594  Biso   1.000  Mo
  Mo17     1.0000 0.33929  0.16138  0.38786  Biso   1.000  Mo
  Mo18     1.0000 0.07058  0.14622  0.40524  Biso   1.000  Mo
  P9       1.0000 0.16880  0.08800  0.30220  Biso   1.000  P
  P10      1.0000 0.85550  0.35413  0.35628  Biso   1.000  P
  P11      1.0000 0.14902  0.27384  0.35228  Biso   1.000  P
  P12      1.0000 0.40993  0.39108  0.32022  Biso   1.000  P
  Mn3      1.0000 0.65124  0.43652  0.29616  Biso   1.000  Mn
  O51      1.0000 0.10360  0.28070  0.29570  Biso   1.000  O
  O52      1.0000 0.14980  0.13230  0.25540  Biso   1.000  O
  O53      1.0000 0.09930  0.20700  0.46020  Biso   1.000  O
  O54      1.0000 0.42080  0.34050  0.44080  Biso   1.000  O
  O55      1.0000 0.23140  0.11860  0.42910  Biso   1.000  O
  O56      1.0000 0.88910  0.34470  0.30490  Biso   1.000  O
  O57      1.0000 0.84640  0.29400  0.38490  Biso   1.000  O
  O58      1.0000 0.08430  0.09540  0.33850  Biso   1.000  O
  O59      1.0000 0.99840  0.31490  0.47330  Biso   1.000  O
  O60      1.0000 0.27710  0.10370  0.33140  Biso   1.000  O
  O61      1.0000 0.16700  0.02530  0.28200  Biso   1.000  O
  O62      1.0000 0.21510  0.33870  0.46870  Biso   1.000  O
  O63      1.0000 0.37780  0.21350  0.33410  Biso   1.000  O
  O64      1.0000 0.95300  0.18970  0.36410  Biso   1.000  O
  O65      1.0000 0.93670  0.39500  0.39190  Biso   1.000  O
  O66      1.0000 0.35050  0.41960  0.36120  Biso   1.000  O
  O67      1.0000 0.45180  0.32870  0.33680  Biso   1.000  O
  O68      1.0000 0.25630  0.30890  0.36910  Biso   1.000  O
  O69      1.0000 0.17420  0.20680  0.36600  Biso   1.000  O
  O70      1.0000 0.06940  0.29700  0.38750  Biso   1.000  O
  O71      1.0000 0.74470  0.38440  0.35120  Biso   1.000  O
  O72      1.0000 0.33250  0.38720  0.26900  Biso   1.000  O
  O73      1.0000 0.35090  0.22390  0.44200  Biso   1.000  O
  O74      1.0000 0.50370  0.43280  0.31590  Biso   1.000  O
  O75      1.0000 0.14490  0.41780  0.38260  Biso   1.000  O
  Mo19     1.0000 0.78083  0.89247  0.42253  Biso   1.000  Mo
  Mo20     1.0000 0.92354  0.76692  0.39163  Biso   1.000  Mo
  Mo21     1.0000 0.58168  0.88010  0.43733  Biso   1.000  Mo
  Mo22     1.0000 0.45905  0.73844  0.42594  Biso   1.000  Mo
  Mo23     1.0000 0.83929  0.66138  0.38786  Biso   1.000  Mo
  Mo24     1.0000 0.57058  0.64622  0.40524  Biso   1.000  Mo
  P13      1.0000 0.66880  0.58800  0.30220  Biso   1.000  P
  P14      1.0000 0.35550  0.85413  0.35628  Biso   1.000  P
  P15      1.0000 0.64902  0.77384  0.35228  Biso   1.000  P
  P16      1.0000 0.90993  0.89108  0.32022  Biso   1.000  P
  Mn4      1.0000 0.15124  0.93652  0.29616  Biso   1.000  Mn
  O76      1.0000 0.60360  0.78070  0.29570  Biso   1.000  O
  O77      1.0000 0.64980  0.63230  0.25540  Biso   1.000  O
  O78      1.0000 0.59930  0.70700  0.46020  Biso   1.000  O
  O79      1.0000 0.92080  0.84050  0.44080  Biso   1.000  O
  O80      1.0000 0.73140  0.61860  0.42910  Biso   1.000  O
  O81      1.0000 0.38910  0.84470  0.30490  Biso   1.000  O
  O82      1.0000 0.34640  0.79400  0.38490  Biso   1.000  O
  O83      1.0000 0.58430  0.59540  0.33850  Biso   1.000  O
  O84      1.0000 0.49840  0.81490  0.47330  Biso   1.000  O
  O85      1.0000 0.77710  0.60370  0.33140  Biso   1.000  O
  O86      1.0000 0.66700  0.52530  0.28200  Biso   1.000  O
  O87      1.0000 0.71510  0.83870  0.46870  Biso   1.000  O
  O88      1.0000 0.87780  0.71350  0.33410  Biso   1.000  O
  O89      1.0000 0.45300  0.68970  0.36410  Biso   1.000  O
  O90      1.0000 0.43670  0.89500  0.39190  Biso   1.000  O
  O91      1.0000 0.85050  0.91960  0.36120  Biso   1.000  O
  O92      1.0000 0.95180  0.82870  0.33680  Biso   1.000  O
  O93      1.0000 0.75630  0.80890  0.36910  Biso   1.000  O
  O94      1.0000 0.67420  0.70680  0.36600  Biso   1.000  O
  O95      1.0000 0.56940  0.79700  0.38750  Biso   1.000  O
  O96      1.0000 0.24470  0.88440  0.35120  Biso   1.000  O
  O97      1.0000 0.83250  0.88720  0.26900  Biso   1.000  O
  O98      1.0000 0.85090  0.72390  0.44200  Biso   1.000  O
  O99      1.0000 0.00370  0.93280  0.31590  Biso   1.000  O
  O100     1.0000 0.64490  0.91780  0.38260  Biso   1.000  O
  Mo25     1.0000 0.28083  0.60753  0.92253  Biso   1.000  Mo
  Mo26     1.0000 0.42354  0.73308  0.89163  Biso   1.000  Mo
  Mo27     1.0000 0.08168  0.61990  0.93733  Biso   1.000  Mo
  Mo28     1.0000 0.95905  0.76156  0.92594  Biso   1.000  Mo
  Mo29     1.0000 0.33929  0.83862  0.88786  Biso   1.000  Mo
  Mo30     1.0000 0.07058  0.85378  0.90524  Biso   1.000  Mo
  P17      1.0000 0.16880  0.91200  0.80220  Biso   1.000  P
  P18      1.0000 0.85550  0.64587  0.85628  Biso   1.000  P
  P19      1.0000 0.14902  0.72616  0.85228  Biso   1.000  P
  P20      1.0000 0.40993  0.60892  0.82022  Biso   1.000  P
  Mn5      1.0000 0.65124  0.56348  0.79616  Biso   1.000  Mn
  O101     1.0000 0.10360  0.71930  0.79570  Biso   1.000  O
  O102     1.0000 0.14980  0.86770  0.75540  Biso   1.000  O
  O103     1.0000 0.09930  0.79300  0.96020  Biso   1.000  O
  O104     1.0000 0.42080  0.65950  0.94080  Biso   1.000  O
  O105     1.0000 0.23140  0.88140  0.92910  Biso   1.000  O
  O106     1.0000 0.88910  0.65530  0.80490  Biso   1.000  O
  O107     1.0000 0.84640  0.70600  0.88490  Biso   1.000  O
  O108     1.0000 0.08430  0.90460  0.83850  Biso   1.000  O
  O109     1.0000 0.99840  0.68510  0.97330  Biso   1.000  O
  O110     1.0000 0.27710  0.89630  0.83140  Biso   1.000  O
  O111     1.0000 0.16700  0.97470  0.78200  Biso   1.000  O
  O112     1.0000 0.21510  0.66130  0.96870  Biso   1.000  O
  O113     1.0000 0.37780  0.78650  0.83410  Biso   1.000  O
  O114     1.0000 0.95300  0.81030  0.86410  Biso   1.000  O
  O115     1.0000 0.93670  0.60500  0.89190  Biso   1.000  O
  O116     1.0000 0.35050  0.58040  0.86120  Biso   1.000  O
  O117     1.0000 0.45180  0.67130  0.83680  Biso   1.000  O
  O118     1.0000 0.25630  0.69110  0.86910  Biso   1.000  O
  O119     1.0000 0.17420  0.79320  0.86600  Biso   1.000  O
  O120     1.0000 0.06940  0.70300  0.88750  Biso   1.000  O
  O121     1.0000 0.74470  0.61560  0.85120  Biso   1.000  O
  O122     1.0000 0.33250  0.61280  0.76900  Biso   1.000  O
  O123     1.0000 0.35090  0.77610  0.94200  Biso   1.000  O
  O124     1.0000 0.50370  0.56720  0.81590  Biso   1.000  O
  O125     1.0000 0.14490  0.58220  0.88260  Biso   1.000  O
  Mo31     1.0000 0.78083  0.10753  0.92253  Biso   1.000  Mo
  Mo32     1.0000 0.92354  0.23308  0.89163  Biso   1.000  Mo
  Mo33     1.0000 0.58168  0.11990  0.93733  Biso   1.000  Mo
  Mo34     1.0000 0.45905  0.26156  0.92594  Biso   1.000  Mo
  Mo35     1.0000 0.83929  0.33862  0.88786  Biso   1.000  Mo
  Mo36     1.0000 0.57058  0.35378  0.90524  Biso   1.000  Mo
  P21      1.0000 0.66880  0.41200  0.80220  Biso   1.000  P
  P22      1.0000 0.35550  0.14587  0.85628  Biso   1.000  P
  P23      1.0000 0.64902  0.22616  0.85228  Biso   1.000  P
  P24      1.0000 0.90993  0.10892  0.82022  Biso   1.000  P
  Mn6      1.0000 0.15124  0.06348  0.79616  Biso   1.000  Mn
  O126     1.0000 0.60360  0.21930  0.79570  Biso   1.000  O
  O127     1.0000 0.64980  0.36770  0.75540  Biso   1.000  O
  O128     1.0000 0.59930  0.29300  0.96020  Biso   1.000  O
  O129     1.0000 0.92080  0.15950  0.94080  Biso   1.000  O
  O130     1.0000 0.73140  0.38140  0.92910  Biso   1.000  O
  O131     1.0000 0.38910  0.15530  0.80490  Biso   1.000  O
  O132     1.0000 0.34640  0.20600  0.88490  Biso   1.000  O
  O133     1.0000 0.58430  0.40460  0.83850  Biso   1.000  O
  O134     1.0000 0.49840  0.18510  0.97330  Biso   1.000  O
  O135     1.0000 0.77710  0.39630  0.83140  Biso   1.000  O
  O136     1.0000 0.66700  0.47470  0.78200  Biso   1.000  O
  O137     1.0000 0.71510  0.16130  0.96870  Biso   1.000  O
  O138     1.0000 0.87780  0.28650  0.83410  Biso   1.000  O
  O139     1.0000 0.45300  0.31030  0.86410  Biso   1.000  O
  O140     1.0000 0.43670  0.10500  0.89190  Biso   1.000  O
  O141     1.0000 0.85050  0.08040  0.86120  Biso   1.000  O
  O142     1.0000 0.95180  0.17130  0.83680  Biso   1.000  O
  O143     1.0000 0.75630  0.19110  0.86910  Biso   1.000  O
  O144     1.0000 0.67420  0.29320  0.86600  Biso   1.000  O
  O145     1.0000 0.56940  0.20300  0.88750  Biso   1.000  O
  O146     1.0000 0.24470  0.11560  0.85120  Biso   1.000  O
  O147     1.0000 0.83250  0.11280  0.76900  Biso   1.000  O
  O148     1.0000 0.85090  0.27610  0.94200  Biso   1.000  O
  O149     1.0000 0.00370  0.06720  0.81590  Biso   1.000  O
  O150     1.0000 0.64490  0.08220  0.88260  Biso   1.000  O
  Mo37     1.0000 0.71917  0.60753  0.57747  Biso   1.000  Mo
  Mo38     1.0000 0.57646  0.73308  0.60837  Biso   1.000  Mo
  Mo39     1.0000 0.91832  0.61990  0.56267  Biso   1.000  Mo
  Mo40     1.0000 0.04095  0.76156  0.57406  Biso   1.000  Mo
  Mo41     1.0000 0.66071  0.83862  0.61214  Biso   1.000  Mo
  Mo42     1.0000 0.92942  0.85378  0.59476  Biso   1.000  Mo
  P25      1.0000 0.83120  0.91200  0.69780  Biso   1.000  P
  P26      1.0000 0.14450  0.64587  0.64372  Biso   1.000  P
  P27      1.0000 0.85098  0.72616  0.64772  Biso   1.000  P
  P28      1.0000 0.59007  0.60892  0.67978  Biso   1.000  P
  Mn7      1.0000 0.34876  0.56348  0.70384  Biso   1.000  Mn
  O151     1.0000 0.89640  0.71930  0.70430  Biso   1.000  O
  O152     1.0000 0.85020  0.86770  0.74460  Biso   1.000  O
  O153     1.0000 0.90070  0.79300  0.53980  Biso   1.000  O
  O154     1.0000 0.57920  0.65950  0.55920  Biso   1.000  O
  O155     1.0000 0.76860  0.88140  0.57090  Biso   1.000  O
  O156     1.0000 0.11090  0.65530  0.69510  Biso   1.000  O
  O157     1.0000 0.15360  0.70600  0.61510  Biso   1.000  O
  O158     1.0000 0.91570  0.90460  0.66150  Biso   1.000  O
  O159     1.0000 0.00160  0.68510  0.52670  Biso   1.000  O
  O160     1.0000 0.72290  0.89630  0.66860  Biso   1.000  O
  O161     1.0000 0.83300  0.97470  0.71800  Biso   1.000  O
  O162     1.0000 0.78490  0.66130  0.53130  Biso   1.000  O
  O163     1.0000 0.62220  0.78650  0.66590  Biso   1.000  O
  O164     1.0000 0.04700  0.81030  0.63590  Biso   1.000  O
  O165     1.0000 0.06330  0.60500  0.60810  Biso   1.000  O
  O166     1.0000 0.64950  0.58040  0.63880  Biso   1.000  O
  O167     1.0000 0.54820  0.67130  0.66320  Biso   1.000  O
  O168     1.0000 0.74370  0.69110  0.63090  Biso   1.000  O
  O169     1.0000 0.82580  0.79320  0.63400  Biso   1.000  O
  O170     1.0000 0.93060  0.70300  0.61250  Biso   1.000  O
  O171     1.0000 0.25530  0.61560  0.64880  Biso   1.000  O
  O172     1.0000 0.66750  0.61280  0.73100  Biso   1.000  O
  O173     1.0000 0.64910  0.77610  0.55800  Biso   1.000  O
  O174     1.0000 0.49630  0.56720  0.68410  Biso   1.000  O
  O175     1.0000 0.85510  0.58220  0.61740  Biso   1.000  O
  Mo43     1.0000 0.21917  0.10753  0.57747  Biso   1.000  Mo
  Mo44     1.0000 0.07646  0.23308  0.60837  Biso   1.000  Mo
  Mo45     1.0000 0.41832  0.11990  0.56267  Biso   1.000  Mo
  Mo46     1.0000 0.54095  0.26156  0.57406  Biso   1.000  Mo
  Mo47     1.0000 0.16071  0.33862  0.61214  Biso   1.000  Mo
  Mo48     1.0000 0.42942  0.35378  0.59476  Biso   1.000  Mo
  P29      1.0000 0.33120  0.41200  0.69780  Biso   1.000  P
  P30      1.0000 0.64450  0.14587  0.64372  Biso   1.000  P
  P31      1.0000 0.35098  0.22616  0.64772  Biso   1.000  P
  P32      1.0000 0.09007  0.10892  0.67978  Biso   1.000  P
  Mn8      1.0000 0.84876  0.06348  0.70384  Biso   1.000  Mn
  O176     1.0000 0.39640  0.21930  0.70430  Biso   1.000  O
  O177     1.0000 0.35020  0.36770  0.74460  Biso   1.000  O
  O178     1.0000 0.40070  0.29300  0.53980  Biso   1.000  O
  O179     1.0000 0.07920  0.15950  0.55920  Biso   1.000  O
  O180     1.0000 0.26860  0.38140  0.57090  Biso   1.000  O
  O181     1.0000 0.61090  0.15530  0.69510  Biso   1.000  O
  O182     1.0000 0.65360  0.20600  0.61510  Biso   1.000  O
  O183     1.0000 0.41570  0.40460  0.66150  Biso   1.000  O
  O184     1.0000 0.50160  0.18510  0.52670  Biso   1.000  O
  O185     1.0000 0.22290  0.39630  0.66860  Biso   1.000  O
  O186     1.0000 0.33300  0.47470  0.71800  Biso   1.000  O
  O187     1.0000 0.28490  0.16130  0.53130  Biso   1.000  O
  O188     1.0000 0.12220  0.28650  0.66590  Biso   1.000  O
  O189     1.0000 0.54700  0.31030  0.63590  Biso   1.000  O
  O190     1.0000 0.56330  0.10500  0.60810  Biso   1.000  O
  O191     1.0000 0.14950  0.08040  0.63880  Biso   1.000  O
  O192     1.0000 0.04820  0.17130  0.66320  Biso   1.000  O
  O193     1.0000 0.24370  0.19110  0.63090  Biso   1.000  O
  O194     1.0000 0.32580  0.29320  0.63400  Biso   1.000  O
  O195     1.0000 0.43060  0.20300  0.61250  Biso   1.000  O
  O196     1.0000 0.75530  0.11560  0.64880  Biso   1.000  O
  O197     1.0000 0.16750  0.11280  0.73100  Biso   1.000  O
  O198     1.0000 0.14910  0.27610  0.55800  Biso   1.000  O
  O199     1.0000 0.99630  0.06720  0.68410  Biso   1.000  O
  O200     1.0000 0.35510  0.08220  0.61740  Biso   1.000  O
  Mn9      1.0000 0.75000  0.25000  0.00000  Biso   1.000  Mn
  Mn10     1.0000 0.25000  0.25000  0.50000  Biso   1.000  Mn
  Mn11     1.0000 0.25000  0.75000  0.00000  Biso   1.000  Mn
  Mn12     1.0000 0.75000  0.75000  0.50000  Biso   1.000  Mn
  Mn13     1.0000 0.00000  0.34660  0.25000  Biso   1.000  Mn
  Mn14     1.0000 0.50000  0.84660  0.25000  Biso   1.000  Mn
  Mn15     1.0000 0.00000  0.65340  0.75000  Biso   1.000  Mn
  Mn16     1.0000 0.50000  0.15340  0.75000  Biso   1.000  Mn
