data_MUXHIW01_clean
_audit_creation_date              2014-07-02
_audit_creation_method            'Materials Studio'
_symmetry_space_group_name_H-M    'P1'
_symmetry_Int_Tables_number       1
_symmetry_cell_setting            triclinic
loop_
_symmetry_equiv_pos_as_xyz
  x,y,z
_cell_length_a                    7.7648
_cell_length_b                    9.9827
_cell_length_c                    15.1515
_cell_angle_alpha                 90.0000
_cell_angle_beta                  98.5910
_cell_angle_gamma                 90.0000
loop_
_atom_site_label
_atom_site_type_symbol
_atom_site_fract_x
_atom_site_fract_y
_atom_site_fract_z
_atom_site_U_iso_or_equiv
_atom_site_adp_type
_atom_site_occupancy
La1    La    0.85859   0.54327   0.64068   0.01267  Uiso   1.00
La2    La    0.64141   0.04327   0.85932   0.01267  Uiso   1.00
La3    La    0.14141   0.45673   0.35932   0.01267  Uiso   1.00
La4    La    0.35859   0.95673   0.14068   0.01267  Uiso   1.00
H1     H     0.79590   0.10660   0.36650   0.01267  Uiso   1.00
H2     H     0.61930   0.80140   0.48490   0.01267  Uiso   1.00
H3     H     0.82400   0.10980   0.63230   0.01267  Uiso   1.00
H4     H     0.70410   0.60660   0.13350   0.01267  Uiso   1.00
H5     H     0.88070   0.30140   0.01510   0.01267  Uiso   1.00
H6     H     0.67600   0.60980   0.86770   0.01267  Uiso   1.00
H7     H     0.20410   0.89340   0.63350   0.01267  Uiso   1.00
H8     H     0.38070   0.19860   0.51510   0.01267  Uiso   1.00
H9     H     0.17600   0.89020   0.36770   0.01267  Uiso   1.00
H10    H     0.29590   0.39340   0.86650   0.01267  Uiso   1.00
H11    H     0.11930   0.69860   0.98490   0.01267  Uiso   1.00
H12    H     0.32400   0.39020   0.13230   0.01267  Uiso   1.00
C1     C     0.69020   0.86400   0.65336   0.01267  Uiso   1.00
C2     C     0.91090   0.26492   0.50148   0.01267  Uiso   1.00
C3     C     0.82450   0.13001   0.49929   0.01267  Uiso   1.00
C4     C     0.77350   0.06530   0.41855   0.01267  Uiso   1.00
C5     C     0.67100   0.88570   0.48837   0.01267  Uiso   1.00
C6     C     0.71990   0.94097   0.57223   0.01267  Uiso   1.00
C7     C     0.79450   0.06750   0.57741   0.01267  Uiso   1.00
C8     C     0.45710   0.46786   0.53822   0.01267  Uiso   1.00
C9     C     0.80980   0.36400   0.84664   0.01267  Uiso   1.00
C10    C     0.58910   0.76492   0.99852   0.01267  Uiso   1.00
C11    C     0.67550   0.63001   0.00071   0.01267  Uiso   1.00
C12    C     0.72650   0.56530   0.08145   0.01267  Uiso   1.00
C13    C     0.82900   0.38570   0.01163   0.01267  Uiso   1.00
C14    C     0.78010   0.44097   0.92777   0.01267  Uiso   1.00
C15    C     0.70550   0.56750   0.92259   0.01267  Uiso   1.00
C16    C     0.04290   0.96786   0.96178   0.01267  Uiso   1.00
C17    C     0.30980   0.13600   0.34664   0.01267  Uiso   1.00
C18    C     0.08910   0.73508   0.49852   0.01267  Uiso   1.00
C19    C     0.17550   0.86999   0.50071   0.01267  Uiso   1.00
C20    C     0.22650   0.93470   0.58145   0.01267  Uiso   1.00
C21    C     0.32900   0.11430   0.51163   0.01267  Uiso   1.00
C22    C     0.28010   0.05903   0.42777   0.01267  Uiso   1.00
C23    C     0.20550   0.93250   0.42259   0.01267  Uiso   1.00
C24    C     0.54290   0.53214   0.46178   0.01267  Uiso   1.00
C25    C     0.19020   0.63600   0.15336   0.01267  Uiso   1.00
C26    C     0.41090   0.23508   0.00148   0.01267  Uiso   1.00
C27    C     0.32450   0.36999   0.99929   0.01267  Uiso   1.00
C28    C     0.27350   0.43470   0.91855   0.01267  Uiso   1.00
C29    C     0.17100   0.61430   0.98837   0.01267  Uiso   1.00
C30    C     0.21990   0.55903   0.07223   0.01267  Uiso   1.00
C31    C     0.29450   0.43250   0.07741   0.01267  Uiso   1.00
C32    C     0.95710   0.03214   0.03822   0.01267  Uiso   1.00
N1     N     0.69330   0.94579   0.41210   0.01267  Uiso   1.00
N2     N     0.80670   0.44579   0.08790   0.01267  Uiso   1.00
N3     N     0.30670   0.05421   0.58790   0.01267  Uiso   1.00
N4     N     0.19330   0.55421   0.91210   0.01267  Uiso   1.00
O1     O     0.91800   0.33201   0.57165   0.01267  Uiso   1.00
O2     O     0.97020   0.30120   0.43327   0.01267  Uiso   1.00
O3     O     0.69510   0.92466   0.72536   0.01267  Uiso   1.00
O4     O     0.66273   0.73945   0.64441   0.01267  Uiso   1.00
O5     O     0.55302   0.44674   0.61058   0.01267  Uiso   1.00
O6     O     0.29825   0.44073   0.52061   0.01267  Uiso   1.00
O7     O     0.58200   0.83201   0.92835   0.01267  Uiso   1.00
O8     O     0.52980   0.80120   0.06673   0.01267  Uiso   1.00
O9     O     0.80490   0.42466   0.77464   0.01267  Uiso   1.00
O10    O     0.83727   0.23945   0.85559   0.01267  Uiso   1.00
O11    O     0.94698   0.94674   0.88942   0.01267  Uiso   1.00
O12    O     0.20175   0.94073   0.97939   0.01267  Uiso   1.00
O13    O     0.08200   0.66799   0.42835   0.01267  Uiso   1.00
O14    O     0.02980   0.69880   0.56673   0.01267  Uiso   1.00
O15    O     0.30490   0.07534   0.27464   0.01267  Uiso   1.00
O16    O     0.33727   0.26055   0.35559   0.01267  Uiso   1.00
O17    O     0.44698   0.55326   0.38942   0.01267  Uiso   1.00
O18    O     0.70175   0.55927   0.47939   0.01267  Uiso   1.00
O19    O     0.41800   0.16799   0.07165   0.01267  Uiso   1.00
O20    O     0.47020   0.19880   0.93327   0.01267  Uiso   1.00
O21    O     0.19510   0.57534   0.22536   0.01267  Uiso   1.00
O22    O     0.16273   0.76055   0.14441   0.01267  Uiso   1.00
O23    O     0.05302   0.05326   0.11058   0.01267  Uiso   1.00
O24    O     0.79825   0.05927   0.02061   0.01267  Uiso   1.00
