data_image0
_cell_length_a       7.7022
_cell_length_b       9.9152
_cell_length_c       15.8202
_cell_angle_alpha    90
_cell_angle_beta     110.305
_cell_angle_gamma    90

_symmetry_space_group_name_H-M    "P 1"
_symmetry_int_tables_number       1

loop_
  _symmetry_equiv_pos_as_xyz
  'x, y, z'

loop_
  _atom_site_label
  _atom_site_occupancy
  _atom_site_fract_x
  _atom_site_fract_y
  _atom_site_fract_z
  _atom_site_thermal_displace_type
  _atom_site_B_iso_or_equiv
  _atom_site_type_symbol
  Nd1      1.0000 0.78478  0.04391  0.63998  Biso   1.000  Nd
  O1       1.0000 0.06040  0.94860  0.61264  Biso   1.000  O
  O2       1.0000 0.22320  0.93910  0.52051  Biso   1.000  O
  O3       1.0000 0.98100  0.23720  0.64538  Biso   1.000  O
  O4       1.0000 0.03230  0.42320  0.72825  Biso   1.000  O
  O5       1.0000 0.65730  0.83750  0.57152  Biso   1.000  O
  O6       1.0000 0.45840  0.80450  0.43270  Biso   1.000  O
  N1       1.0000 0.71820  0.44590  0.41120  Biso   1.000  N
  C1       1.0000 0.96370  0.36320  0.65510  Biso   1.000  C
  C2       1.0000 0.85290  0.44100  0.57300  Biso   1.000  C
  C3       1.0000 0.81740  0.38570  0.48810  Biso   1.000  C
  H1       1.0000 0.86620  0.30100  0.48460  Biso   1.000  H
  C4       1.0000 0.64460  0.56730  0.41780  Biso   1.000  C
  H2       1.0000 0.57090  0.60970  0.36520  Biso   1.000  H
  C5       1.0000 0.78240  0.56940  0.57820  Biso   1.000  C
  H3       1.0000 0.80790  0.61230  0.63350  Biso   1.000  H
  C6       1.0000 0.67340  0.63150  0.49880  Biso   1.000  C
  C7       1.0000 0.59050  0.76860  0.50160  Biso   1.000  C
  C8       1.0000 0.08210  0.96820  0.53870  Biso   1.000  C
  Nd2      1.0000 0.21522  0.54391  0.86002  Biso   1.000  Nd
  O7       1.0000 0.93960  0.44860  0.88736  Biso   1.000  O
  O8       1.0000 0.77680  0.43910  0.97949  Biso   1.000  O
  O9       1.0000 0.01900  0.73720  0.85462  Biso   1.000  O
  O10      1.0000 0.96770  0.92320  0.77175  Biso   1.000  O
  O11      1.0000 0.34270  0.33750  0.92848  Biso   1.000  O
  O12      1.0000 0.54160  0.30450  0.06730  Biso   1.000  O
  N2       1.0000 0.28180  0.94590  0.08880  Biso   1.000  N
  C9       1.0000 0.03630  0.86320  0.84490  Biso   1.000  C
  C10      1.0000 0.14710  0.94100  0.92700  Biso   1.000  C
  C11      1.0000 0.18260  0.88570  0.01190  Biso   1.000  C
  H4       1.0000 0.13380  0.80100  0.01540  Biso   1.000  H
  C12      1.0000 0.35540  0.06730  0.08220  Biso   1.000  C
  H5       1.0000 0.42910  0.10970  0.13480  Biso   1.000  H
  C13      1.0000 0.21760  0.06940  0.92180  Biso   1.000  C
  H6       1.0000 0.19210  0.11230  0.86650  Biso   1.000  H
  C14      1.0000 0.32660  0.13150  0.00120  Biso   1.000  C
  C15      1.0000 0.40950  0.26860  0.99840  Biso   1.000  C
  C16      1.0000 0.91790  0.46820  0.96130  Biso   1.000  C
  Nd3      1.0000 0.21522  0.95609  0.36002  Biso   1.000  Nd
  O13      1.0000 0.93960  0.05140  0.38736  Biso   1.000  O
  O14      1.0000 0.77680  0.06090  0.47949  Biso   1.000  O
  O15      1.0000 0.01900  0.76280  0.35462  Biso   1.000  O
  O16      1.0000 0.96770  0.57680  0.27175  Biso   1.000  O
  O17      1.0000 0.34270  0.16250  0.42848  Biso   1.000  O
  O18      1.0000 0.54160  0.19550  0.56730  Biso   1.000  O
  N3       1.0000 0.28180  0.55410  0.58880  Biso   1.000  N
  C17      1.0000 0.03630  0.63680  0.34490  Biso   1.000  C
  C18      1.0000 0.14710  0.55900  0.42700  Biso   1.000  C
  C19      1.0000 0.18260  0.61430  0.51190  Biso   1.000  C
  H7       1.0000 0.13380  0.69900  0.51540  Biso   1.000  H
  C20      1.0000 0.35540  0.43270  0.58220  Biso   1.000  C
  H8       1.0000 0.42910  0.39030  0.63480  Biso   1.000  H
  C21      1.0000 0.21760  0.43060  0.42180  Biso   1.000  C
  H9       1.0000 0.19210  0.38770  0.36650  Biso   1.000  H
  C22      1.0000 0.32660  0.36850  0.50120  Biso   1.000  C
  C23      1.0000 0.40950  0.23140  0.49840  Biso   1.000  C
  C24      1.0000 0.91790  0.03180  0.46130  Biso   1.000  C
  Nd4      1.0000 0.78478  0.45609  0.13998  Biso   1.000  Nd
  O19      1.0000 0.06040  0.55140  0.11264  Biso   1.000  O
  O20      1.0000 0.22320  0.56090  0.02051  Biso   1.000  O
  O21      1.0000 0.98100  0.26280  0.14538  Biso   1.000  O
  O22      1.0000 0.03230  0.07680  0.22825  Biso   1.000  O
  O23      1.0000 0.65730  0.66250  0.07152  Biso   1.000  O
  O24      1.0000 0.45840  0.69550  0.93270  Biso   1.000  O
  N4       1.0000 0.71820  0.05410  0.91120  Biso   1.000  N
  C25      1.0000 0.96370  0.13680  0.15510  Biso   1.000  C
  C26      1.0000 0.85290  0.05900  0.07300  Biso   1.000  C
  C27      1.0000 0.81740  0.11430  0.98810  Biso   1.000  C
  H10      1.0000 0.86620  0.19900  0.98460  Biso   1.000  H
  C28      1.0000 0.64460  0.93270  0.91780  Biso   1.000  C
  H11      1.0000 0.57090  0.89030  0.86520  Biso   1.000  H
  C29      1.0000 0.78240  0.93060  0.07820  Biso   1.000  C
  H12      1.0000 0.80790  0.88770  0.13350  Biso   1.000  H
  C30      1.0000 0.67340  0.86850  0.99880  Biso   1.000  C
  C31      1.0000 0.59050  0.73140  0.00160  Biso   1.000  C
  C32      1.0000 0.08210  0.53180  0.03870  Biso   1.000  C
