data_MUZHUL_charged
_audit_creation_date              2014-07-02
_audit_creation_method            'Materials Studio'
_symmetry_space_group_name_H-M    'P1'
_symmetry_Int_Tables_number       1
_symmetry_cell_setting            triclinic
loop_
_symmetry_equiv_pos_as_xyz
  x,y,z
_cell_length_a                    7.3562
_cell_length_b                    7.3562
_cell_length_c                    16.3000
_cell_angle_alpha                 90.7568
_cell_angle_beta                  90.7568
_cell_angle_gamma                 95.9011
loop_
_atom_site_label
_atom_site_type_symbol
_atom_site_fract_x
_atom_site_fract_y
_atom_site_fract_z
_atom_site_U_iso_or_equiv
_atom_site_adp_type
_atom_site_occupancy
Zn1    Zn    0.97958   0.02042   0.75000   0.01267  Uiso   1.00
Zn2    Zn    0.02042   0.97958   0.25000   0.01267  Uiso   1.00
H1     H     0.81440   0.03780   0.01140   0.01267  Uiso   1.00
H2     H     0.96220   0.18560   0.48860   0.01267  Uiso   1.00
H3     H     0.18560   0.96220   0.98860   0.01267  Uiso   1.00
H4     H     0.03780   0.81440   0.51140   0.01267  Uiso   1.00
C1     C     0.60510   0.03570   0.93010   0.01267  Uiso   1.00
C2     C     0.41630   0.01370   0.92270   0.01267  Uiso   1.00
C3     C     0.68760   0.02240   0.00680   0.01267  Uiso   1.00
C4     C     0.73270   0.06550   0.85850   0.01267  Uiso   1.00
C5     C     0.31860   0.03340   0.84150   0.01267  Uiso   1.00
C6     C     0.96430   0.39490   0.56990   0.01267  Uiso   1.00
C7     C     0.98630   0.58370   0.57730   0.01267  Uiso   1.00
C8     C     0.97760   0.31240   0.49320   0.01267  Uiso   1.00
C9     C     0.93450   0.26730   0.64150   0.01267  Uiso   1.00
C10    C     0.96660   0.68140   0.65850   0.01267  Uiso   1.00
C11    C     0.39490   0.96430   0.06990   0.01267  Uiso   1.00
C12    C     0.58370   0.98630   0.07730   0.01267  Uiso   1.00
C13    C     0.31240   0.97760   0.99320   0.01267  Uiso   1.00
C14    C     0.26730   0.93450   0.14150   0.01267  Uiso   1.00
C15    C     0.68140   0.96660   0.15850   0.01267  Uiso   1.00
C16    C     0.03570   0.60510   0.43010   0.01267  Uiso   1.00
C17    C     0.01370   0.41630   0.42270   0.01267  Uiso   1.00
C18    C     0.02240   0.68760   0.50680   0.01267  Uiso   1.00
C19    C     0.06550   0.73270   0.35850   0.01267  Uiso   1.00
C20    C     0.03340   0.31860   0.34150   0.01267  Uiso   1.00
O1     O     0.15410   0.97270   0.83810   0.01267  Uiso   1.00
O2     O     0.75790   0.93010   0.81450   0.01267  Uiso   1.00
O3     O     0.81710   0.21570   0.84980   0.01267  Uiso   1.00
O4     O     0.40490   0.10930   0.78580   0.01267  Uiso   1.00
O5     O     0.02730   0.84590   0.66190   0.01267  Uiso   1.00
O6     O     0.06990   0.24210   0.68550   0.01267  Uiso   1.00
O7     O     0.78430   0.18290   0.65020   0.01267  Uiso   1.00
O8     O     0.89070   0.59510   0.71420   0.01267  Uiso   1.00
O9     O     0.84590   0.02730   0.16190   0.01267  Uiso   1.00
O10    O     0.24210   0.06990   0.18550   0.01267  Uiso   1.00
O11    O     0.18290   0.78430   0.15020   0.01267  Uiso   1.00
O12    O     0.59510   0.89070   0.21420   0.01267  Uiso   1.00
O13    O     0.97270   0.15410   0.33810   0.01267  Uiso   1.00
O14    O     0.93010   0.75790   0.31450   0.01267  Uiso   1.00
O15    O     0.21570   0.81710   0.34980   0.01267  Uiso   1.00
O16    O     0.10930   0.40490   0.28580   0.01267  Uiso   1.00
