data_image0
_cell_length_a       9.725
_cell_length_b       14.654
_cell_length_c       19.736
_cell_angle_alpha    80.5
_cell_angle_beta     77.2
_cell_angle_gamma    81.7

_symmetry_space_group_name_H-M    "P 1"
_symmetry_int_tables_number       1

loop_
  _symmetry_equiv_pos_as_xyz
  'x, y, z'

loop_
  _atom_site_label
  _atom_site_occupancy
  _atom_site_fract_x
  _atom_site_fract_y
  _atom_site_fract_z
  _atom_site_thermal_displace_type
  _atom_site_B_iso_or_equiv
  _atom_site_type_symbol
  Cd1      1.0000 0.46414  0.06293  0.19358  Biso   1.000  Cd
  Cd2      1.0000 0.16578  0.23162  0.24784  Biso   1.000  Cd
  O1       1.0000 0.27980  0.05570  0.14228  Biso   1.000  O
  O2       1.0000 0.08470  0.14200  0.18972  Biso   1.000  O
  O3       1.0000 0.53670  0.17810  0.10921  Biso   1.000  O
  O4       1.0000 0.37460  0.26300  0.17643  Biso   1.000  O
  O5       1.0000 0.29940  0.10280  0.29530  Biso   1.000  O
  O6       1.0000 0.36030  0.95330  0.29089  Biso   1.000  O
  O7       1.0000 0.99120  0.26710  0.35197  Biso   1.000  O
  O8       1.0000 0.19380  0.32460  0.32430  Biso   1.000  O
  N1       1.0000 0.03530  0.35800  0.19100  Biso   1.000  N
  N2       1.0000 0.58960  0.94370  0.13619  Biso   1.000  N
  C1       1.0000 0.15290  0.08760  0.14770  Biso   1.000  C
  C2       1.0000 0.07210  0.06000  0.09849  Biso   1.000  C
  C3       1.0000 0.92870  0.09750  0.09880  Biso   1.000  C
  H1       1.0000 0.88020  0.13590  0.13310  Biso   1.000  H
  C4       1.0000 0.13980  0.00180  0.05060  Biso   1.000  C
  H2       1.0000 0.23470  0.97540  0.05140  Biso   1.000  H
  C5       1.0000 0.07050  0.98020  0.00007  Biso   1.000  C
  C6       1.0000 0.86050  0.07860  0.05020  Biso   1.000  C
  H3       1.0000 0.76550  0.10530  0.05020  Biso   1.000  H
  C7       1.0000 0.44340  0.50280  0.02930  Biso   1.000  C
  C8       1.0000 0.41850  0.42320  0.07920  Biso   1.000  C
  H4       1.0000 0.34470  0.42730  0.11950  Biso   1.000  H
  C9       1.0000 0.50040  0.33910  0.07000  Biso   1.000  C
  C10      1.0000 0.61170  0.33420  0.01160  Biso   1.000  C
  H5       1.0000 0.66820  0.27650  0.00530  Biso   1.000  H
  C11      1.0000 0.64080  0.41100  0.96330  Biso   1.000  C
  H6       1.0000 0.71810  0.40630  0.92460  Biso   1.000  H
  C12      1.0000 0.46680  0.25450  0.12210  Biso   1.000  C
  C13      1.0000 0.04960  0.88400  0.46970  Biso   1.000  C
  H7       1.0000 0.02570  0.82210  0.48370  Biso   1.000  H
  C14      1.0000 0.14890  0.90430  0.41010  Biso   1.000  C
  H8       1.0000 0.19500  0.85610  0.38340  Biso   1.000  H
  C15      1.0000 0.18340  0.99580  0.38792  Biso   1.000  C
  C16      1.0000 0.12000  0.06400  0.42735  Biso   1.000  C
  H9       1.0000 0.14550  0.12540  0.41270  Biso   1.000  H
  C17      1.0000 0.01750  0.04600  0.48944  Biso   1.000  C
  C18      1.0000 0.28760  0.01730  0.32070  Biso   1.000  C
  C19      1.0000 0.11000  0.44390  0.42380  Biso   1.000  C
  H10      1.0000 0.19900  0.44830  0.39250  Biso   1.000  H
  C20      1.0000 0.02690  0.38130  0.41770  Biso   1.000  C
  C21      1.0000 0.89420  0.37420  0.46320  Biso   1.000  C
  H11      1.0000 0.83620  0.32980  0.45820  Biso   1.000  H
  C22      1.0000 0.84720  0.43050  0.51480  Biso   1.000  C
  H12      1.0000 0.75680  0.42550  0.54480  Biso   1.000  H
  C23      1.0000 0.93340  0.49560  0.52320  Biso   1.000  C
  C24      1.0000 0.07270  0.31990  0.36050  Biso   1.000  C
  C25      1.0000 0.03420  0.44390  0.20270  Biso   1.000  C
  H13      1.0000 0.09850  0.45510  0.22950  Biso   1.000  H
  C26      1.0000 0.94810  0.51690  0.17920  Biso   1.000  C
  H14      1.0000 0.94960  0.57660  0.19170  Biso   1.000  H
  C27      1.0000 0.85820  0.50580  0.13750  Biso   1.000  C
  C28      1.0000 0.85750  0.41790  0.12400  Biso   1.000  C
  H15      1.0000 0.79610  0.40570  0.09610  Biso   1.000  H
  C29      1.0000 0.94810  0.34590  0.15170  Biso   1.000  C
  H16      1.0000 0.94690  0.28480  0.14170  Biso   1.000  H
  C30      1.0000 0.76500  0.58680  0.10490  Biso   1.000  C
  H17      1.0000 0.71340  0.62550  0.14120  Biso   1.000  H
  H18      1.0000 0.69440  0.56250  0.08540  Biso   1.000  H
  C31      1.0000 0.86220  0.64790  0.04440  Biso   1.000  C
  H19      1.0000 0.94250  0.66030  0.06360  Biso   1.000  H
  H20      1.0000 0.90280  0.60910  0.00660  Biso   1.000  H
  C32      1.0000 0.80820  0.72720  0.01550  Biso   1.000  C
  H21      1.0000 0.74050  0.71340  0.98880  Biso   1.000  H
  H22      1.0000 0.88620  0.75510  0.98070  Biso   1.000  H
  C33      1.0000 0.73190  0.80210  0.05980  Biso   1.000  C
  C34      1.0000 0.77780  0.82420  0.11520  Biso   1.000  C
  H23      1.0000 0.86060  0.79030  0.12870  Biso   1.000  H
  C35      1.0000 0.70590  0.89450  0.15120  Biso   1.000  C
  H24      1.0000 0.74170  0.90840  0.18890  Biso   1.000  H
  C36      1.0000 0.54630  0.92180  0.08150  Biso   1.000  C
  H25      1.0000 0.46530  0.95780  0.06760  Biso   1.000  H
  C37      1.0000 0.61090  0.85140  0.04500  Biso   1.000  C
  H26      1.0000 0.57120  0.83670  0.00880  Biso   1.000  H
  Cd3      1.0000 0.53586  0.93707  0.80642  Biso   1.000  Cd
  Cd4      1.0000 0.83422  0.76838  0.75216  Biso   1.000  Cd
  O9       1.0000 0.72020  0.94430  0.85772  Biso   1.000  O
  O10      1.0000 0.91530  0.85800  0.81028  Biso   1.000  O
  O11      1.0000 0.46330  0.82190  0.89079  Biso   1.000  O
  O12      1.0000 0.62540  0.73700  0.82357  Biso   1.000  O
  O13      1.0000 0.70060  0.89720  0.70470  Biso   1.000  O
  O14      1.0000 0.63970  0.04670  0.70911  Biso   1.000  O
  O15      1.0000 0.00880  0.73290  0.64803  Biso   1.000  O
  O16      1.0000 0.80620  0.67540  0.67570  Biso   1.000  O
  N3       1.0000 0.96470  0.64200  0.80900  Biso   1.000  N
  N4       1.0000 0.41040  0.05630  0.86381  Biso   1.000  N
  C38      1.0000 0.84710  0.91240  0.85230  Biso   1.000  C
  C39      1.0000 0.92790  0.94000  0.90151  Biso   1.000  C
  C40      1.0000 0.07130  0.90250  0.90120  Biso   1.000  C
  H27      1.0000 0.11980  0.86410  0.86690  Biso   1.000  H
  C41      1.0000 0.86020  0.99820  0.94940  Biso   1.000  C
  H28      1.0000 0.76530  0.02460  0.94860  Biso   1.000  H
  C42      1.0000 0.92950  0.01980  0.99993  Biso   1.000  C
  C43      1.0000 0.13950  0.92140  0.94980  Biso   1.000  C
  H29      1.0000 0.23450  0.89470  0.94980  Biso   1.000  H
  C44      1.0000 0.55660  0.49720  0.97070  Biso   1.000  C
  C45      1.0000 0.58150  0.57680  0.92080  Biso   1.000  C
  H30      1.0000 0.65530  0.57270  0.88050  Biso   1.000  H
  C46      1.0000 0.49960  0.66090  0.93000  Biso   1.000  C
  C47      1.0000 0.38830  0.66580  0.98840  Biso   1.000  C
  H31      1.0000 0.33180  0.72350  0.99470  Biso   1.000  H
  C48      1.0000 0.35920  0.58900  0.03670  Biso   1.000  C
  H32      1.0000 0.28190  0.59370  0.07540  Biso   1.000  H
  C49      1.0000 0.53320  0.74550  0.87790  Biso   1.000  C
  C50      1.0000 0.95040  0.11600  0.53030  Biso   1.000  C
  H33      1.0000 0.97430  0.17790  0.51630  Biso   1.000  H
  C51      1.0000 0.85110  0.09570  0.58990  Biso   1.000  C
  H34      1.0000 0.80500  0.14390  0.61660  Biso   1.000  H
  C52      1.0000 0.81660  0.00420  0.61208  Biso   1.000  C
  C53      1.0000 0.88000  0.93600  0.57265  Biso   1.000  C
  H35      1.0000 0.85450  0.87460  0.58730  Biso   1.000  H
  C54      1.0000 0.98250  0.95400  0.51056  Biso   1.000  C
  C55      1.0000 0.71240  0.98270  0.67930  Biso   1.000  C
  C56      1.0000 0.89000  0.55610  0.57620  Biso   1.000  C
  H36      1.0000 0.80100  0.55170  0.60750  Biso   1.000  H
  C57      1.0000 0.97310  0.61870  0.58230  Biso   1.000  C
  C58      1.0000 0.10580  0.62580  0.53680  Biso   1.000  C
  H37      1.0000 0.16380  0.67020  0.54180  Biso   1.000  H
  C59      1.0000 0.15280  0.56950  0.48520  Biso   1.000  C
  H38      1.0000 0.24320  0.57450  0.45520  Biso   1.000  H
  C60      1.0000 0.06660  0.50440  0.47680  Biso   1.000  C
  C61      1.0000 0.92730  0.68010  0.63950  Biso   1.000  C
  C62      1.0000 0.96580  0.55610  0.79730  Biso   1.000  C
  H39      1.0000 0.90150  0.54490  0.77050  Biso   1.000  H
  C63      1.0000 0.05190  0.48310  0.82080  Biso   1.000  C
  H40      1.0000 0.05040  0.42340  0.80830  Biso   1.000  H
  C64      1.0000 0.14180  0.49420  0.86250  Biso   1.000  C
  C65      1.0000 0.14250  0.58210  0.87600  Biso   1.000  C
  H41      1.0000 0.20390  0.59430  0.90390  Biso   1.000  H
  C66      1.0000 0.05190  0.65410  0.84830  Biso   1.000  C
  H42      1.0000 0.05310  0.71520  0.85830  Biso   1.000  H
  C67      1.0000 0.23500  0.41320  0.89510  Biso   1.000  C
  H43      1.0000 0.28660  0.37450  0.85880  Biso   1.000  H
  H44      1.0000 0.30560  0.43750  0.91460  Biso   1.000  H
  C68      1.0000 0.13780  0.35210  0.95560  Biso   1.000  C
  H45      1.0000 0.05750  0.33970  0.93640  Biso   1.000  H
  H46      1.0000 0.09720  0.39090  0.99340  Biso   1.000  H
  C69      1.0000 0.19180  0.27280  0.98450  Biso   1.000  C
  H47      1.0000 0.25950  0.28660  0.01120  Biso   1.000  H
  H48      1.0000 0.11380  0.24490  0.01930  Biso   1.000  H
  C70      1.0000 0.26810  0.19790  0.94020  Biso   1.000  C
  C71      1.0000 0.22220  0.17580  0.88480  Biso   1.000  C
  H49      1.0000 0.13940  0.20970  0.87130  Biso   1.000  H
  C72      1.0000 0.29410  0.10550  0.84880  Biso   1.000  C
  H50      1.0000 0.25830  0.09160  0.81110  Biso   1.000  H
  C73      1.0000 0.45370  0.07820  0.91850  Biso   1.000  C
  H51      1.0000 0.53470  0.04220  0.93240  Biso   1.000  H
  C74      1.0000 0.38910  0.14860  0.95500  Biso   1.000  C
  H52      1.0000 0.42880  0.16330  0.99120  Biso   1.000  H
