data_NABCEA_charged
_audit_creation_date              2014-07-02
_audit_creation_method            'Materials Studio'
_symmetry_space_group_name_H-M    'P1'
_symmetry_Int_Tables_number       1
_symmetry_cell_setting            triclinic
loop_
_symmetry_equiv_pos_as_xyz
  x,y,z
_cell_length_a                    10.6597
_cell_length_b                    18.8495
_cell_length_c                    39.7552
_cell_angle_alpha                 90.0000
_cell_angle_beta                  90.0000
_cell_angle_gamma                 90.0000
loop_
_atom_site_label
_atom_site_type_symbol
_atom_site_fract_x
_atom_site_fract_y
_atom_site_fract_z
_atom_site_U_iso_or_equiv
_atom_site_adp_type
_atom_site_occupancy
Zn1    Zn    0.49952   0.47402   0.52062   0.01267  Uiso   1.00
Zn2    Zn    0.69940   0.72602   0.77147   0.01267  Uiso   1.00
Zn3    Zn    0.50048   0.52598   0.02062   0.01267  Uiso   1.00
Zn4    Zn    0.30060   0.27398   0.27147   0.01267  Uiso   1.00
Zn5    Zn    0.00048   0.97402   0.52062   0.01267  Uiso   1.00
Zn6    Zn    0.80060   0.22602   0.77147   0.01267  Uiso   1.00
Zn7    Zn    0.99952   0.02598   0.02062   0.01267  Uiso   1.00
Zn8    Zn    0.19940   0.77398   0.27147   0.01267  Uiso   1.00
H1     H     0.51760   0.49900   0.44330   0.01267  Uiso   1.00
H2     H     0.56510   0.58830   0.40500   0.01267  Uiso   1.00
H3     H     0.60790   0.72120   0.48260   0.01267  Uiso   1.00
H4     H     0.57050   0.63100   0.51910   0.01267  Uiso   1.00
H5     H     0.26440   0.67600   0.33140   0.01267  Uiso   1.00
H6     H     0.41600   0.65430   0.36890   0.01267  Uiso   1.00
H7     H     0.60810   0.82100   0.33280   0.01267  Uiso   1.00
H8     H     0.44140   0.84100   0.29650   0.01267  Uiso   1.00
H9     H     0.94260   0.70260   0.28430   0.01267  Uiso   1.00
H10    H     0.78590   0.69560   0.32220   0.01267  Uiso   1.00
H11    H     0.97410   0.83390   0.38120   0.01267  Uiso   1.00
H12    H     0.14070   0.82800   0.34260   0.01267  Uiso   1.00
H13    H     0.06320   0.83230   0.48750   0.01267  Uiso   1.00
H14    H     0.98370   0.74810   0.45190   0.01267  Uiso   1.00
H15    H     0.67090   0.86460   0.44360   0.01267  Uiso   1.00
H16    H     0.75930   0.94490   0.48150   0.01267  Uiso   1.00
H17    H     0.57590   0.76640   0.42160   0.01267  Uiso   1.00
H18    H     0.67580   0.66970   0.37290   0.01267  Uiso   1.00
H19    H     0.71860   0.81940   0.37970   0.01267  Uiso   1.00
H20    H     0.82380   0.70410   0.41750   0.01267  Uiso   1.00
H21    H     0.28960   0.58830   0.52510   0.01267  Uiso   1.00
H22    H     0.20080   0.66620   0.56300   0.01267  Uiso   1.00
H23    H     0.44020   0.59420   0.63220   0.01267  Uiso   1.00
H24    H     0.52030   0.52010   0.59250   0.01267  Uiso   1.00
H25    H     0.62550   0.77270   0.70090   0.01267  Uiso   1.00
H26    H     0.45920   0.76300   0.66270   0.01267  Uiso   1.00
H27    H     0.30660   0.61530   0.72170   0.01267  Uiso   1.00
H28    H     0.46150   0.63400   0.75970   0.01267  Uiso   1.00
H29    H     0.81290   0.63900   0.71190   0.01267  Uiso   1.00
H30    H     0.96580   0.64360   0.67240   0.01267  Uiso   1.00
H31    H     0.08320   0.82870   0.71250   0.01267  Uiso   1.00
H32    H     0.91520   0.82060   0.75020   0.01267  Uiso   1.00
H33    H     0.87590   0.84350   0.55450   0.01267  Uiso   1.00
H34    H     0.92040   0.75480   0.59370   0.01267  Uiso   1.00
H35    H     0.26410   0.83860   0.60340   0.01267  Uiso   1.00
H36    H     0.21100   0.92290   0.56530   0.01267  Uiso   1.00
H37    H     0.33050   0.73990   0.62380   0.01267  Uiso   1.00
H38    H     0.21520   0.63540   0.66670   0.01267  Uiso   1.00
H39    H     0.19350   0.78870   0.66610   0.01267  Uiso   1.00
H40    H     0.07590   0.68590   0.62230   0.01267  Uiso   1.00
H41    H     0.48240   0.50100   0.94330   0.01267  Uiso   1.00
H42    H     0.43490   0.41170   0.90500   0.01267  Uiso   1.00
H43    H     0.39210   0.27880   0.98260   0.01267  Uiso   1.00
H44    H     0.42950   0.36900   0.01910   0.01267  Uiso   1.00
H45    H     0.73560   0.32400   0.83140   0.01267  Uiso   1.00
H46    H     0.58400   0.34570   0.86890   0.01267  Uiso   1.00
H47    H     0.39190   0.17900   0.83280   0.01267  Uiso   1.00
H48    H     0.55860   0.15900   0.79650   0.01267  Uiso   1.00
H49    H     0.05740   0.29740   0.78430   0.01267  Uiso   1.00
H50    H     0.21410   0.30440   0.82220   0.01267  Uiso   1.00
H51    H     0.02590   0.16610   0.88120   0.01267  Uiso   1.00
H52    H     0.85930   0.17200   0.84260   0.01267  Uiso   1.00
H53    H     0.93680   0.16770   0.98750   0.01267  Uiso   1.00
H54    H     0.01630   0.25190   0.95190   0.01267  Uiso   1.00
H55    H     0.32910   0.13540   0.94360   0.01267  Uiso   1.00
H56    H     0.24070   0.05510   0.98150   0.01267  Uiso   1.00
H57    H     0.42410   0.23360   0.92160   0.01267  Uiso   1.00
H58    H     0.32420   0.33030   0.87290   0.01267  Uiso   1.00
H59    H     0.28140   0.18060   0.87970   0.01267  Uiso   1.00
H60    H     0.17620   0.29590   0.91750   0.01267  Uiso   1.00
H61    H     0.71040   0.41170   0.02510   0.01267  Uiso   1.00
H62    H     0.79920   0.33380   0.06300   0.01267  Uiso   1.00
H63    H     0.55980   0.40580   0.13220   0.01267  Uiso   1.00
H64    H     0.47970   0.47990   0.09250   0.01267  Uiso   1.00
H65    H     0.37450   0.22730   0.20090   0.01267  Uiso   1.00
H66    H     0.54080   0.23700   0.16270   0.01267  Uiso   1.00
H67    H     0.69340   0.38470   0.22170   0.01267  Uiso   1.00
H68    H     0.53850   0.36600   0.25970   0.01267  Uiso   1.00
H69    H     0.18710   0.36100   0.21190   0.01267  Uiso   1.00
H70    H     0.03420   0.35640   0.17240   0.01267  Uiso   1.00
H71    H     0.91680   0.17130   0.21250   0.01267  Uiso   1.00
H72    H     0.08480   0.17940   0.25020   0.01267  Uiso   1.00
H73    H     0.12410   0.15650   0.05450   0.01267  Uiso   1.00
H74    H     0.07960   0.24520   0.09370   0.01267  Uiso   1.00
H75    H     0.73590   0.16140   0.10340   0.01267  Uiso   1.00
H76    H     0.78900   0.07710   0.06530   0.01267  Uiso   1.00
H77    H     0.66950   0.26010   0.12380   0.01267  Uiso   1.00
H78    H     0.78480   0.36460   0.16670   0.01267  Uiso   1.00
H79    H     0.80650   0.21130   0.16610   0.01267  Uiso   1.00
H80    H     0.92410   0.31410   0.12230   0.01267  Uiso   1.00
H81    H     0.98240   0.99900   0.44330   0.01267  Uiso   1.00
H82    H     0.93490   0.08830   0.40500   0.01267  Uiso   1.00
H83    H     0.89210   0.22120   0.48260   0.01267  Uiso   1.00
H84    H     0.92950   0.13100   0.51910   0.01267  Uiso   1.00
H85    H     0.23560   0.17600   0.33140   0.01267  Uiso   1.00
H86    H     0.08400   0.15430   0.36890   0.01267  Uiso   1.00
H87    H     0.89190   0.32100   0.33280   0.01267  Uiso   1.00
H88    H     0.05860   0.34100   0.29650   0.01267  Uiso   1.00
H89    H     0.55740   0.20260   0.28430   0.01267  Uiso   1.00
H90    H     0.71410   0.19560   0.32220   0.01267  Uiso   1.00
H91    H     0.52590   0.33390   0.38120   0.01267  Uiso   1.00
H92    H     0.35930   0.32800   0.34260   0.01267  Uiso   1.00
H93    H     0.43680   0.33230   0.48750   0.01267  Uiso   1.00
H94    H     0.51630   0.24810   0.45190   0.01267  Uiso   1.00
H95    H     0.82910   0.36460   0.44360   0.01267  Uiso   1.00
H96    H     0.74070   0.44490   0.48150   0.01267  Uiso   1.00
H97    H     0.92410   0.26640   0.42160   0.01267  Uiso   1.00
H98    H     0.82420   0.16970   0.37290   0.01267  Uiso   1.00
H99    H     0.78140   0.31940   0.37970   0.01267  Uiso   1.00
H100   H     0.67620   0.20410   0.41750   0.01267  Uiso   1.00
H101   H     0.21040   0.08830   0.52510   0.01267  Uiso   1.00
H102   H     0.29920   0.16620   0.56300   0.01267  Uiso   1.00
H103   H     0.05980   0.09420   0.63220   0.01267  Uiso   1.00
H104   H     0.97970   0.02010   0.59250   0.01267  Uiso   1.00
H105   H     0.87450   0.27270   0.70090   0.01267  Uiso   1.00
H106   H     0.04080   0.26300   0.66270   0.01267  Uiso   1.00
H107   H     0.19340   0.11530   0.72170   0.01267  Uiso   1.00
H108   H     0.03850   0.13400   0.75970   0.01267  Uiso   1.00
H109   H     0.68710   0.13900   0.71190   0.01267  Uiso   1.00
H110   H     0.53420   0.14360   0.67240   0.01267  Uiso   1.00
H111   H     0.41680   0.32870   0.71250   0.01267  Uiso   1.00
H112   H     0.58480   0.32060   0.75020   0.01267  Uiso   1.00
H113   H     0.62410   0.34350   0.55450   0.01267  Uiso   1.00
H114   H     0.57960   0.25480   0.59370   0.01267  Uiso   1.00
H115   H     0.23590   0.33860   0.60340   0.01267  Uiso   1.00
H116   H     0.28900   0.42290   0.56530   0.01267  Uiso   1.00
H117   H     0.16950   0.23990   0.62380   0.01267  Uiso   1.00
H118   H     0.28480   0.13540   0.66670   0.01267  Uiso   1.00
H119   H     0.30650   0.28870   0.66610   0.01267  Uiso   1.00
H120   H     0.42410   0.18590   0.62230   0.01267  Uiso   1.00
H121   H     0.01760   0.00100   0.94330   0.01267  Uiso   1.00
H122   H     0.06510   0.91170   0.90500   0.01267  Uiso   1.00
H123   H     0.10790   0.77880   0.98260   0.01267  Uiso   1.00
H124   H     0.07050   0.86900   0.01910   0.01267  Uiso   1.00
H125   H     0.76440   0.82400   0.83140   0.01267  Uiso   1.00
H126   H     0.91600   0.84570   0.86890   0.01267  Uiso   1.00
H127   H     0.10810   0.67900   0.83280   0.01267  Uiso   1.00
H128   H     0.94140   0.65900   0.79650   0.01267  Uiso   1.00
H129   H     0.44260   0.79740   0.78430   0.01267  Uiso   1.00
H130   H     0.28590   0.80440   0.82220   0.01267  Uiso   1.00
H131   H     0.47410   0.66610   0.88120   0.01267  Uiso   1.00
H132   H     0.64070   0.67200   0.84260   0.01267  Uiso   1.00
H133   H     0.56320   0.66770   0.98750   0.01267  Uiso   1.00
H134   H     0.48370   0.75190   0.95190   0.01267  Uiso   1.00
H135   H     0.17090   0.63540   0.94360   0.01267  Uiso   1.00
H136   H     0.25930   0.55510   0.98150   0.01267  Uiso   1.00
H137   H     0.07590   0.73360   0.92160   0.01267  Uiso   1.00
H138   H     0.17580   0.83030   0.87290   0.01267  Uiso   1.00
H139   H     0.21860   0.68060   0.87970   0.01267  Uiso   1.00
H140   H     0.32380   0.79590   0.91750   0.01267  Uiso   1.00
H141   H     0.78960   0.91170   0.02510   0.01267  Uiso   1.00
H142   H     0.70080   0.83380   0.06300   0.01267  Uiso   1.00
H143   H     0.94020   0.90580   0.13220   0.01267  Uiso   1.00
H144   H     0.02030   0.97990   0.09250   0.01267  Uiso   1.00
H145   H     0.12550   0.72730   0.20090   0.01267  Uiso   1.00
H146   H     0.95920   0.73700   0.16270   0.01267  Uiso   1.00
H147   H     0.80660   0.88470   0.22170   0.01267  Uiso   1.00
H148   H     0.96150   0.86600   0.25970   0.01267  Uiso   1.00
H149   H     0.31290   0.86100   0.21190   0.01267  Uiso   1.00
H150   H     0.46580   0.85640   0.17240   0.01267  Uiso   1.00
H151   H     0.58320   0.67130   0.21250   0.01267  Uiso   1.00
H152   H     0.41520   0.67940   0.25020   0.01267  Uiso   1.00
H153   H     0.37590   0.65650   0.05450   0.01267  Uiso   1.00
H154   H     0.42040   0.74520   0.09370   0.01267  Uiso   1.00
H155   H     0.76410   0.66140   0.10340   0.01267  Uiso   1.00
H156   H     0.71100   0.57710   0.06530   0.01267  Uiso   1.00
H157   H     0.83050   0.76010   0.12380   0.01267  Uiso   1.00
H158   H     0.71520   0.86460   0.16670   0.01267  Uiso   1.00
H159   H     0.69350   0.71130   0.16610   0.01267  Uiso   1.00
H160   H     0.57590   0.81410   0.12230   0.01267  Uiso   1.00
C1     C     0.53740   0.54460   0.45120   0.01267  Uiso   1.00
C2     C     0.56540   0.59810   0.42820   0.01267  Uiso   1.00
C3     C     0.59350   0.66520   0.43960   0.01267  Uiso   1.00
C4     C     0.59160   0.67570   0.47410   0.01267  Uiso   1.00
C5     C     0.56710   0.62210   0.49589   0.01267  Uiso   1.00
C6     C     0.33500   0.70590   0.33160   0.01267  Uiso   1.00
C7     C     0.42550   0.69200   0.35360   0.01267  Uiso   1.00
C8     C     0.53810   0.73420   0.35423   0.01267  Uiso   1.00
C9     C     0.53920   0.78990   0.33290   0.01267  Uiso   1.00
C10    C     0.43830   0.80160   0.31100   0.01267  Uiso   1.00
C11    C     0.94980   0.72890   0.30430   0.01267  Uiso   1.00
C12    C     0.85500   0.72520   0.32650   0.01267  Uiso   1.00
C13    C     0.85920   0.76570   0.35602   0.01267  Uiso   1.00
C14    C     0.96700   0.80580   0.36170   0.01267  Uiso   1.00
C15    C     0.06570   0.80360   0.33790   0.01267  Uiso   1.00
C16    C     0.98220   0.83880   0.47870   0.01267  Uiso   1.00
C17    C     0.93610   0.78870   0.45690   0.01267  Uiso   1.00
C18    C     0.82040   0.79800   0.44238   0.01267  Uiso   1.00
C19    C     0.75190   0.85680   0.45210   0.01267  Uiso   1.00
C20    C     0.80580   0.90470   0.47510   0.01267  Uiso   1.00
C21    C     0.62880   0.72460   0.41647   0.01267  Uiso   1.00
C22    C     0.64230   0.71740   0.37820   0.01267  Uiso   1.00
C23    C     0.75260   0.77060   0.38012   0.01267  Uiso   1.00
C24    C     0.77120   0.74740   0.41715   0.01267  Uiso   1.00
C25    C     0.32100   0.59000   0.54720   0.01267  Uiso   1.00
C26    C     0.26860   0.63750   0.56970   0.01267  Uiso   1.00
C27    C     0.31550   0.64280   0.60153   0.01267  Uiso   1.00
C28    C     0.40860   0.59540   0.61010   0.01267  Uiso   1.00
C29    C     0.45440   0.55060   0.58630   0.01267  Uiso   1.00
C30    C     0.55900   0.74150   0.70560   0.01267  Uiso   1.00
C31    C     0.45920   0.73490   0.68228   0.01267  Uiso   1.00
C32    C     0.36430   0.68900   0.68759   0.01267  Uiso   1.00
C33    C     0.36900   0.64920   0.71719   0.01267  Uiso   1.00
C34    C     0.46340   0.65950   0.73940   0.01267  Uiso   1.00
C35    C     0.86650   0.67860   0.71154   0.01267  Uiso   1.00
C36    C     0.95910   0.68030   0.68830   0.01267  Uiso   1.00
C37    C     0.04690   0.73770   0.68790   0.01267  Uiso   1.00
C38    C     0.02850   0.78970   0.71150   0.01267  Uiso   1.00
C39    C     0.92670   0.78430   0.73430   0.01267  Uiso   1.00
C40    C     0.95540   0.84190   0.56470   0.01267  Uiso   1.00
C41    C     0.98210   0.78820   0.58790   0.01267  Uiso   1.00
C42    C     0.10100   0.78480   0.60220   0.01267  Uiso   1.00
C43    C     0.18390   0.83760   0.59350   0.01267  Uiso   1.00
C44    C     0.15110   0.88820   0.57090   0.01267  Uiso   1.00
C45    C     0.27380   0.69850   0.62591   0.01267  Uiso   1.00
C46    C     0.25520   0.68240   0.66394   0.01267  Uiso   1.00
C47    C     0.15200   0.74200   0.66360   0.01267  Uiso   1.00
C48    C     0.13450   0.72610   0.62536   0.01267  Uiso   1.00
C49    C     0.46260   0.45540   0.95120   0.01267  Uiso   1.00
C50    C     0.43460   0.40190   0.92820   0.01267  Uiso   1.00
C51    C     0.40650   0.33480   0.93960   0.01267  Uiso   1.00
C52    C     0.40840   0.32430   0.97410   0.01267  Uiso   1.00
C53    C     0.43290   0.37790   0.99589   0.01267  Uiso   1.00
C54    C     0.66500   0.29410   0.83160   0.01267  Uiso   1.00
C55    C     0.57450   0.30800   0.85360   0.01267  Uiso   1.00
C56    C     0.46190   0.26580   0.85423   0.01267  Uiso   1.00
C57    C     0.46080   0.21010   0.83290   0.01267  Uiso   1.00
C58    C     0.56170   0.19840   0.81100   0.01267  Uiso   1.00
C59    C     0.05020   0.27110   0.80430   0.01267  Uiso   1.00
C60    C     0.14500   0.27480   0.82650   0.01267  Uiso   1.00
C61    C     0.14080   0.23430   0.85602   0.01267  Uiso   1.00
C62    C     0.03300   0.19420   0.86170   0.01267  Uiso   1.00
C63    C     0.93430   0.19640   0.83790   0.01267  Uiso   1.00
C64    C     0.01780   0.16120   0.97870   0.01267  Uiso   1.00
C65    C     0.06390   0.21130   0.95690   0.01267  Uiso   1.00
C66    C     0.17960   0.20200   0.94238   0.01267  Uiso   1.00
C67    C     0.24810   0.14320   0.95210   0.01267  Uiso   1.00
C68    C     0.19420   0.09530   0.97510   0.01267  Uiso   1.00
C69    C     0.37120   0.27540   0.91647   0.01267  Uiso   1.00
C70    C     0.35770   0.28260   0.87820   0.01267  Uiso   1.00
C71    C     0.24740   0.22940   0.88012   0.01267  Uiso   1.00
C72    C     0.22880   0.25260   0.91715   0.01267  Uiso   1.00
C73    C     0.67900   0.41000   0.04720   0.01267  Uiso   1.00
C74    C     0.73140   0.36250   0.06970   0.01267  Uiso   1.00
C75    C     0.68450   0.35720   0.10153   0.01267  Uiso   1.00
C76    C     0.59140   0.40460   0.11010   0.01267  Uiso   1.00
C77    C     0.54560   0.44940   0.08630   0.01267  Uiso   1.00
C78    C     0.44100   0.25850   0.20560   0.01267  Uiso   1.00
C79    C     0.54080   0.26510   0.18228   0.01267  Uiso   1.00
C80    C     0.63570   0.31100   0.18759   0.01267  Uiso   1.00
C81    C     0.63100   0.35080   0.21719   0.01267  Uiso   1.00
C82    C     0.53660   0.34050   0.23940   0.01267  Uiso   1.00
C83    C     0.13350   0.32140   0.21154   0.01267  Uiso   1.00
C84    C     0.04090   0.31970   0.18830   0.01267  Uiso   1.00
C85    C     0.95310   0.26230   0.18790   0.01267  Uiso   1.00
C86    C     0.97150   0.21030   0.21150   0.01267  Uiso   1.00
C87    C     0.07330   0.21570   0.23430   0.01267  Uiso   1.00
C88    C     0.04460   0.15810   0.06470   0.01267  Uiso   1.00
C89    C     0.01790   0.21180   0.08790   0.01267  Uiso   1.00
C90    C     0.89900   0.21520   0.10220   0.01267  Uiso   1.00
C91    C     0.81610   0.16240   0.09350   0.01267  Uiso   1.00
C92    C     0.84890   0.11180   0.07090   0.01267  Uiso   1.00
C93    C     0.72620   0.30150   0.12591   0.01267  Uiso   1.00
C94    C     0.74480   0.31760   0.16394   0.01267  Uiso   1.00
C95    C     0.84800   0.25800   0.16360   0.01267  Uiso   1.00
C96    C     0.86550   0.27390   0.12536   0.01267  Uiso   1.00
C97    C     0.96260   0.04460   0.45120   0.01267  Uiso   1.00
C98    C     0.93460   0.09810   0.42820   0.01267  Uiso   1.00
C99    C     0.90650   0.16520   0.43960   0.01267  Uiso   1.00
C100   C     0.90840   0.17570   0.47410   0.01267  Uiso   1.00
C101   C     0.93290   0.12210   0.49589   0.01267  Uiso   1.00
C102   C     0.16500   0.20590   0.33160   0.01267  Uiso   1.00
C103   C     0.07450   0.19200   0.35360   0.01267  Uiso   1.00
C104   C     0.96190   0.23420   0.35423   0.01267  Uiso   1.00
C105   C     0.96080   0.28990   0.33290   0.01267  Uiso   1.00
C106   C     0.06170   0.30160   0.31100   0.01267  Uiso   1.00
C107   C     0.55020   0.22890   0.30430   0.01267  Uiso   1.00
C108   C     0.64500   0.22520   0.32650   0.01267  Uiso   1.00
C109   C     0.64080   0.26570   0.35602   0.01267  Uiso   1.00
C110   C     0.53300   0.30580   0.36170   0.01267  Uiso   1.00
C111   C     0.43430   0.30360   0.33790   0.01267  Uiso   1.00
C112   C     0.51780   0.33880   0.47870   0.01267  Uiso   1.00
C113   C     0.56390   0.28870   0.45690   0.01267  Uiso   1.00
C114   C     0.67960   0.29800   0.44238   0.01267  Uiso   1.00
C115   C     0.74810   0.35680   0.45210   0.01267  Uiso   1.00
C116   C     0.69420   0.40470   0.47510   0.01267  Uiso   1.00
C117   C     0.87120   0.22460   0.41647   0.01267  Uiso   1.00
C118   C     0.85770   0.21740   0.37820   0.01267  Uiso   1.00
C119   C     0.74740   0.27060   0.38012   0.01267  Uiso   1.00
C120   C     0.72880   0.24740   0.41715   0.01267  Uiso   1.00
C121   C     0.17900   0.09000   0.54720   0.01267  Uiso   1.00
C122   C     0.23140   0.13750   0.56970   0.01267  Uiso   1.00
C123   C     0.18450   0.14280   0.60153   0.01267  Uiso   1.00
C124   C     0.09140   0.09540   0.61010   0.01267  Uiso   1.00
C125   C     0.04560   0.05060   0.58630   0.01267  Uiso   1.00
C126   C     0.94100   0.24150   0.70560   0.01267  Uiso   1.00
C127   C     0.04080   0.23490   0.68228   0.01267  Uiso   1.00
C128   C     0.13570   0.18900   0.68759   0.01267  Uiso   1.00
C129   C     0.13100   0.14920   0.71719   0.01267  Uiso   1.00
C130   C     0.03660   0.15950   0.73940   0.01267  Uiso   1.00
C131   C     0.63350   0.17860   0.71154   0.01267  Uiso   1.00
C132   C     0.54090   0.18030   0.68830   0.01267  Uiso   1.00
C133   C     0.45310   0.23770   0.68790   0.01267  Uiso   1.00
C134   C     0.47150   0.28970   0.71150   0.01267  Uiso   1.00
C135   C     0.57330   0.28430   0.73430   0.01267  Uiso   1.00
C136   C     0.54460   0.34190   0.56470   0.01267  Uiso   1.00
C137   C     0.51790   0.28820   0.58790   0.01267  Uiso   1.00
C138   C     0.39900   0.28480   0.60220   0.01267  Uiso   1.00
C139   C     0.31610   0.33760   0.59350   0.01267  Uiso   1.00
C140   C     0.34890   0.38820   0.57090   0.01267  Uiso   1.00
C141   C     0.22620   0.19850   0.62591   0.01267  Uiso   1.00
C142   C     0.24480   0.18240   0.66394   0.01267  Uiso   1.00
C143   C     0.34800   0.24200   0.66360   0.01267  Uiso   1.00
C144   C     0.36550   0.22610   0.62536   0.01267  Uiso   1.00
C145   C     0.03740   0.95540   0.95120   0.01267  Uiso   1.00
C146   C     0.06540   0.90190   0.92820   0.01267  Uiso   1.00
C147   C     0.09350   0.83480   0.93960   0.01267  Uiso   1.00
C148   C     0.09160   0.82430   0.97410   0.01267  Uiso   1.00
C149   C     0.06710   0.87790   0.99589   0.01267  Uiso   1.00
C150   C     0.83500   0.79410   0.83160   0.01267  Uiso   1.00
C151   C     0.92550   0.80800   0.85360   0.01267  Uiso   1.00
C152   C     0.03810   0.76580   0.85423   0.01267  Uiso   1.00
C153   C     0.03920   0.71010   0.83290   0.01267  Uiso   1.00
C154   C     0.93830   0.69840   0.81100   0.01267  Uiso   1.00
C155   C     0.44980   0.77110   0.80430   0.01267  Uiso   1.00
C156   C     0.35500   0.77480   0.82650   0.01267  Uiso   1.00
C157   C     0.35920   0.73430   0.85602   0.01267  Uiso   1.00
C158   C     0.46700   0.69420   0.86170   0.01267  Uiso   1.00
C159   C     0.56570   0.69640   0.83790   0.01267  Uiso   1.00
C160   C     0.48220   0.66120   0.97870   0.01267  Uiso   1.00
C161   C     0.43610   0.71130   0.95690   0.01267  Uiso   1.00
C162   C     0.32040   0.70200   0.94238   0.01267  Uiso   1.00
C163   C     0.25190   0.64320   0.95210   0.01267  Uiso   1.00
C164   C     0.30580   0.59530   0.97510   0.01267  Uiso   1.00
C165   C     0.12880   0.77540   0.91647   0.01267  Uiso   1.00
C166   C     0.14230   0.78260   0.87820   0.01267  Uiso   1.00
C167   C     0.25260   0.72940   0.88012   0.01267  Uiso   1.00
C168   C     0.27120   0.75260   0.91715   0.01267  Uiso   1.00
C169   C     0.82100   0.91000   0.04720   0.01267  Uiso   1.00
C170   C     0.76860   0.86250   0.06970   0.01267  Uiso   1.00
C171   C     0.81550   0.85720   0.10153   0.01267  Uiso   1.00
C172   C     0.90860   0.90460   0.11010   0.01267  Uiso   1.00
C173   C     0.95440   0.94940   0.08630   0.01267  Uiso   1.00
C174   C     0.05900   0.75850   0.20560   0.01267  Uiso   1.00
C175   C     0.95920   0.76510   0.18228   0.01267  Uiso   1.00
C176   C     0.86430   0.81100   0.18759   0.01267  Uiso   1.00
C177   C     0.86900   0.85080   0.21719   0.01267  Uiso   1.00
C178   C     0.96340   0.84050   0.23940   0.01267  Uiso   1.00
C179   C     0.36650   0.82140   0.21154   0.01267  Uiso   1.00
C180   C     0.45910   0.81970   0.18830   0.01267  Uiso   1.00
C181   C     0.54690   0.76230   0.18790   0.01267  Uiso   1.00
C182   C     0.52850   0.71030   0.21150   0.01267  Uiso   1.00
C183   C     0.42670   0.71570   0.23430   0.01267  Uiso   1.00
C184   C     0.45540   0.65810   0.06470   0.01267  Uiso   1.00
C185   C     0.48210   0.71180   0.08790   0.01267  Uiso   1.00
C186   C     0.60100   0.71520   0.10220   0.01267  Uiso   1.00
C187   C     0.68390   0.66240   0.09350   0.01267  Uiso   1.00
C188   C     0.65110   0.61180   0.07090   0.01267  Uiso   1.00
C189   C     0.77380   0.80150   0.12591   0.01267  Uiso   1.00
C190   C     0.75520   0.81760   0.16394   0.01267  Uiso   1.00
C191   C     0.65200   0.75800   0.16360   0.01267  Uiso   1.00
C192   C     0.63450   0.77390   0.12536   0.01267  Uiso   1.00
N1     N     0.53830   0.55720   0.48522   0.01267  Uiso   1.00
N2     N     0.91820   0.89600   0.48807   0.01267  Uiso   1.00
N3     N     0.05540   0.76790   0.30888   0.01267  Uiso   1.00
N4     N     0.33780   0.75930   0.30987   0.01267  Uiso   1.00
N5     N     0.41330   0.54690   0.55550   0.01267  Uiso   1.00
N6     N     0.56030   0.70450   0.73402   0.01267  Uiso   1.00
N7     N     0.84690   0.73030   0.73412   0.01267  Uiso   1.00
N8     N     0.04200   0.89150   0.55669   0.01267  Uiso   1.00
N9     N     0.46170   0.44280   0.98522   0.01267  Uiso   1.00
N10    N     0.08180   0.10400   0.98807   0.01267  Uiso   1.00
N11    N     0.94460   0.23210   0.80888   0.01267  Uiso   1.00
N12    N     0.66220   0.24070   0.80987   0.01267  Uiso   1.00
N13    N     0.58670   0.45310   0.05550   0.01267  Uiso   1.00
N14    N     0.43970   0.29550   0.23402   0.01267  Uiso   1.00
N15    N     0.15310   0.26970   0.23412   0.01267  Uiso   1.00
N16    N     0.95800   0.10850   0.05669   0.01267  Uiso   1.00
N17    N     0.96170   0.05720   0.48522   0.01267  Uiso   1.00
N18    N     0.58180   0.39600   0.48807   0.01267  Uiso   1.00
N19    N     0.44460   0.26790   0.30888   0.01267  Uiso   1.00
N20    N     0.16220   0.25930   0.30987   0.01267  Uiso   1.00
N21    N     0.08670   0.04690   0.55550   0.01267  Uiso   1.00
N22    N     0.93970   0.20450   0.73402   0.01267  Uiso   1.00
N23    N     0.65310   0.23030   0.73412   0.01267  Uiso   1.00
N24    N     0.45800   0.39150   0.55669   0.01267  Uiso   1.00
N25    N     0.03830   0.94280   0.98522   0.01267  Uiso   1.00
N26    N     0.41820   0.60400   0.98807   0.01267  Uiso   1.00
N27    N     0.55540   0.73210   0.80888   0.01267  Uiso   1.00
N28    N     0.83780   0.74070   0.80987   0.01267  Uiso   1.00
N29    N     0.91330   0.95310   0.05550   0.01267  Uiso   1.00
N30    N     0.06030   0.79550   0.23402   0.01267  Uiso   1.00
N31    N     0.34690   0.76970   0.23412   0.01267  Uiso   1.00
N32    N     0.54200   0.60850   0.05669   0.01267  Uiso   1.00
O1     O     0.72130   0.61310   0.77650   0.01267  Uiso   1.00
O2     O     0.27870   0.38690   0.27650   0.01267  Uiso   1.00
O3     O     0.77870   0.11310   0.77650   0.01267  Uiso   1.00
O4     O     0.22130   0.88690   0.27650   0.01267  Uiso   1.00
Cl1    Cl    0.56420   0.79150   0.56001   0.01267  Uiso   1.00
O5     O     0.63600   0.72930   0.56070   0.01267  Uiso   1.00
O6     O     0.53880   0.80480   0.59450   0.01267  Uiso   1.00
O7     O     0.62200   0.85300   0.54840   0.01267  Uiso   1.00
O8     O     0.44040   0.77090   0.54600   0.01267  Uiso   1.00
Cl2    Cl    0.18920   0.37520   0.41769   0.01267  Uiso   1.00
O9     O     0.27300   0.31400   0.41070   0.01267  Uiso   1.00
O10    O     0.10310   0.36840   0.44280   0.01267  Uiso   1.00
O11    O     0.29500   0.41480   0.42860   0.01267  Uiso   1.00
O12    O     0.14300   0.40450   0.38830   0.01267  Uiso   1.00
Cl3    Cl    0.35430   0.51040   0.83890   0.01267  Uiso   1.00
O13    O     0.31900   0.44060   0.83130   0.01267  Uiso   1.00
O14    O     0.36400   0.54990   0.80990   0.01267  Uiso   1.00
O15    O     0.46200   0.51070   0.85950   0.01267  Uiso   1.00
O16    O     0.25200   0.53670   0.86030   0.01267  Uiso   1.00
Cl4    Cl    0.33720   0.95710   0.67920   0.01267  Uiso   1.00
O17    O     0.42500   0.00160   0.69400   0.01267  Uiso   1.00
O18    O     0.31600   0.99450   0.64540   0.01267  Uiso   1.00
O19    O     0.38300   0.89440   0.66760   0.01267  Uiso   1.00
O20    O     0.22420   0.95900   0.69450   0.01267  Uiso   1.00
Cl5    Cl    0.43580   0.20850   0.06001   0.01267  Uiso   1.00
O21    O     0.36400   0.27070   0.06070   0.01267  Uiso   1.00
O22    O     0.46120   0.19520   0.09450   0.01267  Uiso   1.00
O23    O     0.37800   0.14700   0.04840   0.01267  Uiso   1.00
O24    O     0.55960   0.22910   0.04600   0.01267  Uiso   1.00
Cl6    Cl    0.81080   0.62480   0.91769   0.01267  Uiso   1.00
O25    O     0.72700   0.68600   0.91070   0.01267  Uiso   1.00
O26    O     0.89690   0.63160   0.94280   0.01267  Uiso   1.00
O27    O     0.70500   0.58520   0.92860   0.01267  Uiso   1.00
O28    O     0.85700   0.59550   0.88830   0.01267  Uiso   1.00
Cl7    Cl    0.64570   0.48960   0.33890   0.01267  Uiso   1.00
O29    O     0.68100   0.55940   0.33130   0.01267  Uiso   1.00
O30    O     0.63600   0.45010   0.30990   0.01267  Uiso   1.00
O31    O     0.53800   0.48930   0.35950   0.01267  Uiso   1.00
O32    O     0.74800   0.46330   0.36030   0.01267  Uiso   1.00
Cl8    Cl    0.66280   0.04290   0.17920   0.01267  Uiso   1.00
O33    O     0.57500   0.99840   0.19400   0.01267  Uiso   1.00
O34    O     0.68400   0.00550   0.14540   0.01267  Uiso   1.00
O35    O     0.61700   0.10560   0.16760   0.01267  Uiso   1.00
O36    O     0.77580   0.04100   0.19450   0.01267  Uiso   1.00
Cl9    Cl    0.93580   0.29150   0.56001   0.01267  Uiso   1.00
O37    O     0.86400   0.22930   0.56070   0.01267  Uiso   1.00
O38    O     0.96120   0.30480   0.59450   0.01267  Uiso   1.00
O39    O     0.87800   0.35300   0.54840   0.01267  Uiso   1.00
O40    O     0.05960   0.27090   0.54600   0.01267  Uiso   1.00
Cl10   Cl    0.31080   0.87520   0.41769   0.01267  Uiso   1.00
O41    O     0.22700   0.81400   0.41070   0.01267  Uiso   1.00
O42    O     0.39690   0.86840   0.44280   0.01267  Uiso   1.00
O43    O     0.20500   0.91480   0.42860   0.01267  Uiso   1.00
O44    O     0.35700   0.90450   0.38830   0.01267  Uiso   1.00
Cl11   Cl    0.14570   0.01040   0.83890   0.01267  Uiso   1.00
O45    O     0.18100   0.94060   0.83130   0.01267  Uiso   1.00
O46    O     0.13600   0.04990   0.80990   0.01267  Uiso   1.00
O47    O     0.03800   0.01070   0.85950   0.01267  Uiso   1.00
O48    O     0.24800   0.03670   0.86030   0.01267  Uiso   1.00
Cl12   Cl    0.16280   0.45710   0.67920   0.01267  Uiso   1.00
O49    O     0.07500   0.50160   0.69400   0.01267  Uiso   1.00
O50    O     0.18400   0.49450   0.64540   0.01267  Uiso   1.00
O51    O     0.11700   0.39440   0.66760   0.01267  Uiso   1.00
O52    O     0.27580   0.45900   0.69450   0.01267  Uiso   1.00
Cl13   Cl    0.06420   0.70850   0.06001   0.01267  Uiso   1.00
O53    O     0.13600   0.77070   0.06070   0.01267  Uiso   1.00
O54    O     0.03880   0.69520   0.09450   0.01267  Uiso   1.00
O55    O     0.12200   0.64700   0.04840   0.01267  Uiso   1.00
O56    O     0.94040   0.72910   0.04600   0.01267  Uiso   1.00
Cl14   Cl    0.68920   0.12480   0.91769   0.01267  Uiso   1.00
O57    O     0.77300   0.18600   0.91070   0.01267  Uiso   1.00
O58    O     0.60310   0.13160   0.94280   0.01267  Uiso   1.00
O59    O     0.79500   0.08520   0.92860   0.01267  Uiso   1.00
O60    O     0.64300   0.09550   0.88830   0.01267  Uiso   1.00
Cl15   Cl    0.85430   0.98960   0.33890   0.01267  Uiso   1.00
O61    O     0.81900   0.05940   0.33130   0.01267  Uiso   1.00
O62    O     0.86400   0.95010   0.30990   0.01267  Uiso   1.00
O63    O     0.96200   0.98930   0.35950   0.01267  Uiso   1.00
O64    O     0.75200   0.96330   0.36030   0.01267  Uiso   1.00
Cl16   Cl    0.83720   0.54290   0.17920   0.01267  Uiso   1.00
O65    O     0.92500   0.49840   0.19400   0.01267  Uiso   1.00
O66    O     0.81600   0.50550   0.14540   0.01267  Uiso   1.00
O67    O     0.88300   0.60560   0.16760   0.01267  Uiso   1.00
O68    O     0.72420   0.54100   0.19450   0.01267  Uiso   1.00
