data_NABCIE_clean
_audit_creation_date              2014-07-02
_audit_creation_method            'Materials Studio'
_symmetry_space_group_name_H-M    'P1'
_symmetry_Int_Tables_number       1
_symmetry_cell_setting            triclinic
loop_
_symmetry_equiv_pos_as_xyz
  x,y,z
_cell_length_a                    8.3837
_cell_length_b                    8.3837
_cell_length_c                    16.8473
_cell_angle_alpha                 90.0000
_cell_angle_beta                  90.0000
_cell_angle_gamma                 90.0000
loop_
_atom_site_label
_atom_site_type_symbol
_atom_site_fract_x
_atom_site_fract_y
_atom_site_fract_z
_atom_site_U_iso_or_equiv
_atom_site_adp_type
_atom_site_occupancy
Co1    Co    0.50000   0.50000   0.75000   0.01267  Uiso   1.00
Co2    Co    0.50000   0.50000   0.25000   0.01267  Uiso   1.00
H1     H     0.53850   0.31140   0.91100   0.01267  Uiso   1.00
H2     H     0.39120   0.17220   0.00280   0.01267  Uiso   1.00
H3     H     0.99590   0.28720   0.87940   0.01267  Uiso   1.00
H4     H     0.15480   0.42630   0.79220   0.01267  Uiso   1.00
H5     H     0.10350   0.13210   0.06170   0.01267  Uiso   1.00
H6     H     0.46150   0.68860   0.91100   0.01267  Uiso   1.00
H7     H     0.60880   0.82780   0.00280   0.01267  Uiso   1.00
H8     H     0.00410   0.71280   0.87940   0.01267  Uiso   1.00
H9     H     0.84520   0.57370   0.79220   0.01267  Uiso   1.00
H10    H     0.89650   0.86790   0.06170   0.01267  Uiso   1.00
H11    H     0.31140   0.46150   0.08900   0.01267  Uiso   1.00
H12    H     0.17220   0.60880   0.99720   0.01267  Uiso   1.00
H13    H     0.28720   0.00410   0.12060   0.01267  Uiso   1.00
H14    H     0.42630   0.84520   0.20780   0.01267  Uiso   1.00
H15    H     0.13210   0.89650   0.93830   0.01267  Uiso   1.00
H16    H     0.68860   0.53850   0.08900   0.01267  Uiso   1.00
H17    H     0.82780   0.39120   0.99720   0.01267  Uiso   1.00
H18    H     0.71280   0.99590   0.12060   0.01267  Uiso   1.00
H19    H     0.57370   0.15480   0.20780   0.01267  Uiso   1.00
H20    H     0.86790   0.10350   0.93830   0.01267  Uiso   1.00
H21    H     0.53850   0.68860   0.41100   0.01267  Uiso   1.00
H22    H     0.39120   0.82780   0.50280   0.01267  Uiso   1.00
H23    H     0.99590   0.71280   0.37940   0.01267  Uiso   1.00
H24    H     0.15480   0.57370   0.29220   0.01267  Uiso   1.00
H25    H     0.10350   0.86790   0.56170   0.01267  Uiso   1.00
H26    H     0.46150   0.31140   0.41100   0.01267  Uiso   1.00
H27    H     0.60880   0.17220   0.50280   0.01267  Uiso   1.00
H28    H     0.00410   0.28720   0.37940   0.01267  Uiso   1.00
H29    H     0.84520   0.42630   0.29220   0.01267  Uiso   1.00
H30    H     0.89650   0.13210   0.56170   0.01267  Uiso   1.00
H31    H     0.31140   0.53850   0.58900   0.01267  Uiso   1.00
H32    H     0.17220   0.39120   0.49720   0.01267  Uiso   1.00
H33    H     0.28720   0.99590   0.62060   0.01267  Uiso   1.00
H34    H     0.42630   0.15480   0.70780   0.01267  Uiso   1.00
H35    H     0.13210   0.10350   0.43830   0.01267  Uiso   1.00
H36    H     0.68860   0.46150   0.58900   0.01267  Uiso   1.00
H37    H     0.82780   0.60880   0.49720   0.01267  Uiso   1.00
H38    H     0.71280   0.00410   0.62060   0.01267  Uiso   1.00
H39    H     0.57370   0.84520   0.70780   0.01267  Uiso   1.00
H40    H     0.86790   0.89650   0.43830   0.01267  Uiso   1.00
C1     C     0.42730   0.30550   0.90430   0.01267  Uiso   1.00
C2     C     0.33981   0.22100   0.95959   0.01267  Uiso   1.00
C3     C     0.17400   0.20823   0.95096   0.01267  Uiso   1.00
C4     C     0.10698   0.28900   0.88706   0.01267  Uiso   1.00
C5     C     0.20330   0.37220   0.83473   0.01267  Uiso   1.00
C6     C     0.08071   0.10296   0.00590   0.01267  Uiso   1.00
C7     C     0.57270   0.69450   0.90430   0.01267  Uiso   1.00
C8     C     0.66019   0.77900   0.95959   0.01267  Uiso   1.00
C9     C     0.82600   0.79177   0.95096   0.01267  Uiso   1.00
C10    C     0.89302   0.71100   0.88706   0.01267  Uiso   1.00
C11    C     0.79670   0.62780   0.83473   0.01267  Uiso   1.00
C12    C     0.91929   0.89704   0.00590   0.01267  Uiso   1.00
C13    C     0.30550   0.57270   0.09570   0.01267  Uiso   1.00
C14    C     0.22100   0.66019   0.04041   0.01267  Uiso   1.00
C15    C     0.20823   0.82600   0.04904   0.01267  Uiso   1.00
C16    C     0.28900   0.89302   0.11294   0.01267  Uiso   1.00
C17    C     0.37220   0.79670   0.16527   0.01267  Uiso   1.00
C18    C     0.10296   0.91929   0.99410   0.01267  Uiso   1.00
C19    C     0.69450   0.42730   0.09570   0.01267  Uiso   1.00
C20    C     0.77900   0.33981   0.04041   0.01267  Uiso   1.00
C21    C     0.79177   0.17400   0.04904   0.01267  Uiso   1.00
C22    C     0.71100   0.10698   0.11294   0.01267  Uiso   1.00
C23    C     0.62780   0.20330   0.16527   0.01267  Uiso   1.00
C24    C     0.89704   0.08071   0.99410   0.01267  Uiso   1.00
C25    C     0.42730   0.69450   0.40430   0.01267  Uiso   1.00
C26    C     0.33981   0.77900   0.45959   0.01267  Uiso   1.00
C27    C     0.17400   0.79177   0.45096   0.01267  Uiso   1.00
C28    C     0.10698   0.71100   0.38706   0.01267  Uiso   1.00
C29    C     0.20330   0.62780   0.33473   0.01267  Uiso   1.00
C30    C     0.08071   0.89704   0.50590   0.01267  Uiso   1.00
C31    C     0.57270   0.30550   0.40430   0.01267  Uiso   1.00
C32    C     0.66019   0.22100   0.45959   0.01267  Uiso   1.00
C33    C     0.82600   0.20823   0.45096   0.01267  Uiso   1.00
C34    C     0.89302   0.28900   0.38706   0.01267  Uiso   1.00
C35    C     0.79670   0.37220   0.33473   0.01267  Uiso   1.00
C36    C     0.91929   0.10296   0.50590   0.01267  Uiso   1.00
C37    C     0.30550   0.42730   0.59570   0.01267  Uiso   1.00
C38    C     0.22100   0.33981   0.54041   0.01267  Uiso   1.00
C39    C     0.20823   0.17400   0.54904   0.01267  Uiso   1.00
C40    C     0.28900   0.10698   0.61294   0.01267  Uiso   1.00
C41    C     0.37220   0.20330   0.66527   0.01267  Uiso   1.00
C42    C     0.10296   0.08071   0.49410   0.01267  Uiso   1.00
C43    C     0.69450   0.57270   0.59570   0.01267  Uiso   1.00
C44    C     0.77900   0.66019   0.54041   0.01267  Uiso   1.00
C45    C     0.79177   0.82600   0.54904   0.01267  Uiso   1.00
C46    C     0.71100   0.89302   0.61294   0.01267  Uiso   1.00
C47    C     0.62780   0.79670   0.66527   0.01267  Uiso   1.00
C48    C     0.89704   0.91929   0.49410   0.01267  Uiso   1.00
N1     N     0.36241   0.37952   0.84177   0.01267  Uiso   1.00
N2     N     0.63759   0.62048   0.84177   0.01267  Uiso   1.00
N3     N     0.37952   0.63759   0.15823   0.01267  Uiso   1.00
N4     N     0.62048   0.36241   0.15823   0.01267  Uiso   1.00
N5     N     0.36241   0.62048   0.34177   0.01267  Uiso   1.00
N6     N     0.63759   0.37952   0.34177   0.01267  Uiso   1.00
N7     N     0.37952   0.36241   0.65823   0.01267  Uiso   1.00
N8     N     0.62048   0.63759   0.65823   0.01267  Uiso   1.00
F1     F     0.33254   0.66746   0.75000   0.01267  Uiso   1.00
F2     F     0.66746   0.33254   0.75000   0.01267  Uiso   1.00
F3     F     0.66746   0.66746   0.25000   0.01267  Uiso   1.00
F4     F     0.33254   0.33254   0.25000   0.01267  Uiso   1.00
