data_NABNUA_clean
_audit_creation_date              2014-07-02
_audit_creation_method            'Materials Studio'
_symmetry_space_group_name_H-M    'P1'
_symmetry_Int_Tables_number       1
_symmetry_cell_setting            triclinic
loop_
_symmetry_equiv_pos_as_xyz
  x,y,z
_cell_length_a                    9.8976
_cell_length_b                    14.5822
_cell_length_c                    26.5732
_cell_angle_alpha                 90.0000
_cell_angle_beta                  91.9300
_cell_angle_gamma                 90.0000
loop_
_atom_site_label
_atom_site_type_symbol
_atom_site_fract_x
_atom_site_fract_y
_atom_site_fract_z
_atom_site_U_iso_or_equiv
_atom_site_adp_type
_atom_site_occupancy
Cd1    Cd    0.77801   0.87467   0.55439   0.01267  Uiso   1.00
Cd2    Cd    0.79484   0.63106   0.58444   0.01267  Uiso   1.00
Cd3    Cd    0.72199   0.37467   0.94561   0.01267  Uiso   1.00
Cd4    Cd    0.70516   0.13106   0.91556   0.01267  Uiso   1.00
Cd5    Cd    0.22199   0.12533   0.44561   0.01267  Uiso   1.00
Cd6    Cd    0.20516   0.36894   0.41556   0.01267  Uiso   1.00
Cd7    Cd    0.27801   0.62533   0.05439   0.01267  Uiso   1.00
Cd8    Cd    0.29484   0.86894   0.08444   0.01267  Uiso   1.00
H1     H     0.06860   0.61720   0.51400   0.01267  Uiso   1.00
H2     H     0.47590   0.62050   0.50570   0.01267  Uiso   1.00
H3     H     0.28190   0.83790   0.56410   0.01267  Uiso   1.00
H4     H     0.78090   0.74210   0.45930   0.01267  Uiso   1.00
H5     H     0.73230   0.73640   0.37340   0.01267  Uiso   1.00
H6     H     0.68500   0.00900   0.37220   0.01267  Uiso   1.00
H7     H     0.72880   0.00890   0.45840   0.01267  Uiso   1.00
H8     H     0.63180   0.92410   0.29680   0.01267  Uiso   1.00
H9     H     0.59310   0.81880   0.30350   0.01267  Uiso   1.00
H10    H     0.74140   0.83030   0.24050   0.01267  Uiso   1.00
H11    H     0.81380   0.77680   0.28640   0.01267  Uiso   1.00
H12    H     0.85450   0.96580   0.27160   0.01267  Uiso   1.00
H13    H     0.94130   0.89990   0.30810   0.01267  Uiso   1.00
H14    H     0.00140   0.88420   0.11200   0.01267  Uiso   1.00
H15    H     0.85100   0.90160   0.17440   0.01267  Uiso   1.00
H16    H     0.16570   0.87290   0.27580   0.01267  Uiso   1.00
H17    H     0.30590   0.85190   0.20910   0.01267  Uiso   1.00
H18    H     0.57660   0.88560   0.64740   0.01267  Uiso   1.00
H19    H     0.56990   0.90440   0.73340   0.01267  Uiso   1.00
H20    H     0.97630   0.87630   0.74130   0.01267  Uiso   1.00
H21    H     0.97340   0.86320   0.65450   0.01267  Uiso   1.00
H22    H     0.85780   0.92730   0.81720   0.01267  Uiso   1.00
H23    H     0.69720   0.94220   0.81410   0.01267  Uiso   1.00
H24    H     0.66590   0.77900   0.81340   0.01267  Uiso   1.00
H25    H     0.82630   0.76530   0.81790   0.01267  Uiso   1.00
H26    H     0.66480   0.84530   0.89450   0.01267  Uiso   1.00
H27    H     0.82660   0.84220   0.89870   0.01267  Uiso   1.00
H28    H     0.92210   0.54150   0.94320   0.01267  Uiso   1.00
H29    H     0.94190   0.69400   0.91600   0.01267  Uiso   1.00
H30    H     0.53340   0.70430   0.90630   0.01267  Uiso   1.00
H31    H     0.52880   0.55370   0.93160   0.01267  Uiso   1.00
H32    H     0.43140   0.11720   0.98600   0.01267  Uiso   1.00
H33    H     0.02410   0.12050   0.99430   0.01267  Uiso   1.00
H34    H     0.21810   0.33790   0.93590   0.01267  Uiso   1.00
H35    H     0.71910   0.24210   0.04070   0.01267  Uiso   1.00
H36    H     0.76770   0.23640   0.12660   0.01267  Uiso   1.00
H37    H     0.81500   0.50900   0.12780   0.01267  Uiso   1.00
H38    H     0.77120   0.50890   0.04160   0.01267  Uiso   1.00
H39    H     0.86820   0.42410   0.20320   0.01267  Uiso   1.00
H40    H     0.90690   0.31880   0.19650   0.01267  Uiso   1.00
H41    H     0.75860   0.33030   0.25950   0.01267  Uiso   1.00
H42    H     0.68620   0.27680   0.21360   0.01267  Uiso   1.00
H43    H     0.64550   0.46580   0.22840   0.01267  Uiso   1.00
H44    H     0.55870   0.39990   0.19190   0.01267  Uiso   1.00
H45    H     0.49860   0.38420   0.38800   0.01267  Uiso   1.00
H46    H     0.64900   0.40160   0.32560   0.01267  Uiso   1.00
H47    H     0.33430   0.37290   0.22420   0.01267  Uiso   1.00
H48    H     0.19410   0.35190   0.29090   0.01267  Uiso   1.00
H49    H     0.92340   0.38560   0.85260   0.01267  Uiso   1.00
H50    H     0.93010   0.40440   0.76660   0.01267  Uiso   1.00
H51    H     0.52370   0.37630   0.75870   0.01267  Uiso   1.00
H52    H     0.52660   0.36320   0.84550   0.01267  Uiso   1.00
H53    H     0.64220   0.42730   0.68280   0.01267  Uiso   1.00
H54    H     0.80280   0.44220   0.68590   0.01267  Uiso   1.00
H55    H     0.83410   0.27900   0.68660   0.01267  Uiso   1.00
H56    H     0.67370   0.26530   0.68210   0.01267  Uiso   1.00
H57    H     0.83520   0.34530   0.60550   0.01267  Uiso   1.00
H58    H     0.67340   0.34220   0.60130   0.01267  Uiso   1.00
H59    H     0.57790   0.04150   0.55680   0.01267  Uiso   1.00
H60    H     0.55810   0.19400   0.58400   0.01267  Uiso   1.00
H61    H     0.96660   0.20430   0.59370   0.01267  Uiso   1.00
H62    H     0.97120   0.05370   0.56840   0.01267  Uiso   1.00
H63    H     0.93140   0.38280   0.48600   0.01267  Uiso   1.00
H64    H     0.52410   0.37950   0.49430   0.01267  Uiso   1.00
H65    H     0.71810   0.16210   0.43590   0.01267  Uiso   1.00
H66    H     0.21910   0.25790   0.54070   0.01267  Uiso   1.00
H67    H     0.26770   0.26360   0.62660   0.01267  Uiso   1.00
H68    H     0.31500   0.99100   0.62780   0.01267  Uiso   1.00
H69    H     0.27120   0.99110   0.54160   0.01267  Uiso   1.00
H70    H     0.36820   0.07590   0.70320   0.01267  Uiso   1.00
H71    H     0.40690   0.18120   0.69650   0.01267  Uiso   1.00
H72    H     0.25860   0.16970   0.75950   0.01267  Uiso   1.00
H73    H     0.18620   0.22320   0.71360   0.01267  Uiso   1.00
H74    H     0.14550   0.03420   0.72840   0.01267  Uiso   1.00
H75    H     0.05870   0.10010   0.69190   0.01267  Uiso   1.00
H76    H     0.99860   0.11580   0.88800   0.01267  Uiso   1.00
H77    H     0.14900   0.09840   0.82560   0.01267  Uiso   1.00
H78    H     0.83430   0.12710   0.72420   0.01267  Uiso   1.00
H79    H     0.69410   0.14810   0.79090   0.01267  Uiso   1.00
H80    H     0.42340   0.11440   0.35260   0.01267  Uiso   1.00
H81    H     0.43010   0.09560   0.26660   0.01267  Uiso   1.00
H82    H     0.02370   0.12370   0.25870   0.01267  Uiso   1.00
H83    H     0.02660   0.13680   0.34550   0.01267  Uiso   1.00
H84    H     0.14220   0.07270   0.18280   0.01267  Uiso   1.00
H85    H     0.30280   0.05780   0.18590   0.01267  Uiso   1.00
H86    H     0.33410   0.22100   0.18660   0.01267  Uiso   1.00
H87    H     0.17370   0.23470   0.18210   0.01267  Uiso   1.00
H88    H     0.33520   0.15470   0.10550   0.01267  Uiso   1.00
H89    H     0.17340   0.15780   0.10130   0.01267  Uiso   1.00
H90    H     0.07790   0.45850   0.05680   0.01267  Uiso   1.00
H91    H     0.05810   0.30600   0.08400   0.01267  Uiso   1.00
H92    H     0.46660   0.29570   0.09370   0.01267  Uiso   1.00
H93    H     0.47120   0.44630   0.06840   0.01267  Uiso   1.00
H94    H     0.56860   0.88280   0.01400   0.01267  Uiso   1.00
H95    H     0.97590   0.87950   0.00570   0.01267  Uiso   1.00
H96    H     0.78190   0.66210   0.06410   0.01267  Uiso   1.00
H97    H     0.28090   0.75790   0.95930   0.01267  Uiso   1.00
H98    H     0.23230   0.76360   0.87340   0.01267  Uiso   1.00
H99    H     0.18500   0.49100   0.87220   0.01267  Uiso   1.00
H100   H     0.22880   0.49110   0.95840   0.01267  Uiso   1.00
H101   H     0.13180   0.57590   0.79680   0.01267  Uiso   1.00
H102   H     0.09310   0.68120   0.80350   0.01267  Uiso   1.00
H103   H     0.24140   0.66970   0.74050   0.01267  Uiso   1.00
H104   H     0.31380   0.72320   0.78640   0.01267  Uiso   1.00
H105   H     0.35450   0.53420   0.77160   0.01267  Uiso   1.00
H106   H     0.44130   0.60010   0.80810   0.01267  Uiso   1.00
H107   H     0.50140   0.61580   0.61200   0.01267  Uiso   1.00
H108   H     0.35100   0.59840   0.67440   0.01267  Uiso   1.00
H109   H     0.66570   0.62710   0.77580   0.01267  Uiso   1.00
H110   H     0.80590   0.64810   0.70910   0.01267  Uiso   1.00
H111   H     0.07660   0.61440   0.14740   0.01267  Uiso   1.00
H112   H     0.06990   0.59560   0.23340   0.01267  Uiso   1.00
H113   H     0.47630   0.62370   0.24130   0.01267  Uiso   1.00
H114   H     0.47340   0.63680   0.15450   0.01267  Uiso   1.00
H115   H     0.35780   0.57270   0.31720   0.01267  Uiso   1.00
H116   H     0.19720   0.55780   0.31410   0.01267  Uiso   1.00
H117   H     0.16590   0.72100   0.31340   0.01267  Uiso   1.00
H118   H     0.32630   0.73470   0.31790   0.01267  Uiso   1.00
H119   H     0.16480   0.65470   0.39450   0.01267  Uiso   1.00
H120   H     0.32660   0.65780   0.39870   0.01267  Uiso   1.00
H121   H     0.42210   0.95850   0.44320   0.01267  Uiso   1.00
H122   H     0.44190   0.80600   0.41600   0.01267  Uiso   1.00
H123   H     0.03340   0.79570   0.40630   0.01267  Uiso   1.00
H124   H     0.02880   0.94630   0.43160   0.01267  Uiso   1.00
C1     C     0.15510   0.73570   0.54120   0.01267  Uiso   1.00
C2     C     0.15220   0.64820   0.51920   0.01267  Uiso   1.00
C3     C     0.27250   0.60660   0.50500   0.01267  Uiso   1.00
C4     C     0.39400   0.64930   0.51470   0.01267  Uiso   1.00
C5     C     0.39670   0.73550   0.53780   0.01267  Uiso   1.00
C6     C     0.27880   0.77830   0.54970   0.01267  Uiso   1.00
C7     C     0.02790   0.78540   0.55110   0.01267  Uiso   1.00
C8     C     0.26550   0.51790   0.47510   0.01267  Uiso   1.00
C9     C     0.53060   0.78150   0.54720   0.01267  Uiso   1.00
C10    C     0.76040   0.79730   0.44160   0.01267  Uiso   1.00
C11    C     0.73130   0.79390   0.39020   0.01267  Uiso   1.00
C12    C     0.70150   0.87060   0.36370   0.01267  Uiso   1.00
C13    C     0.70290   0.95300   0.38940   0.01267  Uiso   1.00
C14    C     0.73090   0.95210   0.44090   0.01267  Uiso   1.00
C15    C     0.66710   0.86390   0.30830   0.01267  Uiso   1.00
C16    C     0.77850   0.83730   0.27540   0.01267  Uiso   1.00
C17    C     0.89240   0.90320   0.27500   0.01267  Uiso   1.00
C18    C     0.03410   0.88100   0.14590   0.01267  Uiso   1.00
C19    C     0.94430   0.89220   0.18230   0.01267  Uiso   1.00
C20    C     0.99460   0.88960   0.23400   0.01267  Uiso   1.00
C21    C     0.12900   0.87490   0.24230   0.01267  Uiso   1.00
C22    C     0.21240   0.86260   0.20220   0.01267  Uiso   1.00
C23    C     0.65910   0.88470   0.66670   0.01267  Uiso   1.00
C24    C     0.65450   0.89550   0.71820   0.01267  Uiso   1.00
C25    C     0.77270   0.89360   0.74830   0.01267  Uiso   1.00
C26    C     0.89260   0.87970   0.72280   0.01267  Uiso   1.00
C27    C     0.89040   0.87090   0.67090   0.01267  Uiso   1.00
C28    C     0.77130   0.90090   0.80430   0.01267  Uiso   1.00
C29    C     0.75110   0.80590   0.82730   0.01267  Uiso   1.00
C30    C     0.74550   0.81010   0.88480   0.01267  Uiso   1.00
C31    C     0.84200   0.57490   0.93500   0.01267  Uiso   1.00
C32    C     0.85550   0.66650   0.91870   0.01267  Uiso   1.00
C33    C     0.73930   0.71440   0.90670   0.01267  Uiso   1.00
C34    C     0.61550   0.67200   0.91280   0.01267  Uiso   1.00
C35    C     0.61430   0.58240   0.92850   0.01267  Uiso   1.00
C36    C     0.34490   0.23570   0.95880   0.01267  Uiso   1.00
C37    C     0.34780   0.14820   0.98080   0.01267  Uiso   1.00
C38    C     0.22750   0.10660   0.99500   0.01267  Uiso   1.00
C39    C     0.10600   0.14930   0.98530   0.01267  Uiso   1.00
C40    C     0.10330   0.23550   0.96220   0.01267  Uiso   1.00
C41    C     0.22120   0.27830   0.95030   0.01267  Uiso   1.00
C42    C     0.47210   0.28540   0.94890   0.01267  Uiso   1.00
C43    C     0.23450   0.01790   0.02490   0.01267  Uiso   1.00
C44    C     0.96940   0.28150   0.95280   0.01267  Uiso   1.00
C45    C     0.73960   0.29730   0.05840   0.01267  Uiso   1.00
C46    C     0.76870   0.29390   0.10980   0.01267  Uiso   1.00
C47    C     0.79850   0.37060   0.13630   0.01267  Uiso   1.00
C48    C     0.79710   0.45300   0.11060   0.01267  Uiso   1.00
C49    C     0.76910   0.45210   0.05910   0.01267  Uiso   1.00
C50    C     0.83290   0.36390   0.19170   0.01267  Uiso   1.00
C51    C     0.72150   0.33730   0.22460   0.01267  Uiso   1.00
C52    C     0.60760   0.40320   0.22500   0.01267  Uiso   1.00
C53    C     0.46590   0.38100   0.35410   0.01267  Uiso   1.00
C54    C     0.55570   0.39220   0.31770   0.01267  Uiso   1.00
C55    C     0.50540   0.38960   0.26600   0.01267  Uiso   1.00
C56    C     0.37100   0.37490   0.25770   0.01267  Uiso   1.00
C57    C     0.28760   0.36260   0.29780   0.01267  Uiso   1.00
C58    C     0.84090   0.38470   0.83330   0.01267  Uiso   1.00
C59    C     0.84550   0.39550   0.78180   0.01267  Uiso   1.00
C60    C     0.72730   0.39360   0.75170   0.01267  Uiso   1.00
C61    C     0.60740   0.37970   0.77720   0.01267  Uiso   1.00
C62    C     0.60960   0.37090   0.82910   0.01267  Uiso   1.00
C63    C     0.72870   0.40090   0.69570   0.01267  Uiso   1.00
C64    C     0.74890   0.30590   0.67270   0.01267  Uiso   1.00
C65    C     0.75450   0.31010   0.61520   0.01267  Uiso   1.00
C66    C     0.65800   0.07490   0.56500   0.01267  Uiso   1.00
C67    C     0.64450   0.16650   0.58130   0.01267  Uiso   1.00
C68    C     0.76070   0.21440   0.59330   0.01267  Uiso   1.00
C69    C     0.88450   0.17200   0.58720   0.01267  Uiso   1.00
C70    C     0.88570   0.08240   0.57150   0.01267  Uiso   1.00
C71    C     0.84490   0.26430   0.45880   0.01267  Uiso   1.00
C72    C     0.84780   0.35180   0.48080   0.01267  Uiso   1.00
C73    C     0.72750   0.39340   0.49500   0.01267  Uiso   1.00
C74    C     0.60600   0.35070   0.48530   0.01267  Uiso   1.00
C75    C     0.60330   0.26450   0.46220   0.01267  Uiso   1.00
C76    C     0.72120   0.22170   0.45030   0.01267  Uiso   1.00
C77    C     0.97210   0.21460   0.44890   0.01267  Uiso   1.00
C78    C     0.73450   0.48210   0.52490   0.01267  Uiso   1.00
C79    C     0.46940   0.21850   0.45280   0.01267  Uiso   1.00
C80    C     0.23960   0.20270   0.55840   0.01267  Uiso   1.00
C81    C     0.26870   0.20610   0.60980   0.01267  Uiso   1.00
C82    C     0.29850   0.12940   0.63630   0.01267  Uiso   1.00
C83    C     0.29710   0.04700   0.61060   0.01267  Uiso   1.00
C84    C     0.26910   0.04790   0.55910   0.01267  Uiso   1.00
C85    C     0.33290   0.13610   0.69170   0.01267  Uiso   1.00
C86    C     0.22150   0.16270   0.72460   0.01267  Uiso   1.00
C87    C     0.10760   0.09680   0.72500   0.01267  Uiso   1.00
C88    C     0.96590   0.11900   0.85410   0.01267  Uiso   1.00
C89    C     0.05570   0.10780   0.81770   0.01267  Uiso   1.00
C90    C     0.00540   0.11040   0.76600   0.01267  Uiso   1.00
C91    C     0.87100   0.12510   0.75770   0.01267  Uiso   1.00
C92    C     0.78760   0.13740   0.79780   0.01267  Uiso   1.00
C93    C     0.34090   0.11530   0.33330   0.01267  Uiso   1.00
C94    C     0.34550   0.10450   0.28180   0.01267  Uiso   1.00
C95    C     0.22730   0.10640   0.25170   0.01267  Uiso   1.00
C96    C     0.10740   0.12030   0.27720   0.01267  Uiso   1.00
C97    C     0.10960   0.12910   0.32910   0.01267  Uiso   1.00
C98    C     0.22870   0.09910   0.19570   0.01267  Uiso   1.00
C99    C     0.24890   0.19410   0.17270   0.01267  Uiso   1.00
C100   C     0.25450   0.18990   0.11520   0.01267  Uiso   1.00
C101   C     0.15800   0.42510   0.06500   0.01267  Uiso   1.00
C102   C     0.14450   0.33350   0.08130   0.01267  Uiso   1.00
C103   C     0.26070   0.28560   0.09330   0.01267  Uiso   1.00
C104   C     0.38450   0.32800   0.08720   0.01267  Uiso   1.00
C105   C     0.38570   0.41760   0.07150   0.01267  Uiso   1.00
C106   C     0.65510   0.76430   0.04120   0.01267  Uiso   1.00
C107   C     0.65220   0.85180   0.01920   0.01267  Uiso   1.00
C108   C     0.77250   0.89340   0.00500   0.01267  Uiso   1.00
C109   C     0.89400   0.85070   0.01470   0.01267  Uiso   1.00
C110   C     0.89670   0.76450   0.03780   0.01267  Uiso   1.00
C111   C     0.77880   0.72170   0.04970   0.01267  Uiso   1.00
C112   C     0.52790   0.71460   0.05110   0.01267  Uiso   1.00
C113   C     0.76550   0.98210   0.97510   0.01267  Uiso   1.00
C114   C     0.03060   0.71850   0.04720   0.01267  Uiso   1.00
C115   C     0.26040   0.70270   0.94160   0.01267  Uiso   1.00
C116   C     0.23130   0.70610   0.89020   0.01267  Uiso   1.00
C117   C     0.20150   0.62940   0.86370   0.01267  Uiso   1.00
C118   C     0.20290   0.54700   0.88940   0.01267  Uiso   1.00
C119   C     0.23090   0.54790   0.94090   0.01267  Uiso   1.00
C120   C     0.16710   0.63610   0.80830   0.01267  Uiso   1.00
C121   C     0.27850   0.66270   0.77540   0.01267  Uiso   1.00
C122   C     0.39240   0.59680   0.77500   0.01267  Uiso   1.00
C123   C     0.53410   0.61900   0.64590   0.01267  Uiso   1.00
C124   C     0.44430   0.60780   0.68230   0.01267  Uiso   1.00
C125   C     0.49460   0.61040   0.73400   0.01267  Uiso   1.00
C126   C     0.62900   0.62510   0.74230   0.01267  Uiso   1.00
C127   C     0.71240   0.63740   0.70220   0.01267  Uiso   1.00
C128   C     0.15910   0.61530   0.16670   0.01267  Uiso   1.00
C129   C     0.15450   0.60450   0.21820   0.01267  Uiso   1.00
C130   C     0.27270   0.60640   0.24830   0.01267  Uiso   1.00
C131   C     0.39260   0.62030   0.22280   0.01267  Uiso   1.00
C132   C     0.39040   0.62910   0.17090   0.01267  Uiso   1.00
C133   C     0.27130   0.59910   0.30430   0.01267  Uiso   1.00
C134   C     0.25110   0.69410   0.32730   0.01267  Uiso   1.00
C135   C     0.24550   0.68990   0.38480   0.01267  Uiso   1.00
C136   C     0.34200   0.92510   0.43500   0.01267  Uiso   1.00
C137   C     0.35550   0.83350   0.41870   0.01267  Uiso   1.00
C138   C     0.23930   0.78560   0.40670   0.01267  Uiso   1.00
C139   C     0.11550   0.82800   0.41280   0.01267  Uiso   1.00
C140   C     0.11430   0.91760   0.42850   0.01267  Uiso   1.00
N1     N     0.76010   0.87760   0.46700   0.01267  Uiso   1.00
N2     N     0.16870   0.86510   0.15430   0.01267  Uiso   1.00
N3     N     0.77430   0.87300   0.64290   0.01267  Uiso   1.00
N4     N     0.72420   0.53270   0.93960   0.01267  Uiso   1.00
N5     N     0.73990   0.37760   0.03300   0.01267  Uiso   1.00
N6     N     0.33130   0.36510   0.34570   0.01267  Uiso   1.00
N7     N     0.72570   0.37300   0.85710   0.01267  Uiso   1.00
N8     N     0.77580   0.03270   0.56040   0.01267  Uiso   1.00
N9     N     0.23990   0.12240   0.53300   0.01267  Uiso   1.00
N10    N     0.83130   0.13490   0.84570   0.01267  Uiso   1.00
N11    N     0.22570   0.12700   0.35710   0.01267  Uiso   1.00
N12    N     0.27580   0.46730   0.06040   0.01267  Uiso   1.00
N13    N     0.26010   0.62240   0.96700   0.01267  Uiso   1.00
N14    N     0.66870   0.63490   0.65430   0.01267  Uiso   1.00
N15    N     0.27430   0.62700   0.14290   0.01267  Uiso   1.00
N16    N     0.22420   0.96730   0.43960   0.01267  Uiso   1.00
O1     O     0.03050   0.86970   0.55920   0.01267  Uiso   1.00
O2     O     0.91550   0.74170   0.54910   0.01267  Uiso   1.00
O3     O     0.16100   0.46840   0.47870   0.01267  Uiso   1.00
O4     O     0.35940   0.49800   0.44640   0.01267  Uiso   1.00
O5     O     0.53340   0.86810   0.55380   0.01267  Uiso   1.00
O6     O     0.63910   0.73550   0.54790   0.01267  Uiso   1.00
O7     O     0.46950   0.36970   0.94080   0.01267  Uiso   1.00
O8     O     0.58450   0.24170   0.95090   0.01267  Uiso   1.00
O9     O     0.33900   0.96840   0.02130   0.01267  Uiso   1.00
O10    O     0.14060   0.99800   0.05360   0.01267  Uiso   1.00
O11    O     0.96660   0.36810   0.94620   0.01267  Uiso   1.00
O12    O     0.86090   0.23550   0.95210   0.01267  Uiso   1.00
O13    O     0.96950   0.13030   0.44080   0.01267  Uiso   1.00
O14    O     0.08450   0.25830   0.45090   0.01267  Uiso   1.00
O15    O     0.83900   0.53160   0.52130   0.01267  Uiso   1.00
O16    O     0.64060   0.50200   0.55360   0.01267  Uiso   1.00
O17    O     0.46660   0.13190   0.44620   0.01267  Uiso   1.00
O18    O     0.36090   0.26450   0.45210   0.01267  Uiso   1.00
O19    O     0.53050   0.63030   0.05920   0.01267  Uiso   1.00
O20    O     0.41550   0.75830   0.04910   0.01267  Uiso   1.00
O21    O     0.66100   0.03160   0.97870   0.01267  Uiso   1.00
O22    O     0.85940   0.00200   0.94640   0.01267  Uiso   1.00
O23    O     0.03340   0.63190   0.05380   0.01267  Uiso   1.00
O24    O     0.13910   0.76450   0.04790   0.01267  Uiso   1.00
