data_image0
_cell_length_a       9.9691
_cell_length_b       12.4013
_cell_length_c       17.341
_cell_angle_alpha    90
_cell_angle_beta     103.762
_cell_angle_gamma    90

_symmetry_space_group_name_H-M    "P 1"
_symmetry_int_tables_number       1

loop_
  _symmetry_equiv_pos_as_xyz
  'x, y, z'

loop_
  _atom_site_label
  _atom_site_occupancy
  _atom_site_fract_x
  _atom_site_fract_y
  _atom_site_fract_z
  _atom_site_thermal_displace_type
  _atom_site_B_iso_or_equiv
  _atom_site_type_symbol
  Fe1      1.0000 0.86640  0.35340  0.92390  Biso   1.000  Fe
  Fe2      1.0000 0.24530  0.42210  0.77970  Biso   1.000  Fe
  Fe3      1.0000 0.05970  0.97390  0.86920  Biso   1.000  Fe
  Fe4      1.0000 0.52930  0.10980  0.79200  Biso   1.000  Fe
  P1       1.0000 0.91570  0.45930  0.10670  Biso   1.000  P
  P2       1.0000 0.56190  0.37260  0.80800  Biso   1.000  P
  P3       1.0000 0.21970  0.15450  0.79570  Biso   1.000  P
  P4       1.0000 0.80360  0.08790  0.94180  Biso   1.000  P
  O1       1.0000 0.83990  0.20830  0.95660  Biso   1.000  O
  O2       1.0000 0.85810  0.40080  0.02870  Biso   1.000  O
  O3       1.0000 0.68260  0.40530  0.87780  Biso   1.000  O
  O4       1.0000 0.05250  0.51500  0.10360  Biso   1.000  O
  O5       1.0000 0.42930  0.38250  0.83790  Biso   1.000  O
  O6       1.0000 0.81070  0.54530  0.11960  Biso   1.000  O
  F1       1.0000 0.28590  0.40820  0.67260  Biso   1.000  F
  O7       1.0000 0.17590  0.26970  0.77010  Biso   1.000  O
  F2       1.0000 0.05190  0.46090  0.72070  Biso   1.000  F
  O8       1.0000 0.18960  0.07850  0.72390  Biso   1.000  O
  O9       1.0000 0.89460  0.03630  0.89400  Biso   1.000  O
  O10      1.0000 0.82030  0.03110  0.02170  Biso   1.000  O
  O11      1.0000 0.13080  0.11950  0.85420  Biso   1.000  O
  O12      1.0000 0.55820  0.45090  0.73950  Biso   1.000  O
  O13      1.0000 0.58740  0.25830  0.78290  Biso   1.000  O
  O14      1.0000 0.37470  0.14890  0.83780  Biso   1.000  O
  O15      1.0000 0.65120  0.07830  0.89770  Biso   1.000  O
  O16      1.0000 0.94440  0.37660  0.17390  Biso   1.000  O
  Fe5      1.0000 0.63360  0.85340  0.57610  Biso   1.000  Fe
  Fe6      1.0000 0.25470  0.92210  0.72030  Biso   1.000  Fe
  Fe7      1.0000 0.44030  0.47390  0.63080  Biso   1.000  Fe
  Fe8      1.0000 0.97070  0.60980  0.70800  Biso   1.000  Fe
  P5       1.0000 0.58430  0.95930  0.39330  Biso   1.000  P
  P6       1.0000 0.93810  0.87260  0.69200  Biso   1.000  P
  P7       1.0000 0.28030  0.65450  0.70430  Biso   1.000  P
  P8       1.0000 0.69640  0.58790  0.55820  Biso   1.000  P
  O17      1.0000 0.66010  0.70830  0.54340  Biso   1.000  O
  O18      1.0000 0.64190  0.90080  0.47130  Biso   1.000  O
  O19      1.0000 0.81740  0.90530  0.62220  Biso   1.000  O
  O20      1.0000 0.44750  0.01500  0.39640  Biso   1.000  O
  O21      1.0000 0.07070  0.88250  0.66210  Biso   1.000  O
  O22      1.0000 0.68930  0.04530  0.38040  Biso   1.000  O
  F3       1.0000 0.21410  0.90820  0.82740  Biso   1.000  F
  O23      1.0000 0.32410  0.76970  0.72990  Biso   1.000  O
  F4       1.0000 0.44810  0.96090  0.77930  Biso   1.000  F
  O24      1.0000 0.31040  0.57850  0.77610  Biso   1.000  O
  O25      1.0000 0.60540  0.53630  0.60600  Biso   1.000  O
  O26      1.0000 0.67970  0.53110  0.47830  Biso   1.000  O
  O27      1.0000 0.36920  0.61950  0.64580  Biso   1.000  O
  O28      1.0000 0.94180  0.95090  0.76050  Biso   1.000  O
  O29      1.0000 0.91260  0.75830  0.71710  Biso   1.000  O
  O30      1.0000 0.12530  0.64890  0.66220  Biso   1.000  O
  O31      1.0000 0.84880  0.57830  0.60230  Biso   1.000  O
  O32      1.0000 0.55560  0.87660  0.32610  Biso   1.000  O
  Fe9      1.0000 0.13360  0.64660  0.07610  Biso   1.000  Fe
  Fe10     1.0000 0.75470  0.57790  0.22030  Biso   1.000  Fe
  Fe11     1.0000 0.94030  0.02610  0.13080  Biso   1.000  Fe
  Fe12     1.0000 0.47070  0.89020  0.20800  Biso   1.000  Fe
  P9       1.0000 0.08430  0.54070  0.89330  Biso   1.000  P
  P10      1.0000 0.43810  0.62740  0.19200  Biso   1.000  P
  P11      1.0000 0.78030  0.84550  0.20430  Biso   1.000  P
  P12      1.0000 0.19640  0.91210  0.05820  Biso   1.000  P
  O33      1.0000 0.16010  0.79170  0.04340  Biso   1.000  O
  O34      1.0000 0.14190  0.59920  0.97130  Biso   1.000  O
  O35      1.0000 0.31740  0.59470  0.12220  Biso   1.000  O
  O36      1.0000 0.94750  0.48500  0.89640  Biso   1.000  O
  O37      1.0000 0.57070  0.61750  0.16210  Biso   1.000  O
  O38      1.0000 0.18930  0.45470  0.88040  Biso   1.000  O
  F5       1.0000 0.71410  0.59180  0.32740  Biso   1.000  F
  O39      1.0000 0.82410  0.73030  0.22990  Biso   1.000  O
  F6       1.0000 0.94810  0.53910  0.27930  Biso   1.000  F
  O40      1.0000 0.81040  0.92150  0.27610  Biso   1.000  O
  O41      1.0000 0.10540  0.96370  0.10600  Biso   1.000  O
  O42      1.0000 0.17970  0.96890  0.97830  Biso   1.000  O
  O43      1.0000 0.86920  0.88050  0.14580  Biso   1.000  O
  O44      1.0000 0.44180  0.54910  0.26050  Biso   1.000  O
  O45      1.0000 0.41260  0.74170  0.21710  Biso   1.000  O
  O46      1.0000 0.62530  0.85110  0.16220  Biso   1.000  O
  O47      1.0000 0.34880  0.92170  0.10230  Biso   1.000  O
  O48      1.0000 0.05560  0.62340  0.82610  Biso   1.000  O
  Fe13     1.0000 0.36640  0.14660  0.42390  Biso   1.000  Fe
  Fe14     1.0000 0.74530  0.07790  0.27970  Biso   1.000  Fe
  Fe15     1.0000 0.55970  0.52610  0.36920  Biso   1.000  Fe
  Fe16     1.0000 0.02930  0.39020  0.29200  Biso   1.000  Fe
  P13      1.0000 0.41570  0.04070  0.60670  Biso   1.000  P
  P14      1.0000 0.06190  0.12740  0.30800  Biso   1.000  P
  P15      1.0000 0.71970  0.34550  0.29570  Biso   1.000  P
  P16      1.0000 0.30360  0.41210  0.44180  Biso   1.000  P
  O49      1.0000 0.33990  0.29170  0.45660  Biso   1.000  O
  O50      1.0000 0.35810  0.09920  0.52870  Biso   1.000  O
  O51      1.0000 0.18260  0.09470  0.37780  Biso   1.000  O
  O52      1.0000 0.55250  0.98500  0.60360  Biso   1.000  O
  O53      1.0000 0.92930  0.11750  0.33790  Biso   1.000  O
  O54      1.0000 0.31070  0.95470  0.61960  Biso   1.000  O
  F7       1.0000 0.78590  0.09180  0.17260  Biso   1.000  F
  O55      1.0000 0.67590  0.23030  0.27010  Biso   1.000  O
  F8       1.0000 0.55190  0.03910  0.22070  Biso   1.000  F
  O56      1.0000 0.68960  0.42150  0.22390  Biso   1.000  O
  O57      1.0000 0.39460  0.46370  0.39400  Biso   1.000  O
  O58      1.0000 0.32030  0.46890  0.52170  Biso   1.000  O
  O59      1.0000 0.63080  0.38050  0.35420  Biso   1.000  O
  O60      1.0000 0.05820  0.04910  0.23950  Biso   1.000  O
  O61      1.0000 0.08740  0.24170  0.28290  Biso   1.000  O
  O62      1.0000 0.87470  0.35110  0.33780  Biso   1.000  O
  O63      1.0000 0.15120  0.42170  0.39770  Biso   1.000  O
  O64      1.0000 0.44440  0.12340  0.67390  Biso   1.000  O
