data_image0
_cell_length_a       17.1694
_cell_length_b       32.1903
_cell_length_c       32.925
_cell_angle_alpha    90
_cell_angle_beta     90
_cell_angle_gamma    90

_symmetry_space_group_name_H-M    "P 1"
_symmetry_int_tables_number       1

loop_
  _symmetry_equiv_pos_as_xyz
  'x, y, z'

loop_
  _atom_site_label
  _atom_site_occupancy
  _atom_site_fract_x
  _atom_site_fract_y
  _atom_site_fract_z
  _atom_site_thermal_displace_type
  _atom_site_B_iso_or_equiv
  _atom_site_type_symbol
  C1       1.0000 0.64400  0.98710  0.26030  Biso   1.000  C
  C2       1.0000 0.55310  0.98820  0.26010  Biso   1.000  C
  C3       1.0000 0.51430  0.95100  0.26820  Biso   1.000  C
  H1       1.0000 0.54150  0.92680  0.27400  Biso   1.000  H
  C4       1.0000 0.39160  0.98760  0.26140  Biso   1.000  C
  C5       1.0000 0.43200  0.02560  0.25680  Biso   1.000  C
  H2       1.0000 0.40460  0.05040  0.25450  Biso   1.000  H
  C6       1.0000 0.51320  0.02560  0.25560  Biso   1.000  C
  H3       1.0000 0.54040  0.05030  0.25190  Biso   1.000  H
  C7       1.0000 0.29990  0.98890  0.26240  Biso   1.000  C
  C8       1.0000 0.25580  0.96760  0.23430  Biso   1.000  C
  C9       1.0000 0.17980  0.97260  0.23350  Biso   1.000  C
  H4       1.0000 0.15090  0.96120  0.21240  Biso   1.000  H
  C10      1.0000 0.14120  0.99530  0.26470  Biso   1.000  C
  C11      1.0000 0.18760  0.01560  0.29340  Biso   1.000  C
  H5       1.0000 0.16410  0.03230  0.31290  Biso   1.000  H
  C12      1.0000 0.26500  0.01140  0.29340  Biso   1.000  C
  H6       1.0000 0.29500  0.02340  0.31370  Biso   1.000  H
  C13      1.0000 0.05440  0.00060  0.26320  Biso   1.000  C
  C14      1.0000 0.43310  0.95170  0.26740  Biso   1.000  C
  N1       1.0000 0.39580  0.91330  0.27660  Biso   1.000  N
  C15      1.0000 0.34550  0.89640  0.25100  Biso   1.000  C
  C16      1.0000 0.30160  0.85810  0.26170  Biso   1.000  C
  C17      1.0000 0.32260  0.83560  0.29600  Biso   1.000  C
  H7       1.0000 0.36520  0.84380  0.31150  Biso   1.000  H
  C18      1.0000 0.28000  0.80070  0.30710  Biso   1.000  C
  H8       1.0000 0.29400  0.78560  0.33000  Biso   1.000  H
  C19      1.0000 0.21640  0.78830  0.28390  Biso   1.000  C
  H9       1.0000 0.18780  0.76500  0.29140  Biso   1.000  H
  C20      1.0000 0.19540  0.81090  0.24970  Biso   1.000  C
  H10      1.0000 0.15280  0.80270  0.23420  Biso   1.000  H
  C21      1.0000 0.23800  0.84580  0.23850  Biso   1.000  C
  H11      1.0000 0.22400  0.86090  0.21560  Biso   1.000  H
  C22      1.0000 0.33250  0.91550  0.20830  Biso   1.000  C
  C23      1.0000 0.37090  0.89020  0.17390  Biso   1.000  C
  C24      1.0000 0.42810  0.86060  0.18130  Biso   1.000  C
  H12      1.0000 0.44340  0.85490  0.20780  Biso   1.000  H
  C25      1.0000 0.46260  0.83970  0.14900  Biso   1.000  C
  H13      1.0000 0.50090  0.81990  0.15400  Biso   1.000  H
  C26      1.0000 0.43980  0.84830  0.10940  Biso   1.000  C
  H14      1.0000 0.46280  0.83430  0.08780  Biso   1.000  H
  C27      1.0000 0.38250  0.87790  0.10200  Biso   1.000  C
  H15      1.0000 0.36720  0.88360  0.07550  Biso   1.000  H
  C28      1.0000 0.34800  0.89880  0.13430  Biso   1.000  C
  H16      1.0000 0.30970  0.91860  0.12930  Biso   1.000  H
  C29      1.0000 0.90700  0.10670  0.27990  Biso   1.000  C
  C30      1.0000 0.93510  0.15270  0.28190  Biso   1.000  C
  C31      1.0000 0.92410  0.17880  0.24660  Biso   1.000  C
  H17      1.0000 0.89700  0.16880  0.22420  Biso   1.000  H
  C32      1.0000 0.95330  0.21770  0.24650  Biso   1.000  C
  H18      1.0000 0.94560  0.23420  0.22370  Biso   1.000  H
  C33      1.0000 0.99560  0.23420  0.28020  Biso   1.000  C
  C34      1.0000 0.00430  0.20690  0.31440  Biso   1.000  C
  C35      1.0000 0.97510  0.16890  0.31420  Biso   1.000  C
  H19      1.0000 0.98210  0.15240  0.33710  Biso   1.000  H
  C36      1.0000 0.02890  0.27570  0.27850  Biso   1.000  C
  C37      1.0000 0.08370  0.28620  0.24880  Biso   1.000  C
  H20      1.0000 0.10080  0.26540  0.23120  Biso   1.000  H
  C38      1.0000 0.11310  0.32480  0.24410  Biso   1.000  C
  H21      1.0000 0.14870  0.33020  0.22340  Biso   1.000  H
  C39      1.0000 0.09050  0.35610  0.26980  Biso   1.000  C
  C40      1.0000 0.03670  0.34780  0.29860  Biso   1.000  C
  H22      1.0000 0.02060  0.36890  0.31610  Biso   1.000  H
  C41      1.0000 0.00530  0.30870  0.30250  Biso   1.000  C
  C42      1.0000 0.02720  0.25310  0.36860  Biso   1.000  C
  C43      1.0000 0.07840  0.27110  0.40110  Biso   1.000  C
  C44      1.0000 0.06660  0.31040  0.41730  Biso   1.000  C
  H23      1.0000 0.02490  0.32650  0.40850  Biso   1.000  H
  C45      1.0000 0.11700  0.32570  0.44680  Biso   1.000  C
  H24      1.0000 0.10910  0.35200  0.45760  Biso   1.000  H
  C46      1.0000 0.17930  0.30160  0.46000  Biso   1.000  C
  H25      1.0000 0.21310  0.31190  0.47970  Biso   1.000  H
  C47      1.0000 0.19110  0.26230  0.44370  Biso   1.000  C
  H26      1.0000 0.23280  0.24620  0.45250  Biso   1.000  H
  C48      1.0000 0.14070  0.24700  0.41430  Biso   1.000  C
  H27      1.0000 0.14860  0.22070  0.40340  Biso   1.000  H
  C49      1.0000 0.95500  0.27420  0.36040  Biso   1.000  C
  C50      1.0000 0.88720  0.26730  0.38950  Biso   1.000  C
  C51      1.0000 0.82240  0.29310  0.39070  Biso   1.000  C
  H28      1.0000 0.81910  0.31570  0.37320  Biso   1.000  H
  C52      1.0000 0.76260  0.28520  0.41800  Biso   1.000  C
  H29      1.0000 0.71920  0.30250  0.41880  Biso   1.000  H
  C53      1.0000 0.76760  0.25140  0.44420  Biso   1.000  C
  H30      1.0000 0.72750  0.24610  0.46250  Biso   1.000  H
  C54      1.0000 0.83240  0.22550  0.44300  Biso   1.000  C
  H31      1.0000 0.83570  0.20290  0.46050  Biso   1.000  H
  C55      1.0000 0.89220  0.23350  0.41560  Biso   1.000  C
  H32      1.0000 0.93560  0.21620  0.41480  Biso   1.000  H
  C56      1.0000 0.12350  0.40150  0.26500  Biso   1.000  C
  C57      1.0000 0.83690  0.97410  0.36500  Biso   1.000  C
  C58      1.0000 0.81500  0.96760  0.41130  Biso   1.000  C
  C59      1.0000 0.85760  0.98650  0.44020  Biso   1.000  C
  H33      1.0000 0.90140  0.00210  0.43340  Biso   1.000  H
  C60      1.0000 0.83490  0.98230  0.47990  Biso   1.000  C
  H34      1.0000 0.86550  0.99390  0.50030  Biso   1.000  H
  C61      1.0000 0.76480  0.96020  0.49100  Biso   1.000  C
  C62      1.0000 0.75020  0.94220  0.42090  Biso   1.000  C
  H35      1.0000 0.72480  0.92740  0.40060  Biso   1.000  H
  C63      1.0000 0.74230  0.95990  0.53250  Biso   1.000  C
  C64      1.0000 0.78250  0.94260  0.56340  Biso   1.000  C
  H36      1.0000 0.82880  0.92920  0.55680  Biso   1.000  H
  C65      1.0000 0.67350  0.97670  0.54400  Biso   1.000  C
  C66      1.0000 0.76120  0.94290  0.60330  Biso   1.000  C
  H37      1.0000 0.79180  0.92990  0.62290  Biso   1.000  H
  C67      1.0000 0.64810  0.98000  0.58410  Biso   1.000  C
  H38      1.0000 0.60170  0.99350  0.59020  Biso   1.000  H
  C68      1.0000 0.69240  0.96330  0.61420  Biso   1.000  C
  C69      1.0000 0.67270  0.96730  0.65970  Biso   1.000  C
  C70      1.0000 0.59500  0.95700  0.48370  Biso   1.000  C
  C71      1.0000 0.50300  0.01810  0.45530  Biso   1.000  C
  H39      1.0000 0.50350  0.03200  0.48000  Biso   1.000  H
  C72      1.0000 0.54100  0.98020  0.45120  Biso   1.000  C
  C73      1.0000 0.53900  0.95940  0.41420  Biso   1.000  C
  H40      1.0000 0.56460  0.93400  0.41150  Biso   1.000  H
  C74      1.0000 0.50000  0.97660  0.38130  Biso   1.000  C
  H41      1.0000 0.49940  0.96270  0.35650  Biso   1.000  H
  C75      1.0000 0.46200  0.01450  0.38530  Biso   1.000  C
  H42      1.0000 0.43620  0.02600  0.36330  Biso   1.000  H
  C76      1.0000 0.46400  0.03530  0.42230  Biso   1.000  C
  H43      1.0000 0.43830  0.06070  0.42510  Biso   1.000  H
  C77      1.0000 0.72600  0.93970  0.45940  Biso   1.000  C
  N2       1.0000 0.67000  0.90920  0.46940  Biso   1.000  N
  C78      1.0000 0.59600  0.92060  0.47500  Biso   1.000  C
  C79      1.0000 0.54300  0.88810  0.49120  Biso   1.000  C
  C80      1.0000 0.55100  0.84600  0.48170  Biso   1.000  C
  H44      1.0000 0.58860  0.83710  0.46330  Biso   1.000  H
  C81      1.0000 0.50200  0.81780  0.50040  Biso   1.000  C
  H45      1.0000 0.50620  0.78980  0.49400  Biso   1.000  H
  C82      1.0000 0.44500  0.83030  0.52900  Biso   1.000  C
  H46      1.0000 0.41430  0.81060  0.54170  Biso   1.000  H
  C83      1.0000 0.43600  0.87230  0.53800  Biso   1.000  C
  H47      1.0000 0.39730  0.88180  0.55490  Biso   1.000  H
  C84      1.0000 0.48900  0.89990  0.51890  Biso   1.000  C
  H48      1.0000 0.48730  0.92780  0.52610  Biso   1.000  H
  N3       1.0000 0.29100  0.94650  0.20020  Biso   1.000  N
  N4       1.0000 0.04830  0.22140  0.34920  Biso   1.000  N
  N5       1.0000 0.94570  0.30250  0.33070  Biso   1.000  N
  N6       1.0000 0.61600  0.98690  0.51340  Biso   1.000  N
  O1       1.0000 0.84720  0.00600  0.26230  Biso   1.000  O
  O2       1.0000 0.67230  0.02130  0.24810  Biso   1.000  O
  O3       1.0000 0.02060  0.99380  0.22880  Biso   1.000  O
  O4       1.0000 0.67830  0.95630  0.27290  Biso   1.000  O
  O5       1.0000 0.02080  0.00880  0.29560  Biso   1.000  O
  O6       1.0000 0.86610  0.09650  0.25160  Biso   1.000  O
  O7       1.0000 0.92880  0.08520  0.31030  Biso   1.000  O
  O8       1.0000 0.17200  0.40620  0.23580  Biso   1.000  O
  O9       1.0000 0.09480  0.42820  0.28770  Biso   1.000  O
  O10      1.0000 0.88860  0.00110  0.35700  Biso   1.000  O
  O11      1.0000 0.79430  0.95440  0.33980  Biso   1.000  O
  O12      1.0000 0.61120  0.99060  0.66590  Biso   1.000  O
  O13      1.0000 0.71330  0.95110  0.68480  Biso   1.000  O
  Zn1      1.0000 0.77674  0.05277  0.24652  Biso   1.000  Zn
  Zn2      1.0000 0.78630  0.95868  0.28132  Biso   1.000  Zn
  Zn3      1.0000 0.91159  0.02636  0.30591  Biso   1.000  Zn
  Zn4      1.0000 0.91144  0.98753  0.21826  Biso   1.000  Zn
  C85      1.0000 0.85600  0.01290  0.76030  Biso   1.000  C
  C86      1.0000 0.94690  0.01180  0.76010  Biso   1.000  C
  C87      1.0000 0.98570  0.04900  0.76820  Biso   1.000  C
  H49      1.0000 0.95850  0.07320  0.77400  Biso   1.000  H
  C88      1.0000 0.10840  0.01240  0.76140  Biso   1.000  C
  C89      1.0000 0.06800  0.97440  0.75680  Biso   1.000  C
  H50      1.0000 0.09540  0.94960  0.75450  Biso   1.000  H
  C90      1.0000 0.98680  0.97440  0.75560  Biso   1.000  C
  H51      1.0000 0.95960  0.94970  0.75190  Biso   1.000  H
  C91      1.0000 0.20010  0.01110  0.76240  Biso   1.000  C
  C92      1.0000 0.24420  0.03240  0.73430  Biso   1.000  C
  C93      1.0000 0.32020  0.02740  0.73350  Biso   1.000  C
  H52      1.0000 0.34910  0.03880  0.71240  Biso   1.000  H
  C94      1.0000 0.35880  0.00470  0.76470  Biso   1.000  C
  C95      1.0000 0.31240  0.98440  0.79340  Biso   1.000  C
  H53      1.0000 0.33590  0.96770  0.81290  Biso   1.000  H
  C96      1.0000 0.23500  0.98860  0.79340  Biso   1.000  C
  H54      1.0000 0.20500  0.97660  0.81370  Biso   1.000  H
  C97      1.0000 0.44560  0.99940  0.76320  Biso   1.000  C
  C98      1.0000 0.06690  0.04830  0.76740  Biso   1.000  C
  N7       1.0000 0.10420  0.08670  0.77660  Biso   1.000  N
  C99      1.0000 0.15450  0.10360  0.75100  Biso   1.000  C
  C100     1.0000 0.19840  0.14190  0.76170  Biso   1.000  C
  C101     1.0000 0.17740  0.16440  0.79600  Biso   1.000  C
  H55      1.0000 0.13480  0.15620  0.81150  Biso   1.000  H
  C102     1.0000 0.22000  0.19930  0.80710  Biso   1.000  C
  H56      1.0000 0.20600  0.21440  0.83000  Biso   1.000  H
  C103     1.0000 0.28360  0.21170  0.78390  Biso   1.000  C
  H57      1.0000 0.31220  0.23500  0.79140  Biso   1.000  H
  C104     1.0000 0.30460  0.18910  0.74970  Biso   1.000  C
  H58      1.0000 0.34720  0.19730  0.73420  Biso   1.000  H
  C105     1.0000 0.26200  0.15420  0.73850  Biso   1.000  C
  H59      1.0000 0.27600  0.13910  0.71560  Biso   1.000  H
  C106     1.0000 0.16750  0.08450  0.70830  Biso   1.000  C
  C107     1.0000 0.12910  0.10980  0.67390  Biso   1.000  C
  C108     1.0000 0.07190  0.13940  0.68130  Biso   1.000  C
  H60      1.0000 0.05660  0.14510  0.70780  Biso   1.000  H
  C109     1.0000 0.03740  0.16030  0.64900  Biso   1.000  C
  H61      1.0000 0.99910  0.18010  0.65400  Biso   1.000  H
  C110     1.0000 0.06020  0.15170  0.60940  Biso   1.000  C
  H62      1.0000 0.03720  0.16570  0.58780  Biso   1.000  H
  C111     1.0000 0.11750  0.12210  0.60200  Biso   1.000  C
  H63      1.0000 0.13280  0.11640  0.57550  Biso   1.000  H
  C112     1.0000 0.15200  0.10120  0.63430  Biso   1.000  C
  H64      1.0000 0.19030  0.08140  0.62930  Biso   1.000  H
  C113     1.0000 0.59300  0.89330  0.77990  Biso   1.000  C
  C114     1.0000 0.56490  0.84730  0.78190  Biso   1.000  C
  C115     1.0000 0.57590  0.82120  0.74660  Biso   1.000  C
  H65      1.0000 0.60300  0.83120  0.72420  Biso   1.000  H
  C116     1.0000 0.54670  0.78230  0.74650  Biso   1.000  C
  H66      1.0000 0.55440  0.76580  0.72370  Biso   1.000  H
  C117     1.0000 0.50440  0.76580  0.78020  Biso   1.000  C
  C118     1.0000 0.49570  0.79310  0.81440  Biso   1.000  C
  C119     1.0000 0.52490  0.83110  0.81420  Biso   1.000  C
  H67      1.0000 0.51790  0.84760  0.83710  Biso   1.000  H
  C120     1.0000 0.47110  0.72430  0.77850  Biso   1.000  C
  C121     1.0000 0.41630  0.71380  0.74880  Biso   1.000  C
  H68      1.0000 0.39920  0.73460  0.73120  Biso   1.000  H
  C122     1.0000 0.38690  0.67520  0.74410  Biso   1.000  C
  H69      1.0000 0.35130  0.66980  0.72340  Biso   1.000  H
  C123     1.0000 0.40950  0.64390  0.76980  Biso   1.000  C
  C124     1.0000 0.46330  0.65220  0.79860  Biso   1.000  C
  H70      1.0000 0.47940  0.63110  0.81610  Biso   1.000  H
  C125     1.0000 0.49470  0.69130  0.80250  Biso   1.000  C
  C126     1.0000 0.47280  0.74690  0.86860  Biso   1.000  C
  C127     1.0000 0.42160  0.72890  0.90110  Biso   1.000  C
  C128     1.0000 0.43340  0.68960  0.91730  Biso   1.000  C
  H71      1.0000 0.47510  0.67350  0.90850  Biso   1.000  H
  C129     1.0000 0.38300  0.67430  0.94680  Biso   1.000  C
  H72      1.0000 0.39090  0.64800  0.95760  Biso   1.000  H
  C130     1.0000 0.32070  0.69840  0.96000  Biso   1.000  C
  H73      1.0000 0.28690  0.68810  0.97970  Biso   1.000  H
  C131     1.0000 0.30890  0.73770  0.94370  Biso   1.000  C
  H74      1.0000 0.26720  0.75380  0.95250  Biso   1.000  H
  C132     1.0000 0.35930  0.75300  0.91430  Biso   1.000  C
  H75      1.0000 0.35140  0.77930  0.90340  Biso   1.000  H
  C133     1.0000 0.54500  0.72580  0.86040  Biso   1.000  C
  C134     1.0000 0.61280  0.73270  0.88950  Biso   1.000  C
  C135     1.0000 0.67760  0.70690  0.89070  Biso   1.000  C
  H76      1.0000 0.68090  0.68430  0.87320  Biso   1.000  H
  C136     1.0000 0.73740  0.71480  0.91800  Biso   1.000  C
  H77      1.0000 0.78080  0.69750  0.91880  Biso   1.000  H
  C137     1.0000 0.73240  0.74860  0.94420  Biso   1.000  C
  H78      1.0000 0.77250  0.75390  0.96250  Biso   1.000  H
  C138     1.0000 0.66760  0.77450  0.94300  Biso   1.000  C
  H79      1.0000 0.66430  0.79710  0.96050  Biso   1.000  H
  C139     1.0000 0.60780  0.76650  0.91560  Biso   1.000  C
  H80      1.0000 0.56440  0.78380  0.91480  Biso   1.000  H
  C140     1.0000 0.37650  0.59850  0.76500  Biso   1.000  C
  C141     1.0000 0.66310  0.02590  0.86500  Biso   1.000  C
  C142     1.0000 0.68500  0.03240  0.91130  Biso   1.000  C
  C143     1.0000 0.64240  0.01350  0.94020  Biso   1.000  C
  H81      1.0000 0.59860  0.99790  0.93340  Biso   1.000  H
  C144     1.0000 0.66510  0.01770  0.97990  Biso   1.000  C
  H82      1.0000 0.63450  0.00610  0.00030  Biso   1.000  H
  C145     1.0000 0.73520  0.03980  0.99100  Biso   1.000  C
  C146     1.0000 0.74980  0.05780  0.92090  Biso   1.000  C
  H83      1.0000 0.77520  0.07260  0.90060  Biso   1.000  H
  C147     1.0000 0.75770  0.04010  0.03250  Biso   1.000  C
  C148     1.0000 0.71750  0.05740  0.06340  Biso   1.000  C
  H84      1.0000 0.67120  0.07080  0.05680  Biso   1.000  H
  C149     1.0000 0.82650  0.02330  0.04400  Biso   1.000  C
  C150     1.0000 0.73880  0.05710  0.10330  Biso   1.000  C
  H85      1.0000 0.70820  0.07010  0.12290  Biso   1.000  H
  C151     1.0000 0.85190  0.02000  0.08410  Biso   1.000  C
  H86      1.0000 0.89830  0.00650  0.09020  Biso   1.000  H
  C152     1.0000 0.80760  0.03670  0.11420  Biso   1.000  C
  C153     1.0000 0.82730  0.03270  0.15970  Biso   1.000  C
  C154     1.0000 0.90500  0.04300  0.98370  Biso   1.000  C
  C155     1.0000 0.99700  0.98190  0.95530  Biso   1.000  C
  H87      1.0000 0.99650  0.96800  0.98000  Biso   1.000  H
  C156     1.0000 0.95900  0.01980  0.95120  Biso   1.000  C
  C157     1.0000 0.96100  0.04060  0.91420  Biso   1.000  C
  H88      1.0000 0.93540  0.06600  0.91150  Biso   1.000  H
  C158     1.0000 0.00000  0.02340  0.88130  Biso   1.000  C
  H89      1.0000 0.00060  0.03730  0.85650  Biso   1.000  H
  C159     1.0000 0.03800  0.98550  0.88530  Biso   1.000  C
  H90      1.0000 0.06380  0.97400  0.86330  Biso   1.000  H
  C160     1.0000 0.03600  0.96470  0.92230  Biso   1.000  C
  H91      1.0000 0.06170  0.93930  0.92510  Biso   1.000  H
  C161     1.0000 0.77400  0.06030  0.95940  Biso   1.000  C
  N8       1.0000 0.83000  0.09080  0.96940  Biso   1.000  N
  C162     1.0000 0.90400  0.07940  0.97500  Biso   1.000  C
  C163     1.0000 0.95700  0.11190  0.99120  Biso   1.000  C
  C164     1.0000 0.94900  0.15400  0.98170  Biso   1.000  C
  H92      1.0000 0.91140  0.16290  0.96330  Biso   1.000  H
  C165     1.0000 0.99800  0.18220  0.00040  Biso   1.000  C
  H93      1.0000 0.99380  0.21020  0.99400  Biso   1.000  H
  C166     1.0000 0.05500  0.16970  0.02900  Biso   1.000  C
  H94      1.0000 0.08570  0.18940  0.04170  Biso   1.000  H
  C167     1.0000 0.06400  0.12770  0.03800  Biso   1.000  C
  H95      1.0000 0.10270  0.11820  0.05490  Biso   1.000  H
  C168     1.0000 0.01100  0.10010  0.01890  Biso   1.000  C
  H96      1.0000 0.01270  0.07220  0.02610  Biso   1.000  H
  N9       1.0000 0.20900  0.05350  0.70020  Biso   1.000  N
  N10      1.0000 0.45170  0.77860  0.84920  Biso   1.000  N
  N11      1.0000 0.55430  0.69750  0.83070  Biso   1.000  N
  N12      1.0000 0.88400  0.01310  0.01340  Biso   1.000  N
  O14      1.0000 0.65280  0.99400  0.76230  Biso   1.000  O
  O15      1.0000 0.82770  0.97870  0.74810  Biso   1.000  O
  O16      1.0000 0.47940  0.00620  0.72880  Biso   1.000  O
  O17      1.0000 0.82170  0.04370  0.77290  Biso   1.000  O
  O18      1.0000 0.47920  0.99120  0.79560  Biso   1.000  O
  O19      1.0000 0.63390  0.90350  0.75160  Biso   1.000  O
  O20      1.0000 0.57120  0.91480  0.81030  Biso   1.000  O
  O21      1.0000 0.32800  0.59380  0.73580  Biso   1.000  O
  O22      1.0000 0.40520  0.57180  0.78770  Biso   1.000  O
  O23      1.0000 0.61140  0.99890  0.85700  Biso   1.000  O
  O24      1.0000 0.70570  0.04560  0.83980  Biso   1.000  O
  O25      1.0000 0.88880  0.00940  0.16590  Biso   1.000  O
  O26      1.0000 0.78670  0.04890  0.18480  Biso   1.000  O
  Zn5      1.0000 0.72326  0.94723  0.74652  Biso   1.000  Zn
  Zn6      1.0000 0.71370  0.04132  0.78132  Biso   1.000  Zn
  Zn7      1.0000 0.58841  0.97364  0.80591  Biso   1.000  Zn
  Zn8      1.0000 0.58856  0.01247  0.71826  Biso   1.000  Zn
  C169     1.0000 0.35600  0.48710  0.23970  Biso   1.000  C
  C170     1.0000 0.44690  0.48820  0.23990  Biso   1.000  C
  C171     1.0000 0.48570  0.45100  0.23180  Biso   1.000  C
  H97      1.0000 0.45850  0.42680  0.22600  Biso   1.000  H
  C172     1.0000 0.60840  0.48760  0.23860  Biso   1.000  C
  C173     1.0000 0.56800  0.52560  0.24320  Biso   1.000  C
  H98      1.0000 0.59540  0.55040  0.24550  Biso   1.000  H
  C174     1.0000 0.48680  0.52560  0.24440  Biso   1.000  C
  H99      1.0000 0.45960  0.55030  0.24810  Biso   1.000  H
  C175     1.0000 0.70010  0.48890  0.23760  Biso   1.000  C
  C176     1.0000 0.74420  0.46760  0.26570  Biso   1.000  C
  C177     1.0000 0.82020  0.47260  0.26650  Biso   1.000  C
  H100     1.0000 0.84910  0.46120  0.28760  Biso   1.000  H
  C178     1.0000 0.85880  0.49530  0.23530  Biso   1.000  C
  C179     1.0000 0.81240  0.51560  0.20660  Biso   1.000  C
  H101     1.0000 0.83590  0.53230  0.18710  Biso   1.000  H
  C180     1.0000 0.73500  0.51140  0.20660  Biso   1.000  C
  H102     1.0000 0.70500  0.52340  0.18630  Biso   1.000  H
  C181     1.0000 0.94560  0.50060  0.23680  Biso   1.000  C
  C182     1.0000 0.56690  0.45170  0.23260  Biso   1.000  C
  N13      1.0000 0.60420  0.41330  0.22340  Biso   1.000  N
  C183     1.0000 0.65450  0.39640  0.24900  Biso   1.000  C
  C184     1.0000 0.69840  0.35810  0.23830  Biso   1.000  C
  C185     1.0000 0.67740  0.33560  0.20400  Biso   1.000  C
  H103     1.0000 0.63480  0.34380  0.18850  Biso   1.000  H
  C186     1.0000 0.72000  0.30070  0.19290  Biso   1.000  C
  H104     1.0000 0.70600  0.28560  0.17000  Biso   1.000  H
  C187     1.0000 0.78360  0.28830  0.21610  Biso   1.000  C
  H105     1.0000 0.81220  0.26500  0.20860  Biso   1.000  H
  C188     1.0000 0.80460  0.31090  0.25030  Biso   1.000  C
  H106     1.0000 0.84720  0.30270  0.26580  Biso   1.000  H
  C189     1.0000 0.76200  0.34580  0.26150  Biso   1.000  C
  H107     1.0000 0.77600  0.36090  0.28440  Biso   1.000  H
  C190     1.0000 0.66750  0.41550  0.29170  Biso   1.000  C
  C191     1.0000 0.62910  0.39020  0.32610  Biso   1.000  C
  C192     1.0000 0.57190  0.36060  0.31870  Biso   1.000  C
  H108     1.0000 0.55660  0.35490  0.29220  Biso   1.000  H
  C193     1.0000 0.53740  0.33970  0.35100  Biso   1.000  C
  H109     1.0000 0.49910  0.31990  0.34600  Biso   1.000  H
  C194     1.0000 0.56020  0.34830  0.39060  Biso   1.000  C
  H110     1.0000 0.53720  0.33430  0.41220  Biso   1.000  H
  C195     1.0000 0.61750  0.37790  0.39800  Biso   1.000  C
  H111     1.0000 0.63280  0.38360  0.42450  Biso   1.000  H
  C196     1.0000 0.65200  0.39880  0.36570  Biso   1.000  C
  H112     1.0000 0.69030  0.41860  0.37070  Biso   1.000  H
  C197     1.0000 0.09300  0.60670  0.22010  Biso   1.000  C
  C198     1.0000 0.06490  0.65270  0.21810  Biso   1.000  C
  C199     1.0000 0.07590  0.67880  0.25340  Biso   1.000  C
  H113     1.0000 0.10300  0.66880  0.27580  Biso   1.000  H
  C200     1.0000 0.04670  0.71770  0.25350  Biso   1.000  C
  H114     1.0000 0.05440  0.73420  0.27630  Biso   1.000  H
  C201     1.0000 0.00440  0.73420  0.21980  Biso   1.000  C
  C202     1.0000 0.99570  0.70690  0.18560  Biso   1.000  C
  C203     1.0000 0.02490  0.66890  0.18580  Biso   1.000  C
  H115     1.0000 0.01790  0.65240  0.16290  Biso   1.000  H
  C204     1.0000 0.97110  0.77570  0.22150  Biso   1.000  C
  C205     1.0000 0.91630  0.78620  0.25120  Biso   1.000  C
  H116     1.0000 0.89920  0.76540  0.26880  Biso   1.000  H
  C206     1.0000 0.88690  0.82480  0.25590  Biso   1.000  C
  H117     1.0000 0.85130  0.83020  0.27660  Biso   1.000  H
  C207     1.0000 0.90950  0.85610  0.23020  Biso   1.000  C
  C208     1.0000 0.96330  0.84780  0.20140  Biso   1.000  C
  H118     1.0000 0.97940  0.86890  0.18390  Biso   1.000  H
  C209     1.0000 0.99470  0.80870  0.19750  Biso   1.000  C
  C210     1.0000 0.97280  0.75310  0.13140  Biso   1.000  C
  C211     1.0000 0.92160  0.77110  0.09890  Biso   1.000  C
  C212     1.0000 0.93340  0.81040  0.08270  Biso   1.000  C
  H119     1.0000 0.97510  0.82650  0.09150  Biso   1.000  H
  C213     1.0000 0.88300  0.82570  0.05320  Biso   1.000  C
  H120     1.0000 0.89090  0.85200  0.04240  Biso   1.000  H
  C214     1.0000 0.82070  0.80160  0.04000  Biso   1.000  C
  H121     1.0000 0.78690  0.81190  0.02030  Biso   1.000  H
  C215     1.0000 0.80890  0.76230  0.05630  Biso   1.000  C
  H122     1.0000 0.76720  0.74620  0.04750  Biso   1.000  H
  C216     1.0000 0.85930  0.74700  0.08570  Biso   1.000  C
  H123     1.0000 0.85140  0.72070  0.09660  Biso   1.000  H
  C217     1.0000 0.04500  0.77420  0.13960  Biso   1.000  C
  C218     1.0000 0.11280  0.76730  0.11050  Biso   1.000  C
  C219     1.0000 0.17760  0.79310  0.10930  Biso   1.000  C
  H124     1.0000 0.18090  0.81570  0.12680  Biso   1.000  H
  C220     1.0000 0.23740  0.78520  0.08200  Biso   1.000  C
  H125     1.0000 0.28080  0.80250  0.08120  Biso   1.000  H
  C221     1.0000 0.23240  0.75140  0.05580  Biso   1.000  C
  H126     1.0000 0.27250  0.74610  0.03750  Biso   1.000  H
  C222     1.0000 0.16760  0.72550  0.05700  Biso   1.000  C
  H127     1.0000 0.16430  0.70290  0.03950  Biso   1.000  H
  C223     1.0000 0.10780  0.73350  0.08440  Biso   1.000  C
  H128     1.0000 0.06440  0.71620  0.08520  Biso   1.000  H
  C224     1.0000 0.87650  0.90150  0.23500  Biso   1.000  C
  C225     1.0000 0.16310  0.47410  0.13500  Biso   1.000  C
  C226     1.0000 0.18500  0.46760  0.08870  Biso   1.000  C
  C227     1.0000 0.14240  0.48650  0.05980  Biso   1.000  C
  H129     1.0000 0.09860  0.50210  0.06660  Biso   1.000  H
  C228     1.0000 0.16510  0.48230  0.02010  Biso   1.000  C
  H130     1.0000 0.13450  0.49390  0.99970  Biso   1.000  H
  C229     1.0000 0.23520  0.46020  0.00900  Biso   1.000  C
  C230     1.0000 0.24980  0.44220  0.07910  Biso   1.000  C
  H131     1.0000 0.27520  0.42740  0.09940  Biso   1.000  H
  C231     1.0000 0.25770  0.45990  0.96750  Biso   1.000  C
  C232     1.0000 0.21750  0.44260  0.93660  Biso   1.000  C
  H132     1.0000 0.17120  0.42920  0.94320  Biso   1.000  H
  C233     1.0000 0.32650  0.47670  0.95600  Biso   1.000  C
  C234     1.0000 0.23880  0.44290  0.89670  Biso   1.000  C
  H133     1.0000 0.20820  0.42990  0.87710  Biso   1.000  H
  C235     1.0000 0.35190  0.48000  0.91590  Biso   1.000  C
  H134     1.0000 0.39830  0.49350  0.90980  Biso   1.000  H
  C236     1.0000 0.30760  0.46330  0.88580  Biso   1.000  C
  C237     1.0000 0.32730  0.46730  0.84030  Biso   1.000  C
  C238     1.0000 0.40500  0.45700  0.01630  Biso   1.000  C
  C239     1.0000 0.49700  0.51810  0.04470  Biso   1.000  C
  H135     1.0000 0.49650  0.53200  0.02000  Biso   1.000  H
  C240     1.0000 0.45900  0.48020  0.04880  Biso   1.000  C
  C241     1.0000 0.46100  0.45940  0.08580  Biso   1.000  C
  H136     1.0000 0.43540  0.43400  0.08850  Biso   1.000  H
  C242     1.0000 0.50000  0.47660  0.11870  Biso   1.000  C
  H137     1.0000 0.50060  0.46270  0.14350  Biso   1.000  H
  C243     1.0000 0.53800  0.51450  0.11470  Biso   1.000  C
  H138     1.0000 0.56380  0.52600  0.13670  Biso   1.000  H
  C244     1.0000 0.53600  0.53530  0.07770  Biso   1.000  C
  H139     1.0000 0.56170  0.56070  0.07490  Biso   1.000  H
  C245     1.0000 0.27400  0.43970  0.04060  Biso   1.000  C
  N14      1.0000 0.33000  0.40920  0.03060  Biso   1.000  N
  C246     1.0000 0.40400  0.42060  0.02500  Biso   1.000  C
  C247     1.0000 0.45700  0.38810  0.00880  Biso   1.000  C
  C248     1.0000 0.44900  0.34600  0.01830  Biso   1.000  C
  H140     1.0000 0.41140  0.33710  0.03670  Biso   1.000  H
  C249     1.0000 0.49800  0.31780  0.99960  Biso   1.000  C
  H141     1.0000 0.49380  0.28980  0.00600  Biso   1.000  H
  C250     1.0000 0.55500  0.33030  0.97100  Biso   1.000  C
  H142     1.0000 0.58570  0.31060  0.95830  Biso   1.000  H
  C251     1.0000 0.56400  0.37230  0.96200  Biso   1.000  C
  H143     1.0000 0.60270  0.38180  0.94510  Biso   1.000  H
  C252     1.0000 0.51100  0.39990  0.98110  Biso   1.000  C
  H144     1.0000 0.51270  0.42780  0.97390  Biso   1.000  H
  N15      1.0000 0.70900  0.44650  0.29980  Biso   1.000  N
  N16      1.0000 0.95170  0.72140  0.15080  Biso   1.000  N
  N17      1.0000 0.05430  0.80250  0.16930  Biso   1.000  N
  N18      1.0000 0.38400  0.48690  0.98660  Biso   1.000  N
  O27      1.0000 0.15280  0.50600  0.23770  Biso   1.000  O
  O28      1.0000 0.32770  0.52130  0.25190  Biso   1.000  O
  O29      1.0000 0.97940  0.49380  0.27120  Biso   1.000  O
  O30      1.0000 0.32170  0.45630  0.22710  Biso   1.000  O
  O31      1.0000 0.97920  0.50880  0.20440  Biso   1.000  O
  O32      1.0000 0.13390  0.59650  0.24840  Biso   1.000  O
  O33      1.0000 0.07120  0.58520  0.18970  Biso   1.000  O
  O34      1.0000 0.82800  0.90620  0.26420  Biso   1.000  O
  O35      1.0000 0.90520  0.92820  0.21230  Biso   1.000  O
  O36      1.0000 0.11140  0.50110  0.14300  Biso   1.000  O
  O37      1.0000 0.20570  0.45440  0.16020  Biso   1.000  O
  O38      1.0000 0.38880  0.49060  0.83410  Biso   1.000  O
  O39      1.0000 0.28670  0.45110  0.81520  Biso   1.000  O
  Zn9      1.0000 0.22326  0.55277  0.25348  Biso   1.000  Zn
  Zn10     1.0000 0.21370  0.45868  0.21868  Biso   1.000  Zn
  Zn11     1.0000 0.08841  0.52636  0.19409  Biso   1.000  Zn
  Zn12     1.0000 0.08856  0.48753  0.28174  Biso   1.000  Zn
  C253     1.0000 0.14400  0.51290  0.73970  Biso   1.000  C
  C254     1.0000 0.05310  0.51180  0.73990  Biso   1.000  C
  C255     1.0000 0.01430  0.54900  0.73180  Biso   1.000  C
  H145     1.0000 0.04150  0.57320  0.72600  Biso   1.000  H
  C256     1.0000 0.89160  0.51240  0.73860  Biso   1.000  C
  C257     1.0000 0.93200  0.47440  0.74320  Biso   1.000  C
  H146     1.0000 0.90460  0.44960  0.74550  Biso   1.000  H
  C258     1.0000 0.01320  0.47440  0.74440  Biso   1.000  C
  H147     1.0000 0.04040  0.44970  0.74810  Biso   1.000  H
  C259     1.0000 0.79990  0.51110  0.73760  Biso   1.000  C
  C260     1.0000 0.75580  0.53240  0.76570  Biso   1.000  C
  C261     1.0000 0.67980  0.52740  0.76650  Biso   1.000  C
  H148     1.0000 0.65090  0.53880  0.78760  Biso   1.000  H
  C262     1.0000 0.64120  0.50470  0.73530  Biso   1.000  C
  C263     1.0000 0.68760  0.48440  0.70660  Biso   1.000  C
  H149     1.0000 0.66410  0.46770  0.68710  Biso   1.000  H
  C264     1.0000 0.76500  0.48860  0.70660  Biso   1.000  C
  H150     1.0000 0.79500  0.47660  0.68630  Biso   1.000  H
  C265     1.0000 0.55440  0.49940  0.73680  Biso   1.000  C
  C266     1.0000 0.93310  0.54830  0.73260  Biso   1.000  C
  N19      1.0000 0.89580  0.58670  0.72340  Biso   1.000  N
  C267     1.0000 0.84550  0.60360  0.74900  Biso   1.000  C
  C268     1.0000 0.80160  0.64190  0.73830  Biso   1.000  C
  C269     1.0000 0.82260  0.66440  0.70400  Biso   1.000  C
  H151     1.0000 0.86520  0.65620  0.68850  Biso   1.000  H
  C270     1.0000 0.78000  0.69930  0.69290  Biso   1.000  C
  H152     1.0000 0.79400  0.71440  0.67000  Biso   1.000  H
  C271     1.0000 0.71640  0.71170  0.71610  Biso   1.000  C
  H153     1.0000 0.68780  0.73500  0.70860  Biso   1.000  H
  C272     1.0000 0.69540  0.68910  0.75030  Biso   1.000  C
  H154     1.0000 0.65280  0.69730  0.76580  Biso   1.000  H
  C273     1.0000 0.73800  0.65420  0.76150  Biso   1.000  C
  H155     1.0000 0.72400  0.63910  0.78440  Biso   1.000  H
  C274     1.0000 0.83250  0.58450  0.79170  Biso   1.000  C
  C275     1.0000 0.87090  0.60980  0.82610  Biso   1.000  C
  C276     1.0000 0.92810  0.63940  0.81870  Biso   1.000  C
  H156     1.0000 0.94340  0.64510  0.79220  Biso   1.000  H
  C277     1.0000 0.96260  0.66030  0.85100  Biso   1.000  C
  H157     1.0000 0.00090  0.68010  0.84600  Biso   1.000  H
  C278     1.0000 0.93980  0.65170  0.89060  Biso   1.000  C
  H158     1.0000 0.96280  0.66570  0.91220  Biso   1.000  H
  C279     1.0000 0.88250  0.62210  0.89800  Biso   1.000  C
  H159     1.0000 0.86720  0.61640  0.92450  Biso   1.000  H
  C280     1.0000 0.84800  0.60120  0.86570  Biso   1.000  C
  H160     1.0000 0.80970  0.58140  0.87070  Biso   1.000  H
  C281     1.0000 0.40700  0.39330  0.72010  Biso   1.000  C
  C282     1.0000 0.43510  0.34730  0.71810  Biso   1.000  C
  C283     1.0000 0.42410  0.32120  0.75340  Biso   1.000  C
  H161     1.0000 0.39700  0.33120  0.77580  Biso   1.000  H
  C284     1.0000 0.45330  0.28230  0.75350  Biso   1.000  C
  H162     1.0000 0.44560  0.26580  0.77630  Biso   1.000  H
  C285     1.0000 0.49560  0.26580  0.71980  Biso   1.000  C
  C286     1.0000 0.50430  0.29310  0.68560  Biso   1.000  C
  C287     1.0000 0.47510  0.33110  0.68580  Biso   1.000  C
  H163     1.0000 0.48210  0.34760  0.66290  Biso   1.000  H
  C288     1.0000 0.52890  0.22430  0.72150  Biso   1.000  C
  C289     1.0000 0.58370  0.21380  0.75120  Biso   1.000  C
  H164     1.0000 0.60080  0.23460  0.76880  Biso   1.000  H
  C290     1.0000 0.61310  0.17520  0.75590  Biso   1.000  C
  H165     1.0000 0.64870  0.16980  0.77660  Biso   1.000  H
  C291     1.0000 0.59050  0.14390  0.73020  Biso   1.000  C
  C292     1.0000 0.53670  0.15220  0.70140  Biso   1.000  C
  H166     1.0000 0.52060  0.13110  0.68390  Biso   1.000  H
  C293     1.0000 0.50530  0.19130  0.69750  Biso   1.000  C
  C294     1.0000 0.52720  0.24690  0.63140  Biso   1.000  C
  C295     1.0000 0.57840  0.22890  0.59890  Biso   1.000  C
  C296     1.0000 0.56660  0.18960  0.58270  Biso   1.000  C
  H167     1.0000 0.52490  0.17350  0.59150  Biso   1.000  H
  C297     1.0000 0.61700  0.17430  0.55320  Biso   1.000  C
  H168     1.0000 0.60910  0.14800  0.54240  Biso   1.000  H
  C298     1.0000 0.67930  0.19840  0.54000  Biso   1.000  C
  H169     1.0000 0.71310  0.18810  0.52030  Biso   1.000  H
  C299     1.0000 0.69110  0.23770  0.55630  Biso   1.000  C
  H170     1.0000 0.73280  0.25380  0.54750  Biso   1.000  H
  C300     1.0000 0.64070  0.25300  0.58570  Biso   1.000  C
  H171     1.0000 0.64860  0.27930  0.59660  Biso   1.000  H
  C301     1.0000 0.45500  0.22580  0.63960  Biso   1.000  C
  C302     1.0000 0.38720  0.23270  0.61050  Biso   1.000  C
  C303     1.0000 0.32240  0.20690  0.60930  Biso   1.000  C
  H172     1.0000 0.31910  0.18430  0.62680  Biso   1.000  H
  C304     1.0000 0.26260  0.21480  0.58200  Biso   1.000  C
  H173     1.0000 0.21920  0.19750  0.58120  Biso   1.000  H
  C305     1.0000 0.26760  0.24860  0.55580  Biso   1.000  C
  H174     1.0000 0.22750  0.25390  0.53750  Biso   1.000  H
  C306     1.0000 0.33240  0.27450  0.55700  Biso   1.000  C
  H175     1.0000 0.33570  0.29710  0.53950  Biso   1.000  H
  C307     1.0000 0.39220  0.26650  0.58440  Biso   1.000  C
  H176     1.0000 0.43560  0.28380  0.58520  Biso   1.000  H
  C308     1.0000 0.62350  0.09850  0.73500  Biso   1.000  C
  C309     1.0000 0.33690  0.52590  0.63500  Biso   1.000  C
  C310     1.0000 0.31500  0.53240  0.58870  Biso   1.000  C
  C311     1.0000 0.35760  0.51350  0.55980  Biso   1.000  C
  H177     1.0000 0.40140  0.49790  0.56660  Biso   1.000  H
  C312     1.0000 0.33490  0.51770  0.52010  Biso   1.000  C
  H178     1.0000 0.36550  0.50610  0.49970  Biso   1.000  H
  C313     1.0000 0.26480  0.53980  0.50900  Biso   1.000  C
  C314     1.0000 0.25020  0.55780  0.57910  Biso   1.000  C
  H179     1.0000 0.22480  0.57260  0.59940  Biso   1.000  H
  C315     1.0000 0.24230  0.54010  0.46750  Biso   1.000  C
  C316     1.0000 0.28250  0.55740  0.43660  Biso   1.000  C
  H180     1.0000 0.32880  0.57080  0.44320  Biso   1.000  H
  C317     1.0000 0.17350  0.52330  0.45600  Biso   1.000  C
  C318     1.0000 0.26120  0.55710  0.39670  Biso   1.000  C
  H181     1.0000 0.29180  0.57010  0.37710  Biso   1.000  H
  C319     1.0000 0.14810  0.52000  0.41590  Biso   1.000  C
  H182     1.0000 0.10170  0.50650  0.40980  Biso   1.000  H
  C320     1.0000 0.19240  0.53670  0.38580  Biso   1.000  C
  C321     1.0000 0.17270  0.53270  0.34030  Biso   1.000  C
  C322     1.0000 0.09500  0.54300  0.51630  Biso   1.000  C
  C323     1.0000 0.00300  0.48190  0.54470  Biso   1.000  C
  H183     1.0000 0.00350  0.46800  0.52000  Biso   1.000  H
  C324     1.0000 0.04100  0.51980  0.54880  Biso   1.000  C
  C325     1.0000 0.03900  0.54060  0.58580  Biso   1.000  C
  H184     1.0000 0.06460  0.56600  0.58850  Biso   1.000  H
  C326     1.0000 0.00000  0.52340  0.61870  Biso   1.000  C
  H185     1.0000 0.99940  0.53730  0.64350  Biso   1.000  H
  C327     1.0000 0.96200  0.48550  0.61470  Biso   1.000  C
  H186     1.0000 0.93620  0.47400  0.63670  Biso   1.000  H
  C328     1.0000 0.96400  0.46470  0.57770  Biso   1.000  C
  H187     1.0000 0.93830  0.43930  0.57490  Biso   1.000  H
  C329     1.0000 0.22600  0.56030  0.54060  Biso   1.000  C
  N20      1.0000 0.17000  0.59080  0.53060  Biso   1.000  N
  C330     1.0000 0.09600  0.57940  0.52500  Biso   1.000  C
  C331     1.0000 0.04300  0.61190  0.50880  Biso   1.000  C
  C332     1.0000 0.05100  0.65400  0.51830  Biso   1.000  C
  H188     1.0000 0.08860  0.66290  0.53670  Biso   1.000  H
  C333     1.0000 0.00200  0.68220  0.49960  Biso   1.000  C
  H189     1.0000 0.00620  0.71020  0.50600  Biso   1.000  H
  C334     1.0000 0.94500  0.66970  0.47100  Biso   1.000  C
  H190     1.0000 0.91430  0.68940  0.45830  Biso   1.000  H
  C335     1.0000 0.93600  0.62770  0.46200  Biso   1.000  C
  H191     1.0000 0.89730  0.61820  0.44510  Biso   1.000  H
  C336     1.0000 0.98900  0.60010  0.48110  Biso   1.000  C
  H192     1.0000 0.98730  0.57220  0.47390  Biso   1.000  H
  N21      1.0000 0.79100  0.55350  0.79980  Biso   1.000  N
  N22      1.0000 0.54830  0.27860  0.65080  Biso   1.000  N
  N23      1.0000 0.44570  0.19750  0.66930  Biso   1.000  N
  N24      1.0000 0.11600  0.51310  0.48660  Biso   1.000  N
  O40      1.0000 0.34720  0.49400  0.73770  Biso   1.000  O
  O41      1.0000 0.17230  0.47870  0.75190  Biso   1.000  O
  O42      1.0000 0.52060  0.50620  0.77120  Biso   1.000  O
  O43      1.0000 0.17830  0.54370  0.72710  Biso   1.000  O
  O44      1.0000 0.52080  0.49120  0.70440  Biso   1.000  O
  O45      1.0000 0.36610  0.40350  0.74840  Biso   1.000  O
  O46      1.0000 0.42880  0.41480  0.68970  Biso   1.000  O
  O47      1.0000 0.67200  0.09380  0.76420  Biso   1.000  O
  O48      1.0000 0.59480  0.07180  0.71230  Biso   1.000  O
  O49      1.0000 0.38860  0.49890  0.64300  Biso   1.000  O
  O50      1.0000 0.29430  0.54560  0.66020  Biso   1.000  O
  O51      1.0000 0.11120  0.50940  0.33410  Biso   1.000  O
  O52      1.0000 0.21330  0.54890  0.31520  Biso   1.000  O
  Zn13     1.0000 0.27674  0.44723  0.75348  Biso   1.000  Zn
  Zn14     1.0000 0.28630  0.54132  0.71868  Biso   1.000  Zn
  Zn15     1.0000 0.41159  0.47364  0.69409  Biso   1.000  Zn
  Zn16     1.0000 0.41144  0.51247  0.78174  Biso   1.000  Zn
