data_NACYUM_clean
_audit_creation_date              2014-07-02
_audit_creation_method            'Materials Studio'
_symmetry_space_group_name_H-M    'P1'
_symmetry_Int_Tables_number       1
_symmetry_cell_setting            triclinic
loop_
_symmetry_equiv_pos_as_xyz
  x,y,z
_cell_length_a                    8.7734
_cell_length_b                    15.5070
_cell_length_c                    17.2640
_cell_angle_alpha                 90.0000
_cell_angle_beta                  90.0000
_cell_angle_gamma                 93.9400
loop_
_atom_site_label
_atom_site_type_symbol
_atom_site_fract_x
_atom_site_fract_y
_atom_site_fract_z
_atom_site_U_iso_or_equiv
_atom_site_adp_type
_atom_site_occupancy
V1     V     0.94123   0.33416   0.98200   0.01267  Uiso   1.00
V2     V     0.05877   0.16584   0.48200   0.01267  Uiso   1.00
V3     V     0.05877   0.66584   0.01800   0.01267  Uiso   1.00
V4     V     0.94123   0.83416   0.51800   0.01267  Uiso   1.00
Co1    Co    0.80822   0.63445   0.76042   0.01267  Uiso   1.00
Co2    Co    0.19178   0.86555   0.26042   0.01267  Uiso   1.00
Co3    Co    0.19178   0.36555   0.23958   0.01267  Uiso   1.00
Co4    Co    0.80822   0.13445   0.73958   0.01267  Uiso   1.00
P1     P     0.94376   0.51020   0.89318   0.01267  Uiso   1.00
P2     P     0.05624   0.98980   0.39318   0.01267  Uiso   1.00
P3     P     0.05624   0.48980   0.10682   0.01267  Uiso   1.00
P4     P     0.94376   0.01020   0.60682   0.01267  Uiso   1.00
H1     H     0.76540   0.52100   0.99480   0.01267  Uiso   1.00
H2     H     0.67950   0.52280   0.91280   0.01267  Uiso   1.00
H3     H     0.68700   0.40510   0.83300   0.01267  Uiso   1.00
H4     H     0.55100   0.35120   0.87670   0.01267  Uiso   1.00
H5     H     0.50290   0.37470   0.99200   0.01267  Uiso   1.00
H6     H     0.61470   0.42750   0.05110   0.01267  Uiso   1.00
H7     H     0.46330   0.61310   0.80780   0.01267  Uiso   1.00
H8     H     0.25910   0.51010   0.80470   0.01267  Uiso   1.00
H9     H     0.51360   0.36240   0.66840   0.01267  Uiso   1.00
H10    H     0.70930   0.47010   0.67590   0.01267  Uiso   1.00
H11    H     0.87120   0.32610   0.70960   0.01267  Uiso   1.00
H12    H     0.06350   0.43530   0.71850   0.01267  Uiso   1.00
H13    H     0.36400   0.25150   0.75040   0.01267  Uiso   1.00
H14    H     0.16090   0.14790   0.74640   0.01267  Uiso   1.00
H15    H     0.23460   0.97900   0.49480   0.01267  Uiso   1.00
H16    H     0.32050   0.97720   0.41280   0.01267  Uiso   1.00
H17    H     0.31300   0.09490   0.33300   0.01267  Uiso   1.00
H18    H     0.44900   0.14880   0.37670   0.01267  Uiso   1.00
H19    H     0.49710   0.12530   0.49200   0.01267  Uiso   1.00
H20    H     0.38530   0.07250   0.55110   0.01267  Uiso   1.00
H21    H     0.53670   0.88690   0.30780   0.01267  Uiso   1.00
H22    H     0.74090   0.98990   0.30470   0.01267  Uiso   1.00
H23    H     0.48640   0.13760   0.16840   0.01267  Uiso   1.00
H24    H     0.29070   0.02990   0.17590   0.01267  Uiso   1.00
H25    H     0.12880   0.17390   0.20960   0.01267  Uiso   1.00
H26    H     0.93650   0.06470   0.21850   0.01267  Uiso   1.00
H27    H     0.63600   0.24850   0.25040   0.01267  Uiso   1.00
H28    H     0.83910   0.35210   0.24640   0.01267  Uiso   1.00
H29    H     0.23460   0.47900   0.00520   0.01267  Uiso   1.00
H30    H     0.32050   0.47720   0.08720   0.01267  Uiso   1.00
H31    H     0.31300   0.59490   0.16700   0.01267  Uiso   1.00
H32    H     0.44900   0.64880   0.12330   0.01267  Uiso   1.00
H33    H     0.49710   0.62530   0.00800   0.01267  Uiso   1.00
H34    H     0.38530   0.57250   0.94890   0.01267  Uiso   1.00
H35    H     0.53670   0.38690   0.19220   0.01267  Uiso   1.00
H36    H     0.74090   0.48990   0.19530   0.01267  Uiso   1.00
H37    H     0.48640   0.63760   0.33160   0.01267  Uiso   1.00
H38    H     0.29070   0.52990   0.32410   0.01267  Uiso   1.00
H39    H     0.12880   0.67390   0.29040   0.01267  Uiso   1.00
H40    H     0.93650   0.56470   0.28150   0.01267  Uiso   1.00
H41    H     0.63600   0.74850   0.24960   0.01267  Uiso   1.00
H42    H     0.83910   0.85210   0.25360   0.01267  Uiso   1.00
H43    H     0.76540   0.02100   0.50520   0.01267  Uiso   1.00
H44    H     0.67950   0.02280   0.58720   0.01267  Uiso   1.00
H45    H     0.68700   0.90510   0.66700   0.01267  Uiso   1.00
H46    H     0.55100   0.85120   0.62330   0.01267  Uiso   1.00
H47    H     0.50290   0.87470   0.50800   0.01267  Uiso   1.00
H48    H     0.61470   0.92750   0.44890   0.01267  Uiso   1.00
H49    H     0.46330   0.11310   0.69220   0.01267  Uiso   1.00
H50    H     0.25910   0.01010   0.69530   0.01267  Uiso   1.00
H51    H     0.51360   0.86240   0.83160   0.01267  Uiso   1.00
H52    H     0.70930   0.97010   0.82410   0.01267  Uiso   1.00
H53    H     0.87120   0.82610   0.79040   0.01267  Uiso   1.00
H54    H     0.06350   0.93530   0.78150   0.01267  Uiso   1.00
H55    H     0.36400   0.75150   0.74960   0.01267  Uiso   1.00
H56    H     0.16090   0.64790   0.75360   0.01267  Uiso   1.00
C1     C     0.75860   0.49450   0.94260   0.01267  Uiso   1.00
C2     C     0.66340   0.36240   0.87470   0.01267  Uiso   1.00
C3     C     0.73480   0.27890   0.85440   0.01267  Uiso   1.00
C4     C     0.60820   0.37990   0.01280   0.01267  Uiso   1.00
C5     C     0.64190   0.29570   0.05310   0.01267  Uiso   1.00
C6     C     0.47380   0.56100   0.77990   0.01267  Uiso   1.00
C7     C     0.35100   0.50000   0.77810   0.01267  Uiso   1.00
C8     C     0.36390   0.42370   0.73700   0.01267  Uiso   1.00
C9     C     0.50070   0.41310   0.69800   0.01267  Uiso   1.00
C10    C     0.61710   0.47770   0.70310   0.01267  Uiso   1.00
C11    C     0.97260   0.31110   0.71910   0.01267  Uiso   1.00
C12    C     0.08670   0.37650   0.72320   0.01267  Uiso   1.00
C13    C     0.23630   0.35500   0.73420   0.01267  Uiso   1.00
C14    C     0.26300   0.26840   0.74270   0.01267  Uiso   1.00
C15    C     0.14150   0.20700   0.73980   0.01267  Uiso   1.00
C16    C     0.24140   0.00550   0.44260   0.01267  Uiso   1.00
C17    C     0.33660   0.13760   0.37470   0.01267  Uiso   1.00
C18    C     0.26520   0.22110   0.35440   0.01267  Uiso   1.00
C19    C     0.39180   0.12010   0.51280   0.01267  Uiso   1.00
C20    C     0.35810   0.20430   0.55310   0.01267  Uiso   1.00
C21    C     0.52620   0.93900   0.27990   0.01267  Uiso   1.00
C22    C     0.64900   0.00000   0.27810   0.01267  Uiso   1.00
C23    C     0.63610   0.07630   0.23700   0.01267  Uiso   1.00
C24    C     0.49930   0.08690   0.19800   0.01267  Uiso   1.00
C25    C     0.38290   0.02230   0.20310   0.01267  Uiso   1.00
C26    C     0.02740   0.18890   0.21910   0.01267  Uiso   1.00
C27    C     0.91330   0.12350   0.22320   0.01267  Uiso   1.00
C28    C     0.76370   0.14500   0.23420   0.01267  Uiso   1.00
C29    C     0.73700   0.23160   0.24270   0.01267  Uiso   1.00
C30    C     0.85850   0.29300   0.23980   0.01267  Uiso   1.00
C31    C     0.24140   0.50550   0.05740   0.01267  Uiso   1.00
C32    C     0.33660   0.63760   0.12530   0.01267  Uiso   1.00
C33    C     0.26520   0.72110   0.14560   0.01267  Uiso   1.00
C34    C     0.39180   0.62010   0.98720   0.01267  Uiso   1.00
C35    C     0.35810   0.70430   0.94690   0.01267  Uiso   1.00
C36    C     0.52620   0.43900   0.22010   0.01267  Uiso   1.00
C37    C     0.64900   0.50000   0.22190   0.01267  Uiso   1.00
C38    C     0.63610   0.57630   0.26300   0.01267  Uiso   1.00
C39    C     0.49930   0.58690   0.30200   0.01267  Uiso   1.00
C40    C     0.38290   0.52230   0.29690   0.01267  Uiso   1.00
C41    C     0.02740   0.68890   0.28090   0.01267  Uiso   1.00
C42    C     0.91330   0.62350   0.27680   0.01267  Uiso   1.00
C43    C     0.76370   0.64500   0.26580   0.01267  Uiso   1.00
C44    C     0.73700   0.73160   0.25730   0.01267  Uiso   1.00
C45    C     0.85850   0.79300   0.26020   0.01267  Uiso   1.00
C46    C     0.75860   0.99450   0.55740   0.01267  Uiso   1.00
C47    C     0.66340   0.86240   0.62530   0.01267  Uiso   1.00
C48    C     0.73480   0.77890   0.64560   0.01267  Uiso   1.00
C49    C     0.60820   0.87990   0.48720   0.01267  Uiso   1.00
C50    C     0.64190   0.79570   0.44690   0.01267  Uiso   1.00
C51    C     0.47380   0.06100   0.72010   0.01267  Uiso   1.00
C52    C     0.35100   0.00000   0.72190   0.01267  Uiso   1.00
C53    C     0.36390   0.92370   0.76300   0.01267  Uiso   1.00
C54    C     0.50070   0.91310   0.80200   0.01267  Uiso   1.00
C55    C     0.61710   0.97770   0.79690   0.01267  Uiso   1.00
C56    C     0.97260   0.81110   0.78090   0.01267  Uiso   1.00
C57    C     0.08670   0.87650   0.77680   0.01267  Uiso   1.00
C58    C     0.23630   0.85500   0.76580   0.01267  Uiso   1.00
C59    C     0.26300   0.76840   0.75730   0.01267  Uiso   1.00
C60    C     0.14150   0.70700   0.76020   0.01267  Uiso   1.00
N1     N     0.71630   0.40046   0.94939   0.01267  Uiso   1.00
N2     N     0.60710   0.55025   0.74423   0.01267  Uiso   1.00
N3     N     0.99720   0.22727   0.72802   0.01267  Uiso   1.00
N4     N     0.28370   0.09954   0.44939   0.01267  Uiso   1.00
N5     N     0.39290   0.94975   0.24423   0.01267  Uiso   1.00
N6     N     0.00280   0.27273   0.22802   0.01267  Uiso   1.00
N7     N     0.28370   0.59954   0.05061   0.01267  Uiso   1.00
N8     N     0.39290   0.44975   0.25577   0.01267  Uiso   1.00
N9     N     0.00280   0.77273   0.27198   0.01267  Uiso   1.00
N10    N     0.71630   0.90046   0.55061   0.01267  Uiso   1.00
N11    N     0.60710   0.05025   0.75577   0.01267  Uiso   1.00
N12    N     0.99720   0.72727   0.77198   0.01267  Uiso   1.00
O1     O     0.91820   0.53310   0.80932   0.01267  Uiso   1.00
O2     O     0.04210   0.58096   0.93448   0.01267  Uiso   1.00
O3     O     0.01290   0.42274   0.90311   0.01267  Uiso   1.00
O4     O     0.85100   0.26053   0.89396   0.01267  Uiso   1.00
O5     O     0.68250   0.23443   0.79931   0.01267  Uiso   1.00
O6     O     0.77580   0.26937   0.04514   0.01267  Uiso   1.00
O7     O     0.53970   0.25840   0.09281   0.01267  Uiso   1.00
O8     O     0.08180   0.96690   0.30932   0.01267  Uiso   1.00
O9     O     0.95790   0.91904   0.43448   0.01267  Uiso   1.00
O10    O     0.98710   0.07726   0.40311   0.01267  Uiso   1.00
O11    O     0.14900   0.23947   0.39396   0.01267  Uiso   1.00
O12    O     0.31750   0.26557   0.29931   0.01267  Uiso   1.00
O13    O     0.22420   0.23063   0.54514   0.01267  Uiso   1.00
O14    O     0.46030   0.24160   0.59281   0.01267  Uiso   1.00
O15    O     0.08180   0.46690   0.19068   0.01267  Uiso   1.00
O16    O     0.95790   0.41904   0.06552   0.01267  Uiso   1.00
O17    O     0.98710   0.57726   0.09689   0.01267  Uiso   1.00
O18    O     0.14900   0.73947   0.10604   0.01267  Uiso   1.00
O19    O     0.31750   0.76557   0.20069   0.01267  Uiso   1.00
O20    O     0.22420   0.73063   0.95486   0.01267  Uiso   1.00
O21    O     0.46030   0.74160   0.90719   0.01267  Uiso   1.00
O22    O     0.91820   0.03310   0.69068   0.01267  Uiso   1.00
O23    O     0.04210   0.08096   0.56552   0.01267  Uiso   1.00
O24    O     0.01290   0.92274   0.59689   0.01267  Uiso   1.00
O25    O     0.85100   0.76053   0.60604   0.01267  Uiso   1.00
O26    O     0.68250   0.73443   0.70069   0.01267  Uiso   1.00
O27    O     0.77580   0.76937   0.45486   0.01267  Uiso   1.00
O28    O     0.53970   0.75840   0.40719   0.01267  Uiso   1.00
