data_NACYOG_clean
_audit_creation_date              2014-07-02
_audit_creation_method            'Materials Studio'
_symmetry_space_group_name_H-M    'P1'
_symmetry_Int_Tables_number       1
_symmetry_cell_setting            triclinic
loop_
_symmetry_equiv_pos_as_xyz
  x,y,z
_cell_length_a                    9.1267
_cell_length_b                    15.3610
_cell_length_c                    17.6100
_cell_angle_alpha                 90.0000
_cell_angle_beta                  90.0000
_cell_angle_gamma                 93.0600
loop_
_atom_site_label
_atom_site_type_symbol
_atom_site_fract_x
_atom_site_fract_y
_atom_site_fract_z
_atom_site_U_iso_or_equiv
_atom_site_adp_type
_atom_site_occupancy
V1     V     0.07003   0.66758   0.98824   0.01267  Uiso   1.00
V2     V     0.92997   0.83242   0.48824   0.01267  Uiso   1.00
V3     V     0.92997   0.33242   0.01176   0.01267  Uiso   1.00
V4     V     0.07003   0.16758   0.51176   0.01267  Uiso   1.00
Cd1    Cd    0.17945   0.36591   0.75685   0.01267  Uiso   1.00
Cd2    Cd    0.82055   0.13409   0.25685   0.01267  Uiso   1.00
Cd3    Cd    0.82055   0.63409   0.24315   0.01267  Uiso   1.00
Cd4    Cd    0.17945   0.86591   0.74315   0.01267  Uiso   1.00
P1     P     0.04823   0.49277   0.89530   0.01267  Uiso   1.00
P2     P     0.95177   0.00723   0.39530   0.01267  Uiso   1.00
P3     P     0.95177   0.50723   0.10470   0.01267  Uiso   1.00
P4     P     0.04823   0.99277   0.60470   0.01267  Uiso   1.00
H1     H     0.21740   0.47110   0.99450   0.01267  Uiso   1.00
H2     H     0.29960   0.46820   0.91400   0.01267  Uiso   1.00
H3     H     0.30930   0.58830   0.83880   0.01267  Uiso   1.00
H4     H     0.43840   0.64080   0.88350   0.01267  Uiso   1.00
H5     H     0.48310   0.60590   0.99500   0.01267  Uiso   1.00
H6     H     0.36800   0.56040   0.05330   0.01267  Uiso   1.00
H7     H     0.52190   0.39060   0.80770   0.01267  Uiso   1.00
H8     H     0.72150   0.49030   0.80350   0.01267  Uiso   1.00
H9     H     0.48450   0.64230   0.66680   0.01267  Uiso   1.00
H10    H     0.29390   0.53600   0.67290   0.01267  Uiso   1.00
H11    H     0.10310   0.66490   0.72070   0.01267  Uiso   1.00
H12    H     0.91200   0.55940   0.72420   0.01267  Uiso   1.00
H13    H     0.62920   0.75280   0.74350   0.01267  Uiso   1.00
H14    H     0.82910   0.85250   0.74220   0.01267  Uiso   1.00
H15    H     0.78260   0.02890   0.49450   0.01267  Uiso   1.00
H16    H     0.70040   0.03180   0.41400   0.01267  Uiso   1.00
H17    H     0.69070   0.91170   0.33880   0.01267  Uiso   1.00
H18    H     0.56160   0.85920   0.38350   0.01267  Uiso   1.00
H19    H     0.51690   0.89410   0.49500   0.01267  Uiso   1.00
H20    H     0.63200   0.93960   0.55330   0.01267  Uiso   1.00
H21    H     0.47810   0.10940   0.30770   0.01267  Uiso   1.00
H22    H     0.27850   0.00970   0.30350   0.01267  Uiso   1.00
H23    H     0.51550   0.85770   0.16680   0.01267  Uiso   1.00
H24    H     0.70610   0.96400   0.17290   0.01267  Uiso   1.00
H25    H     0.89690   0.83510   0.22070   0.01267  Uiso   1.00
H26    H     0.08800   0.94060   0.22420   0.01267  Uiso   1.00
H27    H     0.37080   0.74720   0.24350   0.01267  Uiso   1.00
H28    H     0.17090   0.64750   0.24220   0.01267  Uiso   1.00
H29    H     0.78260   0.52890   0.00550   0.01267  Uiso   1.00
H30    H     0.70040   0.53180   0.08600   0.01267  Uiso   1.00
H31    H     0.69070   0.41170   0.16120   0.01267  Uiso   1.00
H32    H     0.56160   0.35920   0.11650   0.01267  Uiso   1.00
H33    H     0.51690   0.39410   0.00500   0.01267  Uiso   1.00
H34    H     0.63200   0.43960   0.94670   0.01267  Uiso   1.00
H35    H     0.47810   0.60940   0.19230   0.01267  Uiso   1.00
H36    H     0.27850   0.50970   0.19650   0.01267  Uiso   1.00
H37    H     0.51550   0.35770   0.33320   0.01267  Uiso   1.00
H38    H     0.70610   0.46400   0.32710   0.01267  Uiso   1.00
H39    H     0.89690   0.33510   0.27930   0.01267  Uiso   1.00
H40    H     0.08800   0.44060   0.27580   0.01267  Uiso   1.00
H41    H     0.37080   0.24720   0.25650   0.01267  Uiso   1.00
H42    H     0.17090   0.14750   0.25780   0.01267  Uiso   1.00
H43    H     0.21740   0.97110   0.50550   0.01267  Uiso   1.00
H44    H     0.29960   0.96820   0.58600   0.01267  Uiso   1.00
H45    H     0.30930   0.08830   0.66120   0.01267  Uiso   1.00
H46    H     0.43840   0.14080   0.61650   0.01267  Uiso   1.00
H47    H     0.48310   0.10590   0.50500   0.01267  Uiso   1.00
H48    H     0.36800   0.06040   0.44670   0.01267  Uiso   1.00
H49    H     0.52190   0.89060   0.69230   0.01267  Uiso   1.00
H50    H     0.72150   0.99030   0.69650   0.01267  Uiso   1.00
H51    H     0.48450   0.14230   0.83320   0.01267  Uiso   1.00
H52    H     0.29390   0.03600   0.82710   0.01267  Uiso   1.00
H53    H     0.10310   0.16490   0.77930   0.01267  Uiso   1.00
H54    H     0.91200   0.05940   0.77580   0.01267  Uiso   1.00
H55    H     0.62920   0.25280   0.75650   0.01267  Uiso   1.00
H56    H     0.82910   0.35250   0.75780   0.01267  Uiso   1.00
C1     C     0.22670   0.49910   0.94400   0.01267  Uiso   1.00
C2     C     0.33060   0.63070   0.88020   0.01267  Uiso   1.00
C3     C     0.26320   0.71590   0.86030   0.01267  Uiso   1.00
C4     C     0.38200   0.60750   0.01510   0.01267  Uiso   1.00
C5     C     0.36200   0.69530   0.05300   0.01267  Uiso   1.00
C6     C     0.51470   0.44240   0.77880   0.01267  Uiso   1.00
C7     C     0.63410   0.50160   0.77680   0.01267  Uiso   1.00
C8     C     0.62470   0.57810   0.73510   0.01267  Uiso   1.00
C9     C     0.49500   0.59100   0.69600   0.01267  Uiso   1.00
C10    C     0.38140   0.52750   0.70050   0.01267  Uiso   1.00
C11    C     0.00550   0.68270   0.72600   0.01267  Uiso   1.00
C12    C     0.89210   0.61930   0.72730   0.01267  Uiso   1.00
C13    C     0.74910   0.64440   0.73330   0.01267  Uiso   1.00
C14    C     0.72580   0.73320   0.73910   0.01267  Uiso   1.00
C15    C     0.84550   0.79210   0.73820   0.01267  Uiso   1.00
C16    C     0.77330   0.00090   0.44400   0.01267  Uiso   1.00
C17    C     0.66940   0.86930   0.38020   0.01267  Uiso   1.00
C18    C     0.73680   0.78410   0.36030   0.01267  Uiso   1.00
C19    C     0.61800   0.89250   0.51510   0.01267  Uiso   1.00
C20    C     0.63800   0.80470   0.55300   0.01267  Uiso   1.00
C21    C     0.48530   0.05760   0.27880   0.01267  Uiso   1.00
C22    C     0.36590   0.99840   0.27680   0.01267  Uiso   1.00
C23    C     0.37530   0.92190   0.23510   0.01267  Uiso   1.00
C24    C     0.50500   0.90900   0.19600   0.01267  Uiso   1.00
C25    C     0.61860   0.97250   0.20050   0.01267  Uiso   1.00
C26    C     0.99450   0.81730   0.22600   0.01267  Uiso   1.00
C27    C     0.10790   0.88070   0.22730   0.01267  Uiso   1.00
C28    C     0.25090   0.85560   0.23330   0.01267  Uiso   1.00
C29    C     0.27420   0.76680   0.23910   0.01267  Uiso   1.00
C30    C     0.15450   0.70790   0.23820   0.01267  Uiso   1.00
C31    C     0.77330   0.50090   0.05600   0.01267  Uiso   1.00
C32    C     0.66940   0.36930   0.11980   0.01267  Uiso   1.00
C33    C     0.73680   0.28410   0.13970   0.01267  Uiso   1.00
C34    C     0.61800   0.39250   0.98490   0.01267  Uiso   1.00
C35    C     0.63800   0.30470   0.94700   0.01267  Uiso   1.00
C36    C     0.48530   0.55760   0.22120   0.01267  Uiso   1.00
C37    C     0.36590   0.49840   0.22320   0.01267  Uiso   1.00
C38    C     0.37530   0.42190   0.26490   0.01267  Uiso   1.00
C39    C     0.50500   0.40900   0.30400   0.01267  Uiso   1.00
C40    C     0.61860   0.47250   0.29950   0.01267  Uiso   1.00
C41    C     0.99450   0.31730   0.27400   0.01267  Uiso   1.00
C42    C     0.10790   0.38070   0.27270   0.01267  Uiso   1.00
C43    C     0.25090   0.35560   0.26670   0.01267  Uiso   1.00
C44    C     0.27420   0.26680   0.26090   0.01267  Uiso   1.00
C45    C     0.15450   0.20790   0.26180   0.01267  Uiso   1.00
C46    C     0.22670   0.99910   0.55600   0.01267  Uiso   1.00
C47    C     0.33060   0.13070   0.61980   0.01267  Uiso   1.00
C48    C     0.26320   0.21590   0.63970   0.01267  Uiso   1.00
C49    C     0.38200   0.10750   0.48490   0.01267  Uiso   1.00
C50    C     0.36200   0.19530   0.44700   0.01267  Uiso   1.00
C51    C     0.51470   0.94240   0.72120   0.01267  Uiso   1.00
C52    C     0.63410   0.00160   0.72320   0.01267  Uiso   1.00
C53    C     0.62470   0.07810   0.76490   0.01267  Uiso   1.00
C54    C     0.49500   0.09100   0.80400   0.01267  Uiso   1.00
C55    C     0.38140   0.02750   0.79950   0.01267  Uiso   1.00
C56    C     0.00550   0.18270   0.77400   0.01267  Uiso   1.00
C57    C     0.89210   0.11930   0.77270   0.01267  Uiso   1.00
C58    C     0.74910   0.14440   0.76670   0.01267  Uiso   1.00
C59    C     0.72580   0.23320   0.76090   0.01267  Uiso   1.00
C60    C     0.84550   0.29210   0.76180   0.01267  Uiso   1.00
N1     N     0.27580   0.59255   0.95268   0.01267  Uiso   1.00
N2     N     0.38920   0.45480   0.74179   0.01267  Uiso   1.00
N3     N     0.98400   0.76780   0.73190   0.01267  Uiso   1.00
N4     N     0.72420   0.90745   0.45268   0.01267  Uiso   1.00
N5     N     0.61080   0.04520   0.24179   0.01267  Uiso   1.00
N6     N     0.01600   0.73220   0.23190   0.01267  Uiso   1.00
N7     N     0.72420   0.40745   0.04732   0.01267  Uiso   1.00
N8     N     0.61080   0.54520   0.25821   0.01267  Uiso   1.00
N9     N     0.01600   0.23220   0.26810   0.01267  Uiso   1.00
N10    N     0.27580   0.09255   0.54732   0.01267  Uiso   1.00
N11    N     0.38920   0.95480   0.75821   0.01267  Uiso   1.00
N12    N     0.98400   0.26780   0.76810   0.01267  Uiso   1.00
O1     O     0.07100   0.47850   0.81133   0.01267  Uiso   1.00
O2     O     0.95090   0.41920   0.93022   0.01267  Uiso   1.00
O3     O     0.98540   0.58208   0.91232   0.01267  Uiso   1.00
O4     O     0.15490   0.73909   0.90003   0.01267  Uiso   1.00
O5     O     0.31330   0.75765   0.80440   0.01267  Uiso   1.00
O6     O     0.23580   0.72609   0.04750   0.01267  Uiso   1.00
O7     O     0.46630   0.73080   0.08834   0.01267  Uiso   1.00
O8     O     0.92900   0.02150   0.31133   0.01267  Uiso   1.00
O9     O     0.04910   0.08080   0.43022   0.01267  Uiso   1.00
O10    O     0.01460   0.91792   0.41232   0.01267  Uiso   1.00
O11    O     0.84510   0.76091   0.40003   0.01267  Uiso   1.00
O12    O     0.68670   0.74235   0.30440   0.01267  Uiso   1.00
O13    O     0.76420   0.77391   0.54750   0.01267  Uiso   1.00
O14    O     0.53370   0.76920   0.58834   0.01267  Uiso   1.00
O15    O     0.92900   0.52150   0.18867   0.01267  Uiso   1.00
O16    O     0.04910   0.58080   0.06978   0.01267  Uiso   1.00
O17    O     0.01460   0.41792   0.08768   0.01267  Uiso   1.00
O18    O     0.84510   0.26091   0.09997   0.01267  Uiso   1.00
O19    O     0.68670   0.24235   0.19560   0.01267  Uiso   1.00
O20    O     0.76420   0.27391   0.95250   0.01267  Uiso   1.00
O21    O     0.53370   0.26920   0.91166   0.01267  Uiso   1.00
O22    O     0.07100   0.97850   0.68867   0.01267  Uiso   1.00
O23    O     0.95090   0.91920   0.56978   0.01267  Uiso   1.00
O24    O     0.98540   0.08208   0.58768   0.01267  Uiso   1.00
O25    O     0.15490   0.23909   0.59997   0.01267  Uiso   1.00
O26    O     0.31330   0.25765   0.69560   0.01267  Uiso   1.00
O27    O     0.23580   0.22609   0.45250   0.01267  Uiso   1.00
O28    O     0.46630   0.23080   0.41166   0.01267  Uiso   1.00
