data_image0
_cell_length_a       16.1895
_cell_length_b       16.1895
_cell_length_c       10.0036
_cell_angle_alpha    90
_cell_angle_beta     90
_cell_angle_gamma    120

_symmetry_space_group_name_H-M    "P 1"
_symmetry_int_tables_number       1

loop_
  _symmetry_equiv_pos_as_xyz
  'x, y, z'

loop_
  _atom_site_label
  _atom_site_occupancy
  _atom_site_fract_x
  _atom_site_fract_y
  _atom_site_fract_z
  _atom_site_thermal_displace_type
  _atom_site_B_iso_or_equiv
  _atom_site_type_symbol
  P1       1.0000 0.60420  0.45110  0.06320  Biso   1.000  P
  P2       1.0000 0.20360  0.47150  0.45050  Biso   1.000  P
  O1       1.0000 0.65840  0.44140  0.17400  Biso   1.000  O
  O2       1.0000 0.63590  0.42740  0.93730  Biso   1.000  O
  O3       1.0000 0.62190  0.55180  0.05910  Biso   1.000  O
  O4       1.0000 0.21580  0.54050  0.56000  Biso   1.000  O
  O5       1.0000 0.25070  0.52450  0.32900  Biso   1.000  O
  O6       1.0000 0.10130  0.40180  0.42780  Biso   1.000  O
  N1       1.0000 0.41590  0.38390  0.17710  Biso   1.000  N
  N2       1.0000 0.32210  0.38350  0.41740  Biso   1.000  N
  C1       1.0000 0.47500  0.36000  0.08900  Biso   1.000  C
  C2       1.0000 0.33060  0.29460  0.22580  Biso   1.000  C
  C3       1.0000 0.26930  0.31690  0.30740  Biso   1.000  C
  C4       1.0000 0.25930  0.39990  0.51010  Biso   1.000  C
  C5       1.0000 0.41180  0.46810  0.37960  Biso   1.000  C
  C6       1.0000 0.46900  0.45530  0.27870  Biso   1.000  C
  C7       1.0000 0.18910  0.23010  0.36650  Biso   1.000  C
  C8       1.0000 0.27810  0.24090  0.10360  Biso   1.000  C
  P3       1.0000 0.54890  0.15310  0.06320  Biso   1.000  P
  P4       1.0000 0.52850  0.73210  0.45050  Biso   1.000  P
  O7       1.0000 0.55860  0.21700  0.17400  Biso   1.000  O
  O8       1.0000 0.57260  0.20850  0.93730  Biso   1.000  O
  O9       1.0000 0.44820  0.07010  0.05910  Biso   1.000  O
  O10      1.0000 0.45950  0.67530  0.56000  Biso   1.000  O
  O11      1.0000 0.47550  0.72620  0.32900  Biso   1.000  O
  O12      1.0000 0.59820  0.69950  0.42780  Biso   1.000  O
  N3       1.0000 0.61610  0.03200  0.17710  Biso   1.000  N
  N4       1.0000 0.61650  0.93860  0.41740  Biso   1.000  N
  C9       1.0000 0.64000  0.11500  0.08900  Biso   1.000  C
  C10      1.0000 0.70540  0.03600  0.22580  Biso   1.000  C
  C11      1.0000 0.68310  0.95240  0.30740  Biso   1.000  C
  C12      1.0000 0.60010  0.85940  0.51010  Biso   1.000  C
  C13      1.0000 0.53190  0.94370  0.37960  Biso   1.000  C
  C14      1.0000 0.54470  0.01370  0.27870  Biso   1.000  C
  C15      1.0000 0.76990  0.95900  0.36650  Biso   1.000  C
  C16      1.0000 0.75910  0.03720  0.10360  Biso   1.000  C
  P5       1.0000 0.84690  0.39580  0.06320  Biso   1.000  P
  P6       1.0000 0.26790  0.79640  0.45050  Biso   1.000  P
  O13      1.0000 0.78300  0.34160  0.17400  Biso   1.000  O
  O14      1.0000 0.79150  0.36410  0.93730  Biso   1.000  O
  O15      1.0000 0.92990  0.37810  0.05910  Biso   1.000  O
  O16      1.0000 0.32470  0.78420  0.56000  Biso   1.000  O
  O17      1.0000 0.27380  0.74930  0.32900  Biso   1.000  O
  O18      1.0000 0.30050  0.89870  0.42780  Biso   1.000  O
  N5       1.0000 0.96800  0.58410  0.17710  Biso   1.000  N
  N6       1.0000 0.06140  0.67790  0.41740  Biso   1.000  N
  C17      1.0000 0.88500  0.52500  0.08900  Biso   1.000  C
  C18      1.0000 0.96400  0.66940  0.22580  Biso   1.000  C
  C19      1.0000 0.04760  0.73070  0.30740  Biso   1.000  C
  C20      1.0000 0.14060  0.74070  0.51010  Biso   1.000  C
  C21      1.0000 0.05630  0.58820  0.37960  Biso   1.000  C
  C22      1.0000 0.98630  0.53100  0.27870  Biso   1.000  C
  C23      1.0000 0.04100  0.81090  0.36650  Biso   1.000  C
  C24      1.0000 0.96280  0.72190  0.10360  Biso   1.000  C
  P7       1.0000 0.39580  0.54890  0.93680  Biso   1.000  P
  P8       1.0000 0.79640  0.52850  0.54950  Biso   1.000  P
  O19      1.0000 0.34160  0.55860  0.82600  Biso   1.000  O
  O20      1.0000 0.36410  0.57260  0.06270  Biso   1.000  O
  O21      1.0000 0.37810  0.44820  0.94090  Biso   1.000  O
  O22      1.0000 0.78420  0.45950  0.44000  Biso   1.000  O
  O23      1.0000 0.74930  0.47550  0.67100  Biso   1.000  O
  O24      1.0000 0.89870  0.59820  0.57220  Biso   1.000  O
  N7       1.0000 0.58410  0.61610  0.82290  Biso   1.000  N
  N8       1.0000 0.67790  0.61650  0.58260  Biso   1.000  N
  C25      1.0000 0.52500  0.64000  0.91100  Biso   1.000  C
  C26      1.0000 0.66940  0.70540  0.77420  Biso   1.000  C
  C27      1.0000 0.73070  0.68310  0.69260  Biso   1.000  C
  C28      1.0000 0.74070  0.60010  0.48990  Biso   1.000  C
  C29      1.0000 0.58820  0.53190  0.62040  Biso   1.000  C
  C30      1.0000 0.53100  0.54470  0.72130  Biso   1.000  C
  C31      1.0000 0.81090  0.76990  0.63350  Biso   1.000  C
  C32      1.0000 0.72190  0.75910  0.89640  Biso   1.000  C
  P9       1.0000 0.45110  0.84690  0.93680  Biso   1.000  P
  P10      1.0000 0.47150  0.26790  0.54950  Biso   1.000  P
  O25      1.0000 0.44140  0.78300  0.82600  Biso   1.000  O
  O26      1.0000 0.42740  0.79150  0.06270  Biso   1.000  O
  O27      1.0000 0.55180  0.92990  0.94090  Biso   1.000  O
  O28      1.0000 0.54050  0.32470  0.44000  Biso   1.000  O
  O29      1.0000 0.52450  0.27380  0.67100  Biso   1.000  O
  O30      1.0000 0.40180  0.30050  0.57220  Biso   1.000  O
  N9       1.0000 0.38390  0.96800  0.82290  Biso   1.000  N
  N10      1.0000 0.38350  0.06140  0.58260  Biso   1.000  N
  C33      1.0000 0.36000  0.88500  0.91100  Biso   1.000  C
  C34      1.0000 0.29460  0.96400  0.77420  Biso   1.000  C
  C35      1.0000 0.31690  0.04760  0.69260  Biso   1.000  C
  C36      1.0000 0.39990  0.14060  0.48990  Biso   1.000  C
  C37      1.0000 0.46810  0.05630  0.62040  Biso   1.000  C
  C38      1.0000 0.45530  0.98630  0.72130  Biso   1.000  C
  C39      1.0000 0.23010  0.04100  0.63350  Biso   1.000  C
  C40      1.0000 0.24090  0.96280  0.89640  Biso   1.000  C
  P11      1.0000 0.15310  0.60420  0.93680  Biso   1.000  P
  P12      1.0000 0.73210  0.20360  0.54950  Biso   1.000  P
  O31      1.0000 0.21700  0.65840  0.82600  Biso   1.000  O
  O32      1.0000 0.20850  0.63590  0.06270  Biso   1.000  O
  O33      1.0000 0.07010  0.62190  0.94090  Biso   1.000  O
  O34      1.0000 0.67530  0.21580  0.44000  Biso   1.000  O
  O35      1.0000 0.72620  0.25070  0.67100  Biso   1.000  O
  O36      1.0000 0.69950  0.10130  0.57220  Biso   1.000  O
  N11      1.0000 0.03200  0.41590  0.82290  Biso   1.000  N
  N12      1.0000 0.93860  0.32210  0.58260  Biso   1.000  N
  C41      1.0000 0.11500  0.47500  0.91100  Biso   1.000  C
  C42      1.0000 0.03600  0.33060  0.77420  Biso   1.000  C
  C43      1.0000 0.95240  0.26930  0.69260  Biso   1.000  C
  C44      1.0000 0.85940  0.25930  0.48990  Biso   1.000  C
  C45      1.0000 0.94370  0.41180  0.62040  Biso   1.000  C
  C46      1.0000 0.01370  0.46900  0.72130  Biso   1.000  C
  C47      1.0000 0.95900  0.18910  0.63350  Biso   1.000  C
  C48      1.0000 0.03720  0.27810  0.89640  Biso   1.000  C
  Y1       1.0000 0.66667  0.33333  0.30810  Biso   1.000  Y
  Y2       1.0000 0.66667  0.33333  0.79470  Biso   1.000  Y
  Y3       1.0000 0.33333  0.66667  0.69190  Biso   1.000  Y
  Y4       1.0000 0.33333  0.66667  0.20530  Biso   1.000  Y
