data_image0
_cell_length_a       15.6597
_cell_length_b       15.6597
_cell_length_c       15.6597
_cell_angle_alpha    90
_cell_angle_beta     90
_cell_angle_gamma    90

_symmetry_space_group_name_H-M    "P 1"
_symmetry_int_tables_number       1

loop_
  _symmetry_equiv_pos_as_xyz
  'x, y, z'

loop_
  _atom_site_label
  _atom_site_occupancy
  _atom_site_fract_x
  _atom_site_fract_y
  _atom_site_fract_z
  _atom_site_thermal_displace_type
  _atom_site_B_iso_or_equiv
  _atom_site_type_symbol
  N1       1.0000 0.58526  0.19451  0.55729  Biso   1.000  N
  C1       1.0000 0.58270  0.13664  0.48715  Biso   1.000  C
  C2       1.0000 0.51760  0.14270  0.42820  Biso   1.000  C
  H1       1.0000 0.47760  0.18640  0.43180  Biso   1.000  H
  C3       1.0000 0.67150  0.46300  0.95400  Biso   1.000  C
  C4       1.0000 0.65430  0.54830  0.96060  Biso   1.000  C
  H2       1.0000 0.60850  0.57120  0.93050  Biso   1.000  H
  C5       1.0000 0.73970  0.43080  0.99960  Biso   1.000  C
  H3       1.0000 0.75360  0.37320  0.99600  Biso   1.000  H
  C6       1.0000 0.70340  0.60070  0.01080  Biso   1.000  C
  H4       1.0000 0.69100  0.65870  0.01390  Biso   1.000  H
  C7       1.0000 0.76990  0.56830  0.05570  Biso   1.000  C
  H5       1.0000 0.80320  0.60390  0.08970  Biso   1.000  H
  C8       1.0000 0.78730  0.48520  0.05100  Biso   1.000  C
  H6       1.0000 0.83230  0.46310  0.08280  Biso   1.000  H
  C9       1.0000 0.65064  0.20800  0.61207  Biso   1.000  C
  H7       1.0000 0.70420  0.18300  0.60640  Biso   1.000  H
  N2       1.0000 0.63011  0.26015  0.67378  Biso   1.000  N
  C10      1.0000 0.54650  0.28180  0.65760  Biso   1.000  C
  H8       1.0000 0.51400  0.31860  0.69110  Biso   1.000  H
  C11      1.0000 0.51850  0.24270  0.58740  Biso   1.000  C
  H9       1.0000 0.46440  0.24720  0.56340  Biso   1.000  H
  N3       1.0000 0.91474  0.80549  0.05729  Biso   1.000  N
  C12      1.0000 0.91730  0.86336  0.98715  Biso   1.000  C
  C13      1.0000 0.98240  0.85730  0.92820  Biso   1.000  C
  H10      1.0000 0.02240  0.81360  0.93180  Biso   1.000  H
  C14      1.0000 0.82850  0.53700  0.45400  Biso   1.000  C
  C15      1.0000 0.84570  0.45170  0.46060  Biso   1.000  C
  H11      1.0000 0.89150  0.42880  0.43050  Biso   1.000  H
  C16      1.0000 0.76030  0.56920  0.49960  Biso   1.000  C
  H12      1.0000 0.74640  0.62680  0.49600  Biso   1.000  H
  C17      1.0000 0.79660  0.39930  0.51080  Biso   1.000  C
  H13      1.0000 0.80900  0.34130  0.51390  Biso   1.000  H
  C18      1.0000 0.73010  0.43170  0.55570  Biso   1.000  C
  H14      1.0000 0.69680  0.39610  0.58970  Biso   1.000  H
  C19      1.0000 0.71270  0.51480  0.55100  Biso   1.000  C
  H15      1.0000 0.66770  0.53690  0.58280  Biso   1.000  H
  C20      1.0000 0.84936  0.79200  0.11207  Biso   1.000  C
  H16      1.0000 0.79580  0.81700  0.10640  Biso   1.000  H
  N4       1.0000 0.86989  0.73985  0.17378  Biso   1.000  N
  C21      1.0000 0.95350  0.71820  0.15760  Biso   1.000  C
  H17      1.0000 0.98600  0.68140  0.19110  Biso   1.000  H
  C22      1.0000 0.98150  0.75730  0.08740  Biso   1.000  C
  H18      1.0000 0.03560  0.75280  0.06340  Biso   1.000  H
  N5       1.0000 0.41474  0.69451  0.94271  Biso   1.000  N
  C23      1.0000 0.41730  0.63664  0.01285  Biso   1.000  C
  C24      1.0000 0.48240  0.64270  0.07180  Biso   1.000  C
  H19      1.0000 0.52240  0.68640  0.06820  Biso   1.000  H
  C25      1.0000 0.32850  0.96300  0.54600  Biso   1.000  C
  C26      1.0000 0.34570  0.04830  0.53940  Biso   1.000  C
  H20      1.0000 0.39150  0.07120  0.56950  Biso   1.000  H
  C27      1.0000 0.26030  0.93080  0.50040  Biso   1.000  C
  H21      1.0000 0.24640  0.87320  0.50400  Biso   1.000  H
  C28      1.0000 0.29660  0.10070  0.48920  Biso   1.000  C
  H22      1.0000 0.30900  0.15870  0.48610  Biso   1.000  H
  C29      1.0000 0.23010  0.06830  0.44430  Biso   1.000  C
  H23      1.0000 0.19680  0.10390  0.41030  Biso   1.000  H
  C30      1.0000 0.21270  0.98520  0.44900  Biso   1.000  C
  H24      1.0000 0.16770  0.96310  0.41720  Biso   1.000  H
  C31      1.0000 0.34936  0.70800  0.88793  Biso   1.000  C
  H25      1.0000 0.29580  0.68300  0.89360  Biso   1.000  H
  N6       1.0000 0.36989  0.76015  0.82622  Biso   1.000  N
  C32      1.0000 0.45350  0.78180  0.84240  Biso   1.000  C
  H26      1.0000 0.48600  0.81860  0.80890  Biso   1.000  H
  C33      1.0000 0.48150  0.74270  0.91260  Biso   1.000  C
  H27      1.0000 0.53560  0.74720  0.93660  Biso   1.000  H
  N7       1.0000 0.08526  0.30549  0.44271  Biso   1.000  N
  C34      1.0000 0.08270  0.36336  0.51285  Biso   1.000  C
  C35      1.0000 0.01760  0.35730  0.57180  Biso   1.000  C
  H28      1.0000 0.97760  0.31360  0.56820  Biso   1.000  H
  C36      1.0000 0.17150  0.03700  0.04600  Biso   1.000  C
  C37      1.0000 0.15430  0.95170  0.03940  Biso   1.000  C
  H29      1.0000 0.10850  0.92880  0.06950  Biso   1.000  H
  C38      1.0000 0.23970  0.06920  0.00040  Biso   1.000  C
  H30      1.0000 0.25360  0.12680  0.00400  Biso   1.000  H
  C39      1.0000 0.20340  0.89930  0.98920  Biso   1.000  C
  H31      1.0000 0.19100  0.84130  0.98610  Biso   1.000  H
  C40      1.0000 0.26990  0.93170  0.94430  Biso   1.000  C
  H32      1.0000 0.30320  0.89610  0.91030  Biso   1.000  H
  C41      1.0000 0.28730  0.01480  0.94900  Biso   1.000  C
  H33      1.0000 0.33230  0.03690  0.91720  Biso   1.000  H
  C42      1.0000 0.15064  0.29200  0.38793  Biso   1.000  C
  H34      1.0000 0.20420  0.31700  0.39360  Biso   1.000  H
  N8       1.0000 0.13011  0.23985  0.32622  Biso   1.000  N
  C43      1.0000 0.04650  0.21820  0.34240  Biso   1.000  C
  H35      1.0000 0.01400  0.18140  0.30890  Biso   1.000  H
  C44      1.0000 0.01850  0.25730  0.41260  Biso   1.000  C
  H36      1.0000 0.96440  0.25280  0.43660  Biso   1.000  H
  N9       1.0000 0.55729  0.58526  0.19451  Biso   1.000  N
  C45      1.0000 0.48715  0.58270  0.13664  Biso   1.000  C
  C46      1.0000 0.42820  0.51760  0.14270  Biso   1.000  C
  H37      1.0000 0.43180  0.47760  0.18640  Biso   1.000  H
  C47      1.0000 0.95400  0.67150  0.46300  Biso   1.000  C
  C48      1.0000 0.96060  0.65430  0.54830  Biso   1.000  C
  H38      1.0000 0.93050  0.60850  0.57120  Biso   1.000  H
  C49      1.0000 0.99960  0.73970  0.43080  Biso   1.000  C
  H39      1.0000 0.99600  0.75360  0.37320  Biso   1.000  H
  C50      1.0000 0.01080  0.70340  0.60070  Biso   1.000  C
  H40      1.0000 0.01390  0.69100  0.65870  Biso   1.000  H
  C51      1.0000 0.05570  0.76990  0.56830  Biso   1.000  C
  H41      1.0000 0.08970  0.80320  0.60390  Biso   1.000  H
  C52      1.0000 0.05100  0.78730  0.48520  Biso   1.000  C
  H42      1.0000 0.08280  0.83230  0.46310  Biso   1.000  H
  C53      1.0000 0.61207  0.65064  0.20800  Biso   1.000  C
  H43      1.0000 0.60640  0.70420  0.18300  Biso   1.000  H
  N10      1.0000 0.67378  0.63011  0.26015  Biso   1.000  N
  C54      1.0000 0.65760  0.54650  0.28180  Biso   1.000  C
  H44      1.0000 0.69110  0.51400  0.31860  Biso   1.000  H
  C55      1.0000 0.58740  0.51850  0.24270  Biso   1.000  C
  H45      1.0000 0.56340  0.46440  0.24720  Biso   1.000  H
  N11      1.0000 0.05729  0.91474  0.80549  Biso   1.000  N
  C56      1.0000 0.98715  0.91730  0.86336  Biso   1.000  C
  C57      1.0000 0.92820  0.98240  0.85730  Biso   1.000  C
  H46      1.0000 0.93180  0.02240  0.81360  Biso   1.000  H
  C58      1.0000 0.45400  0.82850  0.53700  Biso   1.000  C
  C59      1.0000 0.46060  0.84570  0.45170  Biso   1.000  C
  H47      1.0000 0.43050  0.89150  0.42880  Biso   1.000  H
  C60      1.0000 0.49960  0.76030  0.56920  Biso   1.000  C
  H48      1.0000 0.49600  0.74640  0.62680  Biso   1.000  H
  C61      1.0000 0.51080  0.79660  0.39930  Biso   1.000  C
  H49      1.0000 0.51390  0.80900  0.34130  Biso   1.000  H
  C62      1.0000 0.55570  0.73010  0.43170  Biso   1.000  C
  H50      1.0000 0.58970  0.69680  0.39610  Biso   1.000  H
  C63      1.0000 0.55100  0.71270  0.51480  Biso   1.000  C
  H51      1.0000 0.58280  0.66770  0.53690  Biso   1.000  H
  C64      1.0000 0.11207  0.84936  0.79200  Biso   1.000  C
  H52      1.0000 0.10640  0.79580  0.81700  Biso   1.000  H
  N12      1.0000 0.17378  0.86989  0.73985  Biso   1.000  N
  C65      1.0000 0.15760  0.95350  0.71820  Biso   1.000  C
  H53      1.0000 0.19110  0.98600  0.68140  Biso   1.000  H
  C66      1.0000 0.08740  0.98150  0.75730  Biso   1.000  C
  H54      1.0000 0.06340  0.03560  0.75280  Biso   1.000  H
  N13      1.0000 0.94271  0.41474  0.69451  Biso   1.000  N
  C67      1.0000 0.01285  0.41730  0.63664  Biso   1.000  C
  C68      1.0000 0.07180  0.48240  0.64270  Biso   1.000  C
  H55      1.0000 0.06820  0.52240  0.68640  Biso   1.000  H
  C69      1.0000 0.54600  0.32850  0.96300  Biso   1.000  C
  C70      1.0000 0.53940  0.34570  0.04830  Biso   1.000  C
  H56      1.0000 0.56950  0.39150  0.07120  Biso   1.000  H
  C71      1.0000 0.50040  0.26030  0.93080  Biso   1.000  C
  H57      1.0000 0.50400  0.24640  0.87320  Biso   1.000  H
  C72      1.0000 0.48920  0.29660  0.10070  Biso   1.000  C
  H58      1.0000 0.48610  0.30900  0.15870  Biso   1.000  H
  C73      1.0000 0.44430  0.23010  0.06830  Biso   1.000  C
  H59      1.0000 0.41030  0.19680  0.10390  Biso   1.000  H
  C74      1.0000 0.44900  0.21270  0.98520  Biso   1.000  C
  H60      1.0000 0.41720  0.16770  0.96310  Biso   1.000  H
  C75      1.0000 0.88793  0.34936  0.70800  Biso   1.000  C
  H61      1.0000 0.89360  0.29580  0.68300  Biso   1.000  H
  N14      1.0000 0.82622  0.36989  0.76015  Biso   1.000  N
  C76      1.0000 0.84240  0.45350  0.78180  Biso   1.000  C
  H62      1.0000 0.80890  0.48600  0.81860  Biso   1.000  H
  C77      1.0000 0.91260  0.48150  0.74270  Biso   1.000  C
  H63      1.0000 0.93660  0.53560  0.74720  Biso   1.000  H
  N15      1.0000 0.44271  0.08526  0.30549  Biso   1.000  N
  C78      1.0000 0.51285  0.08270  0.36336  Biso   1.000  C
  C79      1.0000 0.57180  0.01760  0.35730  Biso   1.000  C
  H64      1.0000 0.56820  0.97760  0.31360  Biso   1.000  H
  C80      1.0000 0.04600  0.17150  0.03700  Biso   1.000  C
  C81      1.0000 0.03940  0.15430  0.95170  Biso   1.000  C
  H65      1.0000 0.06950  0.10850  0.92880  Biso   1.000  H
  C82      1.0000 0.00040  0.23970  0.06920  Biso   1.000  C
  H66      1.0000 0.00400  0.25360  0.12680  Biso   1.000  H
  C83      1.0000 0.98920  0.20340  0.89930  Biso   1.000  C
  H67      1.0000 0.98610  0.19100  0.84130  Biso   1.000  H
  C84      1.0000 0.94430  0.26990  0.93170  Biso   1.000  C
  H68      1.0000 0.91030  0.30320  0.89610  Biso   1.000  H
  C85      1.0000 0.94900  0.28730  0.01480  Biso   1.000  C
  H69      1.0000 0.91720  0.33230  0.03690  Biso   1.000  H
  C86      1.0000 0.38793  0.15064  0.29200  Biso   1.000  C
  H70      1.0000 0.39360  0.20420  0.31700  Biso   1.000  H
  N16      1.0000 0.32622  0.13011  0.23985  Biso   1.000  N
  C87      1.0000 0.34240  0.04650  0.21820  Biso   1.000  C
  H71      1.0000 0.30890  0.01400  0.18140  Biso   1.000  H
  C88      1.0000 0.41260  0.01850  0.25730  Biso   1.000  C
  H72      1.0000 0.43660  0.96440  0.25280  Biso   1.000  H
  N17      1.0000 0.19451  0.55729  0.58526  Biso   1.000  N
  C89      1.0000 0.13664  0.48715  0.58270  Biso   1.000  C
  C90      1.0000 0.14270  0.42820  0.51760  Biso   1.000  C
  H73      1.0000 0.18640  0.43180  0.47760  Biso   1.000  H
  C91      1.0000 0.46300  0.95400  0.67150  Biso   1.000  C
  C92      1.0000 0.54830  0.96060  0.65430  Biso   1.000  C
  H74      1.0000 0.57120  0.93050  0.60850  Biso   1.000  H
  C93      1.0000 0.43080  0.99960  0.73970  Biso   1.000  C
  H75      1.0000 0.37320  0.99600  0.75360  Biso   1.000  H
  C94      1.0000 0.60070  0.01080  0.70340  Biso   1.000  C
  H76      1.0000 0.65870  0.01390  0.69100  Biso   1.000  H
  C95      1.0000 0.56830  0.05570  0.76990  Biso   1.000  C
  H77      1.0000 0.60390  0.08970  0.80320  Biso   1.000  H
  C96      1.0000 0.48520  0.05100  0.78730  Biso   1.000  C
  H78      1.0000 0.46310  0.08280  0.83230  Biso   1.000  H
  C97      1.0000 0.20800  0.61207  0.65064  Biso   1.000  C
  H79      1.0000 0.18300  0.60640  0.70420  Biso   1.000  H
  N18      1.0000 0.26015  0.67378  0.63011  Biso   1.000  N
  C98      1.0000 0.28180  0.65760  0.54650  Biso   1.000  C
  H80      1.0000 0.31860  0.69110  0.51400  Biso   1.000  H
  C99      1.0000 0.24270  0.58740  0.51850  Biso   1.000  C
  H81      1.0000 0.24720  0.56340  0.46440  Biso   1.000  H
  N19      1.0000 0.80549  0.05729  0.91474  Biso   1.000  N
  C100     1.0000 0.86336  0.98715  0.91730  Biso   1.000  C
  C101     1.0000 0.85730  0.92820  0.98240  Biso   1.000  C
  H82      1.0000 0.81360  0.93180  0.02240  Biso   1.000  H
  C102     1.0000 0.53700  0.45400  0.82850  Biso   1.000  C
  C103     1.0000 0.45170  0.46060  0.84570  Biso   1.000  C
  H83      1.0000 0.42880  0.43050  0.89150  Biso   1.000  H
  C104     1.0000 0.56920  0.49960  0.76030  Biso   1.000  C
  H84      1.0000 0.62680  0.49600  0.74640  Biso   1.000  H
  C105     1.0000 0.39930  0.51080  0.79660  Biso   1.000  C
  H85      1.0000 0.34130  0.51390  0.80900  Biso   1.000  H
  C106     1.0000 0.43170  0.55570  0.73010  Biso   1.000  C
  H86      1.0000 0.39610  0.58970  0.69680  Biso   1.000  H
  C107     1.0000 0.51480  0.55100  0.71270  Biso   1.000  C
  H87      1.0000 0.53690  0.58280  0.66770  Biso   1.000  H
  C108     1.0000 0.79200  0.11207  0.84936  Biso   1.000  C
  H88      1.0000 0.81700  0.10640  0.79580  Biso   1.000  H
  N20      1.0000 0.73985  0.17378  0.86989  Biso   1.000  N
  C109     1.0000 0.71820  0.15760  0.95350  Biso   1.000  C
  H89      1.0000 0.68140  0.19110  0.98600  Biso   1.000  H
  C110     1.0000 0.75730  0.08740  0.98150  Biso   1.000  C
  H90      1.0000 0.75280  0.06340  0.03560  Biso   1.000  H
  N21      1.0000 0.69451  0.94271  0.41474  Biso   1.000  N
  C111     1.0000 0.63664  0.01285  0.41730  Biso   1.000  C
  C112     1.0000 0.64270  0.07180  0.48240  Biso   1.000  C
  H91      1.0000 0.68640  0.06820  0.52240  Biso   1.000  H
  C113     1.0000 0.96300  0.54600  0.32850  Biso   1.000  C
  C114     1.0000 0.04830  0.53940  0.34570  Biso   1.000  C
  H92      1.0000 0.07120  0.56950  0.39150  Biso   1.000  H
  C115     1.0000 0.93080  0.50040  0.26030  Biso   1.000  C
  H93      1.0000 0.87320  0.50400  0.24640  Biso   1.000  H
  C116     1.0000 0.10070  0.48920  0.29660  Biso   1.000  C
  H94      1.0000 0.15870  0.48610  0.30900  Biso   1.000  H
  C117     1.0000 0.06830  0.44430  0.23010  Biso   1.000  C
  H95      1.0000 0.10390  0.41030  0.19680  Biso   1.000  H
  C118     1.0000 0.98520  0.44900  0.21270  Biso   1.000  C
  H96      1.0000 0.96310  0.41720  0.16770  Biso   1.000  H
  C119     1.0000 0.70800  0.88793  0.34936  Biso   1.000  C
  H97      1.0000 0.68300  0.89360  0.29580  Biso   1.000  H
  N22      1.0000 0.76015  0.82622  0.36989  Biso   1.000  N
  C120     1.0000 0.78180  0.84240  0.45350  Biso   1.000  C
  H98      1.0000 0.81860  0.80890  0.48600  Biso   1.000  H
  C121     1.0000 0.74270  0.91260  0.48150  Biso   1.000  C
  H99      1.0000 0.74720  0.93660  0.53560  Biso   1.000  H
  N23      1.0000 0.30549  0.44271  0.08526  Biso   1.000  N
  C122     1.0000 0.36336  0.51285  0.08270  Biso   1.000  C
  C123     1.0000 0.35730  0.57180  0.01760  Biso   1.000  C
  H100     1.0000 0.31360  0.56820  0.97760  Biso   1.000  H
  C124     1.0000 0.03700  0.04600  0.17150  Biso   1.000  C
  C125     1.0000 0.95170  0.03940  0.15430  Biso   1.000  C
  H101     1.0000 0.92880  0.06950  0.10850  Biso   1.000  H
  C126     1.0000 0.06920  0.00040  0.23970  Biso   1.000  C
  H102     1.0000 0.12680  0.00400  0.25360  Biso   1.000  H
  C127     1.0000 0.89930  0.98920  0.20340  Biso   1.000  C
  H103     1.0000 0.84130  0.98610  0.19100  Biso   1.000  H
  C128     1.0000 0.93170  0.94430  0.26990  Biso   1.000  C
  H104     1.0000 0.89610  0.91030  0.30320  Biso   1.000  H
  C129     1.0000 0.01480  0.94900  0.28730  Biso   1.000  C
  H105     1.0000 0.03690  0.91720  0.33230  Biso   1.000  H
  C130     1.0000 0.29200  0.38793  0.15064  Biso   1.000  C
  H106     1.0000 0.31700  0.39360  0.20420  Biso   1.000  H
  N24      1.0000 0.23985  0.32622  0.13011  Biso   1.000  N
  C131     1.0000 0.21820  0.34240  0.04650  Biso   1.000  C
  H107     1.0000 0.18140  0.30890  0.01400  Biso   1.000  H
  C132     1.0000 0.25730  0.41260  0.01850  Biso   1.000  C
  H108     1.0000 0.25280  0.43660  0.96440  Biso   1.000  H
  Ag1      1.0000 0.70214  0.29786  0.79786  Biso   1.000  Ag
  P1       1.0000 0.61228  0.38772  0.88772  Biso   1.000  P
  Ag2      1.0000 0.79786  0.70214  0.29786  Biso   1.000  Ag
  P2       1.0000 0.88772  0.61228  0.38772  Biso   1.000  P
  Ag3      1.0000 0.29786  0.79786  0.70214  Biso   1.000  Ag
  P3       1.0000 0.38772  0.88772  0.61228  Biso   1.000  P
  Ag4      1.0000 0.20214  0.20214  0.20214  Biso   1.000  Ag
  P4       1.0000 0.11228  0.11228  0.11228  Biso   1.000  P
