data_NADZID_clean
_audit_creation_date              2014-07-02
_audit_creation_method            'Materials Studio'
_symmetry_space_group_name_H-M    'P1'
_symmetry_Int_Tables_number       1
_symmetry_cell_setting            triclinic
loop_
_symmetry_equiv_pos_as_xyz
  x,y,z
_cell_length_a                    8.8326
_cell_length_b                    10.1590
_cell_length_c                    13.9790
_cell_angle_alpha                 90.0000
_cell_angle_beta                  90.0000
_cell_angle_gamma                 90.0000
loop_
_atom_site_label
_atom_site_type_symbol
_atom_site_fract_x
_atom_site_fract_y
_atom_site_fract_z
_atom_site_U_iso_or_equiv
_atom_site_adp_type
_atom_site_occupancy
Y1     Y     0.74989   0.49993   0.88679   0.01267  Uiso   1.00
Y2     Y     0.75011   0.99993   0.61321   0.01267  Uiso   1.00
Y3     Y     0.25011   0.50007   0.11321   0.01267  Uiso   1.00
Y4     Y     0.24989   0.00007   0.38679   0.01267  Uiso   1.00
H1     H     0.40210   0.65680   0.87720   0.01267  Uiso   1.00
H2     H     0.00810   0.75030   0.75120   0.01267  Uiso   1.00
H3     H     0.40230   0.84280   0.62210   0.01267  Uiso   1.00
H4     H     0.09790   0.15680   0.62280   0.01267  Uiso   1.00
H5     H     0.49190   0.25030   0.74880   0.01267  Uiso   1.00
H6     H     0.09770   0.34280   0.87790   0.01267  Uiso   1.00
H7     H     0.59790   0.34320   0.12280   0.01267  Uiso   1.00
H8     H     0.99190   0.24970   0.24880   0.01267  Uiso   1.00
H9     H     0.59770   0.15720   0.37790   0.01267  Uiso   1.00
H10    H     0.90210   0.84320   0.37720   0.01267  Uiso   1.00
H11    H     0.50810   0.74970   0.25120   0.01267  Uiso   1.00
H12    H     0.90230   0.65720   0.12210   0.01267  Uiso   1.00
C1     C     0.10610   0.63630   0.90790   0.01267  Uiso   1.00
C2     C     0.19120   0.69590   0.82670   0.01267  Uiso   1.00
C3     C     0.34910   0.69520   0.82700   0.01267  Uiso   1.00
C4     C     0.42650   0.75330   0.75040   0.01267  Uiso   1.00
C5     C     0.10610   0.86580   0.59140   0.01267  Uiso   1.00
C6     C     0.19240   0.80320   0.67380   0.01267  Uiso   1.00
C7     C     0.11340   0.74960   0.75100   0.01267  Uiso   1.00
C8     C     0.34980   0.80620   0.67320   0.01267  Uiso   1.00
C9     C     0.59800   0.75900   0.75580   0.01267  Uiso   1.00
C10    C     0.39390   0.13630   0.59210   0.01267  Uiso   1.00
C11    C     0.30880   0.19590   0.67330   0.01267  Uiso   1.00
C12    C     0.15090   0.19520   0.67300   0.01267  Uiso   1.00
C13    C     0.07350   0.25330   0.74960   0.01267  Uiso   1.00
C14    C     0.39390   0.36580   0.90860   0.01267  Uiso   1.00
C15    C     0.30760   0.30320   0.82620   0.01267  Uiso   1.00
C16    C     0.38660   0.24960   0.74900   0.01267  Uiso   1.00
C17    C     0.15020   0.30620   0.82680   0.01267  Uiso   1.00
C18    C     0.90200   0.25900   0.74420   0.01267  Uiso   1.00
C19    C     0.89390   0.36370   0.09210   0.01267  Uiso   1.00
C20    C     0.80880   0.30410   0.17330   0.01267  Uiso   1.00
C21    C     0.65090   0.30480   0.17300   0.01267  Uiso   1.00
C22    C     0.57350   0.24670   0.24960   0.01267  Uiso   1.00
C23    C     0.89390   0.13420   0.40860   0.01267  Uiso   1.00
C24    C     0.80760   0.19680   0.32620   0.01267  Uiso   1.00
C25    C     0.88660   0.25040   0.24900   0.01267  Uiso   1.00
C26    C     0.65020   0.19380   0.32680   0.01267  Uiso   1.00
C27    C     0.40200   0.24100   0.24420   0.01267  Uiso   1.00
C28    C     0.60610   0.86370   0.40790   0.01267  Uiso   1.00
C29    C     0.69120   0.80410   0.32670   0.01267  Uiso   1.00
C30    C     0.84910   0.80480   0.32700   0.01267  Uiso   1.00
C31    C     0.92650   0.74670   0.25040   0.01267  Uiso   1.00
C32    C     0.60610   0.63420   0.09140   0.01267  Uiso   1.00
C33    C     0.69240   0.69680   0.17380   0.01267  Uiso   1.00
C34    C     0.61340   0.75040   0.25100   0.01267  Uiso   1.00
C35    C     0.84980   0.69380   0.17320   0.01267  Uiso   1.00
C36    C     0.09800   0.74100   0.25580   0.01267  Uiso   1.00
O1     O     0.97270   0.60250   0.89370   0.01267  Uiso   1.00
O2     O     0.66570   0.67450   0.80820   0.01267  Uiso   1.00
O3     O     0.97270   0.89880   0.60650   0.01267  Uiso   1.00
O4     O     0.17400   0.62200   0.98610   0.01267  Uiso   1.00
O5     O     0.17400   0.87790   0.51430   0.01267  Uiso   1.00
O6     O     0.66450   0.82520   0.69220   0.01267  Uiso   1.00
O7     O     0.52730   0.10250   0.60630   0.01267  Uiso   1.00
O8     O     0.83430   0.17450   0.69180   0.01267  Uiso   1.00
O9     O     0.52730   0.39880   0.89350   0.01267  Uiso   1.00
O10    O     0.32600   0.12200   0.51390   0.01267  Uiso   1.00
O11    O     0.32600   0.37790   0.98570   0.01267  Uiso   1.00
O12    O     0.83550   0.32520   0.80780   0.01267  Uiso   1.00
O13    O     0.02730   0.39750   0.10630   0.01267  Uiso   1.00
O14    O     0.33430   0.32550   0.19180   0.01267  Uiso   1.00
O15    O     0.02730   0.10120   0.39350   0.01267  Uiso   1.00
O16    O     0.82600   0.37800   0.01390   0.01267  Uiso   1.00
O17    O     0.82600   0.12210   0.48570   0.01267  Uiso   1.00
O18    O     0.33550   0.17480   0.30780   0.01267  Uiso   1.00
O19    O     0.47270   0.89750   0.39370   0.01267  Uiso   1.00
O20    O     0.16570   0.82550   0.30820   0.01267  Uiso   1.00
O21    O     0.47270   0.60120   0.10650   0.01267  Uiso   1.00
O22    O     0.67400   0.87800   0.48610   0.01267  Uiso   1.00
O23    O     0.67400   0.62210   0.01430   0.01267  Uiso   1.00
O24    O     0.16450   0.67480   0.19220   0.01267  Uiso   1.00
