data_image0
_cell_length_a       16.8552
_cell_length_b       16.8552
_cell_length_c       16.8552
_cell_angle_alpha    90
_cell_angle_beta     90
_cell_angle_gamma    90

_symmetry_space_group_name_H-M    "P 1"
_symmetry_int_tables_number       1

loop_
  _symmetry_equiv_pos_as_xyz
  'x, y, z'

loop_
  _atom_site_label
  _atom_site_occupancy
  _atom_site_fract_x
  _atom_site_fract_y
  _atom_site_fract_z
  _atom_site_thermal_displace_type
  _atom_site_B_iso_or_equiv
  _atom_site_type_symbol
  O1       1.0000 0.19440  0.51730  0.09460  Biso   1.000  O
  O2       1.0000 0.69440  0.01730  0.59460  Biso   1.000  O
  O3       1.0000 0.80560  0.48270  0.09460  Biso   1.000  O
  O4       1.0000 0.30560  0.98270  0.59460  Biso   1.000  O
  O5       1.0000 0.80560  0.51730  0.90540  Biso   1.000  O
  O6       1.0000 0.30560  0.01730  0.40540  Biso   1.000  O
  O7       1.0000 0.19440  0.48270  0.90540  Biso   1.000  O
  O8       1.0000 0.69440  0.98270  0.40540  Biso   1.000  O
  O9       1.0000 0.09460  0.19440  0.51730  Biso   1.000  O
  O10      1.0000 0.59460  0.69440  0.01730  Biso   1.000  O
  O11      1.0000 0.09460  0.80560  0.48270  Biso   1.000  O
  O12      1.0000 0.59460  0.30560  0.98270  Biso   1.000  O
  O13      1.0000 0.90540  0.80560  0.51730  Biso   1.000  O
  O14      1.0000 0.40540  0.30560  0.01730  Biso   1.000  O
  O15      1.0000 0.90540  0.19440  0.48270  Biso   1.000  O
  O16      1.0000 0.40540  0.69440  0.98270  Biso   1.000  O
  O17      1.0000 0.51730  0.09460  0.19440  Biso   1.000  O
  O18      1.0000 0.01730  0.59460  0.69440  Biso   1.000  O
  O19      1.0000 0.48270  0.09460  0.80560  Biso   1.000  O
  O20      1.0000 0.98270  0.59460  0.30560  Biso   1.000  O
  O21      1.0000 0.51730  0.90540  0.80560  Biso   1.000  O
  O22      1.0000 0.01730  0.40540  0.30560  Biso   1.000  O
  O23      1.0000 0.48270  0.90540  0.19440  Biso   1.000  O
  O24      1.0000 0.98270  0.40540  0.69440  Biso   1.000  O
  O25      1.0000 0.51730  0.19440  0.09460  Biso   1.000  O
  O26      1.0000 0.01730  0.69440  0.59460  Biso   1.000  O
  O27      1.0000 0.48270  0.80560  0.09460  Biso   1.000  O
  O28      1.0000 0.98270  0.30560  0.59460  Biso   1.000  O
  O29      1.0000 0.51730  0.80560  0.90540  Biso   1.000  O
  O30      1.0000 0.01730  0.30560  0.40540  Biso   1.000  O
  O31      1.0000 0.48270  0.19440  0.90540  Biso   1.000  O
  O32      1.0000 0.98270  0.69440  0.40540  Biso   1.000  O
  O33      1.0000 0.19440  0.09460  0.51730  Biso   1.000  O
  O34      1.0000 0.69440  0.59460  0.01730  Biso   1.000  O
  O35      1.0000 0.80560  0.09460  0.48270  Biso   1.000  O
  O36      1.0000 0.30560  0.59460  0.98270  Biso   1.000  O
  O37      1.0000 0.80560  0.90540  0.51730  Biso   1.000  O
  O38      1.0000 0.30560  0.40540  0.01730  Biso   1.000  O
  O39      1.0000 0.19440  0.90540  0.48270  Biso   1.000  O
  O40      1.0000 0.69440  0.40540  0.98270  Biso   1.000  O
  O41      1.0000 0.09460  0.51730  0.19440  Biso   1.000  O
  O42      1.0000 0.59460  0.01730  0.69440  Biso   1.000  O
  O43      1.0000 0.09460  0.48270  0.80560  Biso   1.000  O
  O44      1.0000 0.59460  0.98270  0.30560  Biso   1.000  O
  O45      1.0000 0.90540  0.51730  0.80560  Biso   1.000  O
  O46      1.0000 0.40540  0.01730  0.30560  Biso   1.000  O
  O47      1.0000 0.90540  0.48270  0.19440  Biso   1.000  O
  O48      1.0000 0.40540  0.98270  0.69440  Biso   1.000  O
  Ga1      1.0000 0.00000  0.50000  0.00000  Biso   1.000  Ga
  Ga2      1.0000 0.50000  0.00000  0.50000  Biso   1.000  Ga
  Ga3      1.0000 0.00000  0.00000  0.50000  Biso   1.000  Ga
  Ga4      1.0000 0.50000  0.50000  0.00000  Biso   1.000  Ga
  Ga5      1.0000 0.50000  0.00000  0.00000  Biso   1.000  Ga
  Ga6      1.0000 0.00000  0.50000  0.50000  Biso   1.000  Ga
  Ga7      1.0000 0.25000  0.50000  0.00000  Biso   1.000  Ga
  Ga8      1.0000 0.75000  0.50000  0.00000  Biso   1.000  Ga
  Ga9      1.0000 0.25000  0.00000  0.50000  Biso   1.000  Ga
  Ga10     1.0000 0.00000  0.25000  0.50000  Biso   1.000  Ga
  Ga11     1.0000 0.00000  0.75000  0.50000  Biso   1.000  Ga
  Ga12     1.0000 0.50000  0.25000  0.00000  Biso   1.000  Ga
  Ga13     1.0000 0.50000  0.00000  0.25000  Biso   1.000  Ga
  Ga14     1.0000 0.50000  0.00000  0.75000  Biso   1.000  Ga
  Ga15     1.0000 0.00000  0.50000  0.25000  Biso   1.000  Ga
  Ga16     1.0000 0.50000  0.75000  0.00000  Biso   1.000  Ga
  Ga17     1.0000 0.75000  0.00000  0.50000  Biso   1.000  Ga
  Ga18     1.0000 0.00000  0.50000  0.75000  Biso   1.000  Ga
  P1       1.0000 0.12361  0.56640  0.12361  Biso   1.000  P
  O49      1.0000 0.05890  0.57160  0.05890  Biso   1.000  O
  O50      1.0000 0.14580  0.64860  0.14580  Biso   1.000  O
  P2       1.0000 0.62361  0.06640  0.62361  Biso   1.000  P
  O51      1.0000 0.55890  0.07160  0.55890  Biso   1.000  O
  O52      1.0000 0.64580  0.14860  0.64580  Biso   1.000  O
  P3       1.0000 0.87639  0.43360  0.12361  Biso   1.000  P
  O53      1.0000 0.94110  0.42840  0.05890  Biso   1.000  O
  O54      1.0000 0.85420  0.35140  0.14580  Biso   1.000  O
  P4       1.0000 0.37639  0.93360  0.62361  Biso   1.000  P
  O55      1.0000 0.44110  0.92840  0.55890  Biso   1.000  O
  O56      1.0000 0.35420  0.85140  0.64580  Biso   1.000  O
  P5       1.0000 0.87639  0.56640  0.87639  Biso   1.000  P
  O57      1.0000 0.94110  0.57160  0.94110  Biso   1.000  O
  O58      1.0000 0.85420  0.64860  0.85420  Biso   1.000  O
  P6       1.0000 0.37639  0.06640  0.37639  Biso   1.000  P
  O59      1.0000 0.44110  0.07160  0.44110  Biso   1.000  O
  O60      1.0000 0.35420  0.14860  0.35420  Biso   1.000  O
  P7       1.0000 0.12361  0.43360  0.87639  Biso   1.000  P
  O61      1.0000 0.05890  0.42840  0.94110  Biso   1.000  O
  O62      1.0000 0.14580  0.35140  0.85420  Biso   1.000  O
  P8       1.0000 0.62361  0.93360  0.37639  Biso   1.000  P
  O63      1.0000 0.55890  0.92840  0.44110  Biso   1.000  O
  O64      1.0000 0.64580  0.85140  0.35420  Biso   1.000  O
  P9       1.0000 0.12361  0.12361  0.56640  Biso   1.000  P
  O65      1.0000 0.05890  0.05890  0.57160  Biso   1.000  O
  O66      1.0000 0.14580  0.14580  0.64860  Biso   1.000  O
  P10      1.0000 0.62361  0.62361  0.06640  Biso   1.000  P
  O67      1.0000 0.55890  0.55890  0.07160  Biso   1.000  O
  O68      1.0000 0.64580  0.64580  0.14860  Biso   1.000  O
  P11      1.0000 0.12361  0.87639  0.43360  Biso   1.000  P
  O69      1.0000 0.05890  0.94110  0.42840  Biso   1.000  O
  O70      1.0000 0.14580  0.85420  0.35140  Biso   1.000  O
  P12      1.0000 0.62361  0.37639  0.93360  Biso   1.000  P
  O71      1.0000 0.55890  0.44110  0.92840  Biso   1.000  O
  O72      1.0000 0.64580  0.35420  0.85140  Biso   1.000  O
  P13      1.0000 0.87639  0.87639  0.56640  Biso   1.000  P
  O73      1.0000 0.94110  0.94110  0.57160  Biso   1.000  O
  O74      1.0000 0.85420  0.85420  0.64860  Biso   1.000  O
  P14      1.0000 0.37639  0.37639  0.06640  Biso   1.000  P
  O75      1.0000 0.44110  0.44110  0.07160  Biso   1.000  O
  O76      1.0000 0.35420  0.35420  0.14860  Biso   1.000  O
  P15      1.0000 0.87639  0.12361  0.43360  Biso   1.000  P
  O77      1.0000 0.94110  0.05890  0.42840  Biso   1.000  O
  O78      1.0000 0.85420  0.14580  0.35140  Biso   1.000  O
  P16      1.0000 0.37639  0.62361  0.93360  Biso   1.000  P
  O79      1.0000 0.44110  0.55890  0.92840  Biso   1.000  O
  O80      1.0000 0.35420  0.64580  0.85140  Biso   1.000  O
  P17      1.0000 0.56640  0.12361  0.12361  Biso   1.000  P
  O81      1.0000 0.57160  0.05890  0.05890  Biso   1.000  O
  O82      1.0000 0.64860  0.14580  0.14580  Biso   1.000  O
  P18      1.0000 0.06640  0.62361  0.62361  Biso   1.000  P
  O83      1.0000 0.07160  0.55890  0.55890  Biso   1.000  O
  O84      1.0000 0.14860  0.64580  0.64580  Biso   1.000  O
  P19      1.0000 0.43360  0.12361  0.87639  Biso   1.000  P
  O85      1.0000 0.42840  0.05890  0.94110  Biso   1.000  O
  O86      1.0000 0.35140  0.14580  0.85420  Biso   1.000  O
  P20      1.0000 0.93360  0.62361  0.37639  Biso   1.000  P
  O87      1.0000 0.92840  0.55890  0.44110  Biso   1.000  O
  O88      1.0000 0.85140  0.64580  0.35420  Biso   1.000  O
  P21      1.0000 0.56640  0.87639  0.87639  Biso   1.000  P
  O89      1.0000 0.57160  0.94110  0.94110  Biso   1.000  O
  O90      1.0000 0.64860  0.85420  0.85420  Biso   1.000  O
  P22      1.0000 0.06640  0.37639  0.37639  Biso   1.000  P
  O91      1.0000 0.07160  0.44110  0.44110  Biso   1.000  O
  O92      1.0000 0.14860  0.35420  0.35420  Biso   1.000  O
  P23      1.0000 0.43360  0.87639  0.12361  Biso   1.000  P
  O93      1.0000 0.42840  0.94110  0.05890  Biso   1.000  O
  O94      1.0000 0.35140  0.85420  0.14580  Biso   1.000  O
  P24      1.0000 0.93360  0.37639  0.62361  Biso   1.000  P
  O95      1.0000 0.92840  0.44110  0.55890  Biso   1.000  O
  O96      1.0000 0.85140  0.35420  0.64580  Biso   1.000  O
