data_image0
_cell_length_a       13.113
_cell_length_b       29.058
_cell_length_c       30.167
_cell_angle_alpha    90
_cell_angle_beta     90
_cell_angle_gamma    90

_symmetry_space_group_name_H-M    "P 1"
_symmetry_int_tables_number       1

loop_
  _symmetry_equiv_pos_as_xyz
  'x, y, z'

loop_
  _atom_site_label
  _atom_site_occupancy
  _atom_site_fract_x
  _atom_site_fract_y
  _atom_site_fract_z
  _atom_site_thermal_displace_type
  _atom_site_B_iso_or_equiv
  _atom_site_type_symbol
  C1       1.0000 0.32280  0.29984  0.06056  Biso   1.000  C
  O1       1.0000 0.37820  0.26744  0.04636  Biso   1.000  O
  C2       1.0000 0.43240  0.37668  0.17247  Biso   1.000  C
  C3       1.0000 0.36380  0.32711  0.09879  Biso   1.000  C
  C4       1.0000 0.34780  0.39162  0.14859  Biso   1.000  C
  H1       1.0000 0.31440  0.41840  0.15720  Biso   1.000  H
  C5       1.0000 0.46810  0.45026  0.21248  Biso   1.000  C
  H2       1.0000 0.44720  0.46620  0.18740  Biso   1.000  H
  C6       1.0000 0.48050  0.33674  0.15907  Biso   1.000  C
  H3       1.0000 0.53610  0.32570  0.17500  Biso   1.000  H
  C7       1.0000 0.31230  0.36700  0.11189  Biso   1.000  C
  H4       1.0000 0.25510  0.37700  0.09640  Biso   1.000  H
  C8       1.0000 0.46750  0.40200  0.21248  Biso   1.000  C
  C9       1.0000 0.44640  0.31276  0.12187  Biso   1.000  C
  H5       1.0000 0.48100  0.28650  0.11280  Biso   1.000  H
  O2       1.0000 0.23690  0.31086  0.04573  Biso   1.000  O
  C10      1.0000 0.82280  0.79984  0.06056  Biso   1.000  C
  O3       1.0000 0.87820  0.76744  0.04636  Biso   1.000  O
  C11      1.0000 0.93240  0.87668  0.17247  Biso   1.000  C
  C12      1.0000 0.86380  0.82711  0.09879  Biso   1.000  C
  C13      1.0000 0.84780  0.89162  0.14859  Biso   1.000  C
  H6       1.0000 0.81440  0.91840  0.15720  Biso   1.000  H
  C14      1.0000 0.96810  0.95026  0.21248  Biso   1.000  C
  H7       1.0000 0.94720  0.96620  0.18740  Biso   1.000  H
  C15      1.0000 0.98050  0.83674  0.15907  Biso   1.000  C
  H8       1.0000 0.03610  0.82570  0.17500  Biso   1.000  H
  C16      1.0000 0.81230  0.86700  0.11189  Biso   1.000  C
  H9       1.0000 0.75510  0.87700  0.09640  Biso   1.000  H
  C17      1.0000 0.96750  0.90200  0.21248  Biso   1.000  C
  C18      1.0000 0.94640  0.81276  0.12187  Biso   1.000  C
  H10      1.0000 0.98100  0.78650  0.11280  Biso   1.000  H
  O4       1.0000 0.73690  0.81086  0.04573  Biso   1.000  O
  C19      1.0000 0.67720  0.70016  0.06056  Biso   1.000  C
  O5       1.0000 0.62180  0.73256  0.04636  Biso   1.000  O
  C20      1.0000 0.56760  0.62332  0.17247  Biso   1.000  C
  C21      1.0000 0.63620  0.67289  0.09879  Biso   1.000  C
  C22      1.0000 0.65220  0.60838  0.14859  Biso   1.000  C
  H11      1.0000 0.68560  0.58160  0.15720  Biso   1.000  H
  C23      1.0000 0.53190  0.54974  0.21248  Biso   1.000  C
  H12      1.0000 0.55280  0.53380  0.18740  Biso   1.000  H
  C24      1.0000 0.51950  0.66326  0.15907  Biso   1.000  C
  H13      1.0000 0.46390  0.67430  0.17500  Biso   1.000  H
  C25      1.0000 0.68770  0.63300  0.11189  Biso   1.000  C
  H14      1.0000 0.74490  0.62300  0.09640  Biso   1.000  H
  C26      1.0000 0.53250  0.59800  0.21248  Biso   1.000  C
  C27      1.0000 0.55360  0.68724  0.12187  Biso   1.000  C
  H15      1.0000 0.51900  0.71350  0.11280  Biso   1.000  H
  O6       1.0000 0.76310  0.68914  0.04573  Biso   1.000  O
  C28      1.0000 0.17720  0.20016  0.06056  Biso   1.000  C
  O7       1.0000 0.12180  0.23256  0.04636  Biso   1.000  O
  C29      1.0000 0.06760  0.12332  0.17247  Biso   1.000  C
  C30      1.0000 0.13620  0.17289  0.09879  Biso   1.000  C
  C31      1.0000 0.15220  0.10838  0.14859  Biso   1.000  C
  H16      1.0000 0.18560  0.08160  0.15720  Biso   1.000  H
  C32      1.0000 0.03190  0.04974  0.21248  Biso   1.000  C
  H17      1.0000 0.05280  0.03380  0.18740  Biso   1.000  H
  C33      1.0000 0.01950  0.16326  0.15907  Biso   1.000  C
  H18      1.0000 0.96390  0.17430  0.17500  Biso   1.000  H
  C34      1.0000 0.18770  0.13300  0.11189  Biso   1.000  C
  H19      1.0000 0.24490  0.12300  0.09640  Biso   1.000  H
  C35      1.0000 0.03250  0.09800  0.21248  Biso   1.000  C
  C36      1.0000 0.05360  0.18724  0.12187  Biso   1.000  C
  H20      1.0000 0.01900  0.21350  0.11280  Biso   1.000  H
  O8       1.0000 0.26310  0.18914  0.04573  Biso   1.000  O
  C37      1.0000 0.67720  0.29984  0.43944  Biso   1.000  C
  O9       1.0000 0.62180  0.26744  0.45364  Biso   1.000  O
  C38      1.0000 0.56760  0.37668  0.32753  Biso   1.000  C
  C39      1.0000 0.63620  0.32711  0.40121  Biso   1.000  C
  C40      1.0000 0.65220  0.39162  0.35141  Biso   1.000  C
  H21      1.0000 0.68560  0.41840  0.34280  Biso   1.000  H
  C41      1.0000 0.53190  0.45026  0.28752  Biso   1.000  C
  H22      1.0000 0.55280  0.46620  0.31260  Biso   1.000  H
  C42      1.0000 0.51950  0.33674  0.34093  Biso   1.000  C
  H23      1.0000 0.46390  0.32570  0.32500  Biso   1.000  H
  C43      1.0000 0.68770  0.36700  0.38811  Biso   1.000  C
  H24      1.0000 0.74490  0.37700  0.40360  Biso   1.000  H
  C44      1.0000 0.53250  0.40200  0.28752  Biso   1.000  C
  C45      1.0000 0.55360  0.31276  0.37813  Biso   1.000  C
  H25      1.0000 0.51900  0.28650  0.38720  Biso   1.000  H
  O10      1.0000 0.76310  0.31086  0.45427  Biso   1.000  O
  C46      1.0000 0.17720  0.79984  0.43944  Biso   1.000  C
  O11      1.0000 0.12180  0.76744  0.45364  Biso   1.000  O
  C47      1.0000 0.06760  0.87668  0.32753  Biso   1.000  C
  C48      1.0000 0.13620  0.82711  0.40121  Biso   1.000  C
  C49      1.0000 0.15220  0.89162  0.35141  Biso   1.000  C
  H26      1.0000 0.18560  0.91840  0.34280  Biso   1.000  H
  C50      1.0000 0.03190  0.95026  0.28752  Biso   1.000  C
  H27      1.0000 0.05280  0.96620  0.31260  Biso   1.000  H
  C51      1.0000 0.01950  0.83674  0.34093  Biso   1.000  C
  H28      1.0000 0.96390  0.82570  0.32500  Biso   1.000  H
  C52      1.0000 0.18770  0.86700  0.38811  Biso   1.000  C
  H29      1.0000 0.24490  0.87700  0.40360  Biso   1.000  H
  C53      1.0000 0.03250  0.90200  0.28752  Biso   1.000  C
  C54      1.0000 0.05360  0.81276  0.37813  Biso   1.000  C
  H30      1.0000 0.01900  0.78650  0.38720  Biso   1.000  H
  O12      1.0000 0.26310  0.81086  0.45427  Biso   1.000  O
  C55      1.0000 0.32280  0.70016  0.43944  Biso   1.000  C
  O13      1.0000 0.37820  0.73256  0.45364  Biso   1.000  O
  C56      1.0000 0.43240  0.62332  0.32753  Biso   1.000  C
  C57      1.0000 0.36380  0.67289  0.40121  Biso   1.000  C
  C58      1.0000 0.34780  0.60838  0.35141  Biso   1.000  C
  H31      1.0000 0.31440  0.58160  0.34280  Biso   1.000  H
  C59      1.0000 0.46810  0.54974  0.28752  Biso   1.000  C
  H32      1.0000 0.44720  0.53380  0.31260  Biso   1.000  H
  C60      1.0000 0.48050  0.66326  0.34093  Biso   1.000  C
  H33      1.0000 0.53610  0.67430  0.32500  Biso   1.000  H
  C61      1.0000 0.31230  0.63300  0.38811  Biso   1.000  C
  H34      1.0000 0.25510  0.62300  0.40360  Biso   1.000  H
  C62      1.0000 0.46750  0.59800  0.28752  Biso   1.000  C
  C63      1.0000 0.44640  0.68724  0.37813  Biso   1.000  C
  H35      1.0000 0.48100  0.71350  0.38720  Biso   1.000  H
  O14      1.0000 0.23690  0.68914  0.45427  Biso   1.000  O
  C64      1.0000 0.82280  0.20016  0.43944  Biso   1.000  C
  O15      1.0000 0.87820  0.23256  0.45364  Biso   1.000  O
  C65      1.0000 0.93240  0.12332  0.32753  Biso   1.000  C
  C66      1.0000 0.86380  0.17289  0.40121  Biso   1.000  C
  C67      1.0000 0.84780  0.10838  0.35141  Biso   1.000  C
  H36      1.0000 0.81440  0.08160  0.34280  Biso   1.000  H
  C68      1.0000 0.96810  0.04974  0.28752  Biso   1.000  C
  H37      1.0000 0.94720  0.03380  0.31260  Biso   1.000  H
  C69      1.0000 0.98050  0.16326  0.34093  Biso   1.000  C
  H38      1.0000 0.03610  0.17430  0.32500  Biso   1.000  H
  C70      1.0000 0.81230  0.13300  0.38811  Biso   1.000  C
  H39      1.0000 0.75510  0.12300  0.40360  Biso   1.000  H
  C71      1.0000 0.96750  0.09800  0.28752  Biso   1.000  C
  C72      1.0000 0.94640  0.18724  0.37813  Biso   1.000  C
  H40      1.0000 0.98100  0.21350  0.38720  Biso   1.000  H
  O16      1.0000 0.73690  0.18914  0.45427  Biso   1.000  O
  C73      1.0000 0.67720  0.70016  0.93944  Biso   1.000  C
  O17      1.0000 0.62180  0.73256  0.95364  Biso   1.000  O
  C74      1.0000 0.56760  0.62332  0.82753  Biso   1.000  C
  C75      1.0000 0.63620  0.67289  0.90121  Biso   1.000  C
  C76      1.0000 0.65220  0.60838  0.85141  Biso   1.000  C
  H41      1.0000 0.68560  0.58160  0.84280  Biso   1.000  H
  C77      1.0000 0.53190  0.54974  0.78752  Biso   1.000  C
  H42      1.0000 0.55280  0.53380  0.81260  Biso   1.000  H
  C78      1.0000 0.51950  0.66326  0.84093  Biso   1.000  C
  H43      1.0000 0.46390  0.67430  0.82500  Biso   1.000  H
  C79      1.0000 0.68770  0.63300  0.88811  Biso   1.000  C
  H44      1.0000 0.74490  0.62300  0.90360  Biso   1.000  H
  C80      1.0000 0.53250  0.59800  0.78752  Biso   1.000  C
  C81      1.0000 0.55360  0.68724  0.87813  Biso   1.000  C
  H45      1.0000 0.51900  0.71350  0.88720  Biso   1.000  H
  O18      1.0000 0.76310  0.68914  0.95427  Biso   1.000  O
  C82      1.0000 0.17720  0.20016  0.93944  Biso   1.000  C
  O19      1.0000 0.12180  0.23256  0.95364  Biso   1.000  O
  C83      1.0000 0.06760  0.12332  0.82753  Biso   1.000  C
  C84      1.0000 0.13620  0.17289  0.90121  Biso   1.000  C
  C85      1.0000 0.15220  0.10838  0.85141  Biso   1.000  C
  H46      1.0000 0.18560  0.08160  0.84280  Biso   1.000  H
  C86      1.0000 0.03190  0.04974  0.78752  Biso   1.000  C
  H47      1.0000 0.05280  0.03380  0.81260  Biso   1.000  H
  C87      1.0000 0.01950  0.16326  0.84093  Biso   1.000  C
  H48      1.0000 0.96390  0.17430  0.82500  Biso   1.000  H
  C88      1.0000 0.18770  0.13300  0.88811  Biso   1.000  C
  H49      1.0000 0.24490  0.12300  0.90360  Biso   1.000  H
  C89      1.0000 0.03250  0.09800  0.78752  Biso   1.000  C
  C90      1.0000 0.05360  0.18724  0.87813  Biso   1.000  C
  H50      1.0000 0.01900  0.21350  0.88720  Biso   1.000  H
  O20      1.0000 0.26310  0.18914  0.95427  Biso   1.000  O
  C91      1.0000 0.32280  0.29984  0.93944  Biso   1.000  C
  O21      1.0000 0.37820  0.26744  0.95364  Biso   1.000  O
  C92      1.0000 0.43240  0.37668  0.82753  Biso   1.000  C
  C93      1.0000 0.36380  0.32711  0.90121  Biso   1.000  C
  C94      1.0000 0.34780  0.39162  0.85141  Biso   1.000  C
  H51      1.0000 0.31440  0.41840  0.84280  Biso   1.000  H
  C95      1.0000 0.46810  0.45026  0.78752  Biso   1.000  C
  H52      1.0000 0.44720  0.46620  0.81260  Biso   1.000  H
  C96      1.0000 0.48050  0.33674  0.84093  Biso   1.000  C
  H53      1.0000 0.53610  0.32570  0.82500  Biso   1.000  H
  C97      1.0000 0.31230  0.36700  0.88811  Biso   1.000  C
  H54      1.0000 0.25510  0.37700  0.90360  Biso   1.000  H
  C98      1.0000 0.46750  0.40200  0.78752  Biso   1.000  C
  C99      1.0000 0.44640  0.31276  0.87813  Biso   1.000  C
  H55      1.0000 0.48100  0.28650  0.88720  Biso   1.000  H
  O22      1.0000 0.23690  0.31086  0.95427  Biso   1.000  O
  C100     1.0000 0.82280  0.79984  0.93944  Biso   1.000  C
  O23      1.0000 0.87820  0.76744  0.95364  Biso   1.000  O
  C101     1.0000 0.93240  0.87668  0.82753  Biso   1.000  C
  C102     1.0000 0.86380  0.82711  0.90121  Biso   1.000  C
  C103     1.0000 0.84780  0.89162  0.85141  Biso   1.000  C
  H56      1.0000 0.81440  0.91840  0.84280  Biso   1.000  H
  C104     1.0000 0.96810  0.95026  0.78752  Biso   1.000  C
  H57      1.0000 0.94720  0.96620  0.81260  Biso   1.000  H
  C105     1.0000 0.98050  0.83674  0.84093  Biso   1.000  C
  H58      1.0000 0.03610  0.82570  0.82500  Biso   1.000  H
  C106     1.0000 0.81230  0.86700  0.88811  Biso   1.000  C
  H59      1.0000 0.75510  0.87700  0.90360  Biso   1.000  H
  C107     1.0000 0.96750  0.90200  0.78752  Biso   1.000  C
  C108     1.0000 0.94640  0.81276  0.87813  Biso   1.000  C
  H60      1.0000 0.98100  0.78650  0.88720  Biso   1.000  H
  O24      1.0000 0.73690  0.81086  0.95427  Biso   1.000  O
  C109     1.0000 0.32280  0.70016  0.56056  Biso   1.000  C
  O25      1.0000 0.37820  0.73256  0.54636  Biso   1.000  O
  C110     1.0000 0.43240  0.62332  0.67247  Biso   1.000  C
  C111     1.0000 0.36380  0.67289  0.59879  Biso   1.000  C
  C112     1.0000 0.34780  0.60838  0.64859  Biso   1.000  C
  H61      1.0000 0.31440  0.58160  0.65720  Biso   1.000  H
  C113     1.0000 0.46810  0.54974  0.71248  Biso   1.000  C
  H62      1.0000 0.44720  0.53380  0.68740  Biso   1.000  H
  C114     1.0000 0.48050  0.66326  0.65907  Biso   1.000  C
  H63      1.0000 0.53610  0.67430  0.67500  Biso   1.000  H
  C115     1.0000 0.31230  0.63300  0.61189  Biso   1.000  C
  H64      1.0000 0.25510  0.62300  0.59640  Biso   1.000  H
  C116     1.0000 0.46750  0.59800  0.71248  Biso   1.000  C
  C117     1.0000 0.44640  0.68724  0.62187  Biso   1.000  C
  H65      1.0000 0.48100  0.71350  0.61280  Biso   1.000  H
  O26      1.0000 0.23690  0.68914  0.54573  Biso   1.000  O
  C118     1.0000 0.82280  0.20016  0.56056  Biso   1.000  C
  O27      1.0000 0.87820  0.23256  0.54636  Biso   1.000  O
  C119     1.0000 0.93240  0.12332  0.67247  Biso   1.000  C
  C120     1.0000 0.86380  0.17289  0.59879  Biso   1.000  C
  C121     1.0000 0.84780  0.10838  0.64859  Biso   1.000  C
  H66      1.0000 0.81440  0.08160  0.65720  Biso   1.000  H
  C122     1.0000 0.96810  0.04974  0.71248  Biso   1.000  C
  H67      1.0000 0.94720  0.03380  0.68740  Biso   1.000  H
  C123     1.0000 0.98050  0.16326  0.65907  Biso   1.000  C
  H68      1.0000 0.03610  0.17430  0.67500  Biso   1.000  H
  C124     1.0000 0.81230  0.13300  0.61189  Biso   1.000  C
  H69      1.0000 0.75510  0.12300  0.59640  Biso   1.000  H
  C125     1.0000 0.96750  0.09800  0.71248  Biso   1.000  C
  C126     1.0000 0.94640  0.18724  0.62187  Biso   1.000  C
  H70      1.0000 0.98100  0.21350  0.61280  Biso   1.000  H
  O28      1.0000 0.73690  0.18914  0.54573  Biso   1.000  O
  C127     1.0000 0.67720  0.29984  0.56056  Biso   1.000  C
  O29      1.0000 0.62180  0.26744  0.54636  Biso   1.000  O
  C128     1.0000 0.56760  0.37668  0.67247  Biso   1.000  C
  C129     1.0000 0.63620  0.32711  0.59879  Biso   1.000  C
  C130     1.0000 0.65220  0.39162  0.64859  Biso   1.000  C
  H71      1.0000 0.68560  0.41840  0.65720  Biso   1.000  H
  C131     1.0000 0.53190  0.45026  0.71248  Biso   1.000  C
  H72      1.0000 0.55280  0.46620  0.68740  Biso   1.000  H
  C132     1.0000 0.51950  0.33674  0.65907  Biso   1.000  C
  H73      1.0000 0.46390  0.32570  0.67500  Biso   1.000  H
  C133     1.0000 0.68770  0.36700  0.61189  Biso   1.000  C
  H74      1.0000 0.74490  0.37700  0.59640  Biso   1.000  H
  C134     1.0000 0.53250  0.40200  0.71248  Biso   1.000  C
  C135     1.0000 0.55360  0.31276  0.62187  Biso   1.000  C
  H75      1.0000 0.51900  0.28650  0.61280  Biso   1.000  H
  O30      1.0000 0.76310  0.31086  0.54573  Biso   1.000  O
  C136     1.0000 0.17720  0.79984  0.56056  Biso   1.000  C
  O31      1.0000 0.12180  0.76744  0.54636  Biso   1.000  O
  C137     1.0000 0.06760  0.87668  0.67247  Biso   1.000  C
  C138     1.0000 0.13620  0.82711  0.59879  Biso   1.000  C
  C139     1.0000 0.15220  0.89162  0.64859  Biso   1.000  C
  H76      1.0000 0.18560  0.91840  0.65720  Biso   1.000  H
  C140     1.0000 0.03190  0.95026  0.71248  Biso   1.000  C
  H77      1.0000 0.05280  0.96620  0.68740  Biso   1.000  H
  C141     1.0000 0.01950  0.83674  0.65907  Biso   1.000  C
  H78      1.0000 0.96390  0.82570  0.67500  Biso   1.000  H
  C142     1.0000 0.18770  0.86700  0.61189  Biso   1.000  C
  H79      1.0000 0.24490  0.87700  0.59640  Biso   1.000  H
  C143     1.0000 0.03250  0.90200  0.71248  Biso   1.000  C
  C144     1.0000 0.05360  0.81276  0.62187  Biso   1.000  C
  H80      1.0000 0.01900  0.78650  0.61280  Biso   1.000  H
  O32      1.0000 0.26310  0.81086  0.54573  Biso   1.000  O
  Cu1      1.0000 0.33332  0.22469  0.00000  Biso   1.000  Cu
  Cu2      1.0000 0.83332  0.72469  0.00000  Biso   1.000  Cu
  Cu3      1.0000 0.66668  0.77531  0.00000  Biso   1.000  Cu
  Cu4      1.0000 0.16668  0.27531  0.00000  Biso   1.000  Cu
  Cu5      1.0000 0.66668  0.22469  0.50000  Biso   1.000  Cu
  Cu6      1.0000 0.16668  0.72469  0.50000  Biso   1.000  Cu
  Cu7      1.0000 0.33332  0.77531  0.50000  Biso   1.000  Cu
  Cu8      1.0000 0.83332  0.27531  0.50000  Biso   1.000  Cu
  C145     1.0000 0.50000  0.47440  0.25000  Biso   1.000  C
  C146     1.0000 0.50000  0.37886  0.25000  Biso   1.000  C
  H81      1.0000 0.50000  0.34690  0.25000  Biso   1.000  H
  C147     1.0000 0.00000  0.97440  0.25000  Biso   1.000  C
  C148     1.0000 0.00000  0.87886  0.25000  Biso   1.000  C
  H82      1.0000 0.00000  0.84690  0.25000  Biso   1.000  H
  C149     1.0000 0.50000  0.52560  0.25000  Biso   1.000  C
  C150     1.0000 0.50000  0.62114  0.25000  Biso   1.000  C
  H83      1.0000 0.50000  0.65310  0.25000  Biso   1.000  H
  C151     1.0000 0.00000  0.02560  0.25000  Biso   1.000  C
  C152     1.0000 0.00000  0.12114  0.25000  Biso   1.000  C
  H84      1.0000 0.00000  0.15310  0.25000  Biso   1.000  H
  C153     1.0000 0.50000  0.52560  0.75000  Biso   1.000  C
  C154     1.0000 0.50000  0.62114  0.75000  Biso   1.000  C
  H85      1.0000 0.50000  0.65310  0.75000  Biso   1.000  H
  C155     1.0000 0.00000  0.02560  0.75000  Biso   1.000  C
  C156     1.0000 0.00000  0.12114  0.75000  Biso   1.000  C
  H86      1.0000 0.00000  0.15310  0.75000  Biso   1.000  H
  C157     1.0000 0.50000  0.47440  0.75000  Biso   1.000  C
  C158     1.0000 0.50000  0.37886  0.75000  Biso   1.000  C
  H87      1.0000 0.50000  0.34690  0.75000  Biso   1.000  H
  C159     1.0000 0.00000  0.97440  0.75000  Biso   1.000  C
  C160     1.0000 0.00000  0.87886  0.75000  Biso   1.000  C
  H88      1.0000 0.00000  0.84690  0.75000  Biso   1.000  H
