data_NAGBUU_clean
_audit_creation_date              2014-07-02
_audit_creation_method            'Materials Studio'
_symmetry_space_group_name_H-M    'P1'
_symmetry_Int_Tables_number       1
_symmetry_cell_setting            triclinic
loop_
_symmetry_equiv_pos_as_xyz
  x,y,z
_cell_length_a                    6.9247
_cell_length_b                    20.6271
_cell_length_c                    26.0974
_cell_angle_alpha                 90.0000
_cell_angle_beta                  90.0000
_cell_angle_gamma                 90.0000
loop_
_atom_site_label
_atom_site_type_symbol
_atom_site_fract_x
_atom_site_fract_y
_atom_site_fract_z
_atom_site_U_iso_or_equiv
_atom_site_adp_type
_atom_site_occupancy
Co1    Co    0.76286   0.97811   0.63501   0.01267  Uiso   1.00
Co2    Co    0.99705   0.49263   0.75020   0.01267  Uiso   1.00
Co3    Co    0.23714   0.52189   0.13501   0.01267  Uiso   1.00
Co4    Co    0.00295   0.00737   0.25020   0.01267  Uiso   1.00
Co5    Co    0.26286   0.02189   0.86499   0.01267  Uiso   1.00
Co6    Co    0.49705   0.50737   0.74980   0.01267  Uiso   1.00
Co7    Co    0.73714   0.47811   0.36499   0.01267  Uiso   1.00
Co8    Co    0.50295   0.99263   0.24980   0.01267  Uiso   1.00
Co9    Co    0.23714   0.02189   0.36499   0.01267  Uiso   1.00
Co10   Co    0.00295   0.50737   0.24980   0.01267  Uiso   1.00
Co11   Co    0.76286   0.47811   0.86499   0.01267  Uiso   1.00
Co12   Co    0.99705   0.99263   0.74980   0.01267  Uiso   1.00
Co13   Co    0.73714   0.97811   0.13501   0.01267  Uiso   1.00
Co14   Co    0.50295   0.49263   0.25020   0.01267  Uiso   1.00
Co15   Co    0.26286   0.52189   0.63501   0.01267  Uiso   1.00
Co16   Co    0.49705   0.00737   0.75020   0.01267  Uiso   1.00
H1     H     0.73080   0.92870   0.71420   0.01267  Uiso   1.00
H2     H     0.36430   0.90150   0.52840   0.01267  Uiso   1.00
H3     H     0.35520   0.92300   0.44220   0.01267  Uiso   1.00
H4     H     0.13770   0.09460   0.46570   0.01267  Uiso   1.00
H5     H     0.13630   0.07760   0.55290   0.01267  Uiso   1.00
H6     H     0.93440   0.21330   0.73790   0.01267  Uiso   1.00
H7     H     0.89870   0.16570   0.58890   0.01267  Uiso   1.00
H8     H     0.94100   0.35320   0.63060   0.01267  Uiso   1.00
H9     H     0.26920   0.57130   0.21420   0.01267  Uiso   1.00
H10    H     0.63570   0.59850   0.02840   0.01267  Uiso   1.00
H11    H     0.64480   0.57700   0.94220   0.01267  Uiso   1.00
H12    H     0.86230   0.40540   0.96570   0.01267  Uiso   1.00
H13    H     0.86370   0.42240   0.05290   0.01267  Uiso   1.00
H14    H     0.06560   0.28670   0.23790   0.01267  Uiso   1.00
H15    H     0.10130   0.33430   0.08890   0.01267  Uiso   1.00
H16    H     0.05900   0.14680   0.13060   0.01267  Uiso   1.00
H17    H     0.23080   0.07130   0.78580   0.01267  Uiso   1.00
H18    H     0.86430   0.09850   0.97160   0.01267  Uiso   1.00
H19    H     0.85520   0.07700   0.05780   0.01267  Uiso   1.00
H20    H     0.63770   0.90540   0.03430   0.01267  Uiso   1.00
H21    H     0.63630   0.92240   0.94710   0.01267  Uiso   1.00
H22    H     0.43440   0.78670   0.76210   0.01267  Uiso   1.00
H23    H     0.39870   0.83430   0.91110   0.01267  Uiso   1.00
H24    H     0.44100   0.64680   0.86940   0.01267  Uiso   1.00
H25    H     0.76920   0.42870   0.28580   0.01267  Uiso   1.00
H26    H     0.13570   0.40150   0.47160   0.01267  Uiso   1.00
H27    H     0.14480   0.42300   0.55780   0.01267  Uiso   1.00
H28    H     0.36230   0.59460   0.53430   0.01267  Uiso   1.00
H29    H     0.36370   0.57760   0.44710   0.01267  Uiso   1.00
H30    H     0.56560   0.71330   0.26210   0.01267  Uiso   1.00
H31    H     0.60130   0.66570   0.41110   0.01267  Uiso   1.00
H32    H     0.55900   0.85320   0.36940   0.01267  Uiso   1.00
H33    H     0.26920   0.07130   0.28580   0.01267  Uiso   1.00
H34    H     0.63570   0.09850   0.47160   0.01267  Uiso   1.00
H35    H     0.64480   0.07700   0.55780   0.01267  Uiso   1.00
H36    H     0.86230   0.90540   0.53430   0.01267  Uiso   1.00
H37    H     0.86370   0.92240   0.44710   0.01267  Uiso   1.00
H38    H     0.06560   0.78670   0.26210   0.01267  Uiso   1.00
H39    H     0.10130   0.83430   0.41110   0.01267  Uiso   1.00
H40    H     0.05900   0.64680   0.36940   0.01267  Uiso   1.00
H41    H     0.73080   0.42870   0.78580   0.01267  Uiso   1.00
H42    H     0.36430   0.40150   0.97160   0.01267  Uiso   1.00
H43    H     0.35520   0.42300   0.05780   0.01267  Uiso   1.00
H44    H     0.13770   0.59460   0.03430   0.01267  Uiso   1.00
H45    H     0.13630   0.57760   0.94710   0.01267  Uiso   1.00
H46    H     0.93440   0.71330   0.76210   0.01267  Uiso   1.00
H47    H     0.89870   0.66570   0.91110   0.01267  Uiso   1.00
H48    H     0.94100   0.85320   0.86940   0.01267  Uiso   1.00
H49    H     0.76920   0.92870   0.21420   0.01267  Uiso   1.00
H50    H     0.13570   0.90150   0.02840   0.01267  Uiso   1.00
H51    H     0.14480   0.92300   0.94220   0.01267  Uiso   1.00
H52    H     0.36230   0.09460   0.96570   0.01267  Uiso   1.00
H53    H     0.36370   0.07760   0.05290   0.01267  Uiso   1.00
H54    H     0.56560   0.21330   0.23790   0.01267  Uiso   1.00
H55    H     0.60130   0.16570   0.08890   0.01267  Uiso   1.00
H56    H     0.55900   0.35320   0.13060   0.01267  Uiso   1.00
H57    H     0.23080   0.57130   0.71420   0.01267  Uiso   1.00
H58    H     0.86430   0.59850   0.52840   0.01267  Uiso   1.00
H59    H     0.85520   0.57700   0.44220   0.01267  Uiso   1.00
H60    H     0.63770   0.40540   0.46570   0.01267  Uiso   1.00
H61    H     0.63630   0.42240   0.55290   0.01267  Uiso   1.00
H62    H     0.43440   0.28670   0.73790   0.01267  Uiso   1.00
H63    H     0.39870   0.33430   0.58890   0.01267  Uiso   1.00
H64    H     0.44100   0.14680   0.63060   0.01267  Uiso   1.00
C1     C     0.25440   0.97813   0.60698   0.01267  Uiso   1.00
C2     C     0.25090   0.98759   0.55071   0.01267  Uiso   1.00
C3     C     0.31700   0.94097   0.51663   0.01267  Uiso   1.00
C4     C     0.31120   0.95444   0.46486   0.01267  Uiso   1.00
C5     C     0.18280   0.05532   0.47854   0.01267  Uiso   1.00
C6     C     0.18230   0.04556   0.53104   0.01267  Uiso   1.00
C7     C     0.93400   0.29113   0.69100   0.01267  Uiso   1.00
C8     C     0.92790   0.22567   0.70365   0.01267  Uiso   1.00
C9     C     0.91220   0.17821   0.66570   0.01267  Uiso   1.00
C10    C     0.90930   0.19659   0.61468   0.01267  Uiso   1.00
C11    C     0.92250   0.26176   0.60283   0.01267  Uiso   1.00
C12    C     0.93380   0.30972   0.63976   0.01267  Uiso   1.00
C13    C     0.94250   0.34369   0.73230   0.01267  Uiso   1.00
C14    C     0.89600   0.10697   0.67756   0.01267  Uiso   1.00
C15    C     0.74560   0.52187   0.10698   0.01267  Uiso   1.00
C16    C     0.74910   0.51241   0.05071   0.01267  Uiso   1.00
C17    C     0.68300   0.55903   0.01663   0.01267  Uiso   1.00
C18    C     0.68880   0.54556   0.96486   0.01267  Uiso   1.00
C19    C     0.81720   0.44468   0.97854   0.01267  Uiso   1.00
C20    C     0.81770   0.45444   0.03104   0.01267  Uiso   1.00
C21    C     0.06600   0.20887   0.19100   0.01267  Uiso   1.00
C22    C     0.07210   0.27433   0.20365   0.01267  Uiso   1.00
C23    C     0.08780   0.32179   0.16570   0.01267  Uiso   1.00
C24    C     0.09070   0.30341   0.11468   0.01267  Uiso   1.00
C25    C     0.07750   0.23824   0.10283   0.01267  Uiso   1.00
C26    C     0.06620   0.19028   0.13976   0.01267  Uiso   1.00
C27    C     0.05750   0.15631   0.23230   0.01267  Uiso   1.00
C28    C     0.10400   0.39303   0.17756   0.01267  Uiso   1.00
C29    C     0.75440   0.02187   0.89302   0.01267  Uiso   1.00
C30    C     0.75090   0.01241   0.94929   0.01267  Uiso   1.00
C31    C     0.81700   0.05903   0.98337   0.01267  Uiso   1.00
C32    C     0.81120   0.04556   0.03514   0.01267  Uiso   1.00
C33    C     0.68280   0.94468   0.02146   0.01267  Uiso   1.00
C34    C     0.68230   0.95444   0.96896   0.01267  Uiso   1.00
C35    C     0.43400   0.70887   0.80900   0.01267  Uiso   1.00
C36    C     0.42790   0.77433   0.79635   0.01267  Uiso   1.00
C37    C     0.41220   0.82179   0.83430   0.01267  Uiso   1.00
C38    C     0.40930   0.80341   0.88532   0.01267  Uiso   1.00
C39    C     0.42250   0.73824   0.89717   0.01267  Uiso   1.00
C40    C     0.43380   0.69028   0.86024   0.01267  Uiso   1.00
C41    C     0.44250   0.65631   0.76770   0.01267  Uiso   1.00
C42    C     0.39600   0.89303   0.82244   0.01267  Uiso   1.00
C43    C     0.24560   0.47813   0.39302   0.01267  Uiso   1.00
C44    C     0.24910   0.48759   0.44929   0.01267  Uiso   1.00
C45    C     0.18300   0.44097   0.48337   0.01267  Uiso   1.00
C46    C     0.18880   0.45444   0.53514   0.01267  Uiso   1.00
C47    C     0.31720   0.55532   0.52146   0.01267  Uiso   1.00
C48    C     0.31770   0.54556   0.46896   0.01267  Uiso   1.00
C49    C     0.56600   0.79113   0.30900   0.01267  Uiso   1.00
C50    C     0.57210   0.72567   0.29635   0.01267  Uiso   1.00
C51    C     0.58780   0.67821   0.33430   0.01267  Uiso   1.00
C52    C     0.59070   0.69659   0.38532   0.01267  Uiso   1.00
C53    C     0.57750   0.76176   0.39717   0.01267  Uiso   1.00
C54    C     0.56620   0.80972   0.36024   0.01267  Uiso   1.00
C55    C     0.55750   0.84369   0.26770   0.01267  Uiso   1.00
C56    C     0.60400   0.60697   0.32244   0.01267  Uiso   1.00
C57    C     0.74560   0.02187   0.39302   0.01267  Uiso   1.00
C58    C     0.74910   0.01241   0.44929   0.01267  Uiso   1.00
C59    C     0.68300   0.05903   0.48337   0.01267  Uiso   1.00
C60    C     0.68880   0.04556   0.53514   0.01267  Uiso   1.00
C61    C     0.81720   0.94468   0.52146   0.01267  Uiso   1.00
C62    C     0.81770   0.95444   0.46896   0.01267  Uiso   1.00
C63    C     0.06600   0.70887   0.30900   0.01267  Uiso   1.00
C64    C     0.07210   0.77433   0.29635   0.01267  Uiso   1.00
C65    C     0.08780   0.82179   0.33430   0.01267  Uiso   1.00
C66    C     0.09070   0.80341   0.38532   0.01267  Uiso   1.00
C67    C     0.07750   0.73824   0.39717   0.01267  Uiso   1.00
C68    C     0.06620   0.69028   0.36024   0.01267  Uiso   1.00
C69    C     0.05750   0.65631   0.26770   0.01267  Uiso   1.00
C70    C     0.10400   0.89303   0.32244   0.01267  Uiso   1.00
C71    C     0.25440   0.47813   0.89302   0.01267  Uiso   1.00
C72    C     0.25090   0.48759   0.94929   0.01267  Uiso   1.00
C73    C     0.31700   0.44097   0.98337   0.01267  Uiso   1.00
C74    C     0.31120   0.45444   0.03514   0.01267  Uiso   1.00
C75    C     0.18280   0.55532   0.02146   0.01267  Uiso   1.00
C76    C     0.18230   0.54556   0.96896   0.01267  Uiso   1.00
C77    C     0.93400   0.79113   0.80900   0.01267  Uiso   1.00
C78    C     0.92790   0.72567   0.79635   0.01267  Uiso   1.00
C79    C     0.91220   0.67821   0.83430   0.01267  Uiso   1.00
C80    C     0.90930   0.69659   0.88532   0.01267  Uiso   1.00
C81    C     0.92250   0.76176   0.89717   0.01267  Uiso   1.00
C82    C     0.93380   0.80972   0.86024   0.01267  Uiso   1.00
C83    C     0.94250   0.84369   0.76770   0.01267  Uiso   1.00
C84    C     0.89600   0.60697   0.82244   0.01267  Uiso   1.00
C85    C     0.24560   0.97813   0.10698   0.01267  Uiso   1.00
C86    C     0.24910   0.98759   0.05071   0.01267  Uiso   1.00
C87    C     0.18300   0.94097   0.01663   0.01267  Uiso   1.00
C88    C     0.18880   0.95444   0.96486   0.01267  Uiso   1.00
C89    C     0.31720   0.05532   0.97854   0.01267  Uiso   1.00
C90    C     0.31770   0.04556   0.03104   0.01267  Uiso   1.00
C91    C     0.56600   0.29113   0.19100   0.01267  Uiso   1.00
C92    C     0.57210   0.22567   0.20365   0.01267  Uiso   1.00
C93    C     0.58780   0.17821   0.16570   0.01267  Uiso   1.00
C94    C     0.59070   0.19659   0.11468   0.01267  Uiso   1.00
C95    C     0.57750   0.26176   0.10283   0.01267  Uiso   1.00
C96    C     0.56620   0.30972   0.13976   0.01267  Uiso   1.00
C97    C     0.55750   0.34369   0.23230   0.01267  Uiso   1.00
C98    C     0.60400   0.10697   0.17756   0.01267  Uiso   1.00
C99    C     0.75440   0.52187   0.60698   0.01267  Uiso   1.00
C100   C     0.75090   0.51241   0.55071   0.01267  Uiso   1.00
C101   C     0.81700   0.55903   0.51663   0.01267  Uiso   1.00
C102   C     0.81120   0.54556   0.46486   0.01267  Uiso   1.00
C103   C     0.68280   0.44468   0.47854   0.01267  Uiso   1.00
C104   C     0.68230   0.45444   0.53104   0.01267  Uiso   1.00
C105   C     0.43400   0.20887   0.69100   0.01267  Uiso   1.00
C106   C     0.42790   0.27433   0.70365   0.01267  Uiso   1.00
C107   C     0.41220   0.32179   0.66570   0.01267  Uiso   1.00
C108   C     0.40930   0.30341   0.61468   0.01267  Uiso   1.00
C109   C     0.42250   0.23824   0.60283   0.01267  Uiso   1.00
C110   C     0.43380   0.19028   0.63976   0.01267  Uiso   1.00
C111   C     0.44250   0.15631   0.73230   0.01267  Uiso   1.00
C112   C     0.39600   0.39303   0.67756   0.01267  Uiso   1.00
N1     N     0.09580   0.97145   0.63564   0.01267  Uiso   1.00
N2     N     0.16220   0.97069   0.68385   0.01267  Uiso   1.00
N3     N     0.35030   0.97663   0.68386   0.01267  Uiso   1.00
N4     N     0.41450   0.98087   0.63554   0.01267  Uiso   1.00
N5     N     0.24570   0.01038   0.44552   0.01267  Uiso   1.00
N6     N     0.92420   0.27914   0.54819   0.01267  Uiso   1.00
N7     N     0.90420   0.52855   0.13564   0.01267  Uiso   1.00
N8     N     0.83780   0.52931   0.18385   0.01267  Uiso   1.00
N9     N     0.64970   0.52337   0.18386   0.01267  Uiso   1.00
N10    N     0.58550   0.51913   0.13554   0.01267  Uiso   1.00
N11    N     0.75430   0.48962   0.94552   0.01267  Uiso   1.00
N12    N     0.07580   0.22086   0.04819   0.01267  Uiso   1.00
N13    N     0.59580   0.02855   0.86436   0.01267  Uiso   1.00
N14    N     0.66220   0.02931   0.81615   0.01267  Uiso   1.00
N15    N     0.85030   0.02337   0.81614   0.01267  Uiso   1.00
N16    N     0.91450   0.01913   0.86446   0.01267  Uiso   1.00
N17    N     0.74570   0.98962   0.05448   0.01267  Uiso   1.00
N18    N     0.42420   0.72086   0.95181   0.01267  Uiso   1.00
N19    N     0.40420   0.47145   0.36436   0.01267  Uiso   1.00
N20    N     0.33780   0.47069   0.31615   0.01267  Uiso   1.00
N21    N     0.14970   0.47663   0.31614   0.01267  Uiso   1.00
N22    N     0.08550   0.48087   0.36446   0.01267  Uiso   1.00
N23    N     0.25430   0.51038   0.55448   0.01267  Uiso   1.00
N24    N     0.57580   0.77914   0.45181   0.01267  Uiso   1.00
N25    N     0.90420   0.02855   0.36436   0.01267  Uiso   1.00
N26    N     0.83780   0.02931   0.31615   0.01267  Uiso   1.00
N27    N     0.64970   0.02337   0.31614   0.01267  Uiso   1.00
N28    N     0.58550   0.01913   0.36446   0.01267  Uiso   1.00
N29    N     0.75430   0.98962   0.55448   0.01267  Uiso   1.00
N30    N     0.07580   0.72086   0.45181   0.01267  Uiso   1.00
N31    N     0.09580   0.47145   0.86436   0.01267  Uiso   1.00
N32    N     0.16220   0.47069   0.81615   0.01267  Uiso   1.00
N33    N     0.35030   0.47663   0.81614   0.01267  Uiso   1.00
N34    N     0.41450   0.48087   0.86446   0.01267  Uiso   1.00
N35    N     0.24570   0.51038   0.05448   0.01267  Uiso   1.00
N36    N     0.92420   0.77914   0.95181   0.01267  Uiso   1.00
N37    N     0.40420   0.97145   0.13564   0.01267  Uiso   1.00
N38    N     0.33780   0.97069   0.18385   0.01267  Uiso   1.00
N39    N     0.14970   0.97663   0.18386   0.01267  Uiso   1.00
N40    N     0.08550   0.98087   0.13554   0.01267  Uiso   1.00
N41    N     0.25430   0.01038   0.94552   0.01267  Uiso   1.00
N42    N     0.57580   0.27914   0.04819   0.01267  Uiso   1.00
N43    N     0.59580   0.52855   0.63564   0.01267  Uiso   1.00
N44    N     0.66220   0.52931   0.68385   0.01267  Uiso   1.00
N45    N     0.85030   0.52337   0.68386   0.01267  Uiso   1.00
N46    N     0.91450   0.51913   0.63554   0.01267  Uiso   1.00
N47    N     0.74570   0.48962   0.44552   0.01267  Uiso   1.00
N48    N     0.42420   0.22086   0.54819   0.01267  Uiso   1.00
O1     O     0.89820   0.32770   0.77682   0.01267  Uiso   1.00
O2     O     0.98910   0.39888   0.71718   0.01267  Uiso   1.00
O3     O     0.96260   0.08745   0.71915   0.01267  Uiso   1.00
O4     O     0.81530   0.07403   0.64277   0.01267  Uiso   1.00
O5     O     0.93460   0.23631   0.51682   0.01267  Uiso   1.00
O6     O     0.92300   0.33538   0.53639   0.01267  Uiso   1.00
O7     O     0.74100   0.96971   0.71320   0.01267  Uiso   1.00
O8     O     0.10180   0.17230   0.27682   0.01267  Uiso   1.00
O9     O     0.01090   0.10112   0.21718   0.01267  Uiso   1.00
O10    O     0.03740   0.41255   0.21915   0.01267  Uiso   1.00
O11    O     0.18470   0.42597   0.14277   0.01267  Uiso   1.00
O12    O     0.06540   0.26369   0.01682   0.01267  Uiso   1.00
O13    O     0.07700   0.16462   0.03639   0.01267  Uiso   1.00
O14    O     0.25900   0.53029   0.21320   0.01267  Uiso   1.00
O15    O     0.39820   0.67230   0.72318   0.01267  Uiso   1.00
O16    O     0.48910   0.60112   0.78282   0.01267  Uiso   1.00
O17    O     0.46260   0.91255   0.78085   0.01267  Uiso   1.00
O18    O     0.31530   0.92597   0.85723   0.01267  Uiso   1.00
O19    O     0.43460   0.76369   0.98318   0.01267  Uiso   1.00
O20    O     0.42300   0.66462   0.96361   0.01267  Uiso   1.00
O21    O     0.24100   0.03029   0.78680   0.01267  Uiso   1.00
O22    O     0.60180   0.82770   0.22318   0.01267  Uiso   1.00
O23    O     0.51090   0.89888   0.28282   0.01267  Uiso   1.00
O24    O     0.53740   0.58745   0.28085   0.01267  Uiso   1.00
O25    O     0.68470   0.57403   0.35723   0.01267  Uiso   1.00
O26    O     0.56540   0.73631   0.48318   0.01267  Uiso   1.00
O27    O     0.57700   0.83538   0.46361   0.01267  Uiso   1.00
O28    O     0.75900   0.46971   0.28680   0.01267  Uiso   1.00
O29    O     0.10180   0.67230   0.22318   0.01267  Uiso   1.00
O30    O     0.01090   0.60112   0.28282   0.01267  Uiso   1.00
O31    O     0.03740   0.91255   0.28085   0.01267  Uiso   1.00
O32    O     0.18470   0.92597   0.35723   0.01267  Uiso   1.00
O33    O     0.06540   0.76369   0.48318   0.01267  Uiso   1.00
O34    O     0.07700   0.66462   0.46361   0.01267  Uiso   1.00
O35    O     0.25900   0.03029   0.28680   0.01267  Uiso   1.00
O36    O     0.89820   0.82770   0.72318   0.01267  Uiso   1.00
O37    O     0.98910   0.89888   0.78282   0.01267  Uiso   1.00
O38    O     0.96260   0.58745   0.78085   0.01267  Uiso   1.00
O39    O     0.81530   0.57403   0.85723   0.01267  Uiso   1.00
O40    O     0.93460   0.73631   0.98318   0.01267  Uiso   1.00
O41    O     0.92300   0.83538   0.96361   0.01267  Uiso   1.00
O42    O     0.74100   0.46971   0.78680   0.01267  Uiso   1.00
O43    O     0.60180   0.32770   0.27682   0.01267  Uiso   1.00
O44    O     0.51090   0.39888   0.21718   0.01267  Uiso   1.00
O45    O     0.53740   0.08745   0.21915   0.01267  Uiso   1.00
O46    O     0.68470   0.07403   0.14277   0.01267  Uiso   1.00
O47    O     0.56540   0.23631   0.01682   0.01267  Uiso   1.00
O48    O     0.57700   0.33538   0.03639   0.01267  Uiso   1.00
O49    O     0.75900   0.96971   0.21320   0.01267  Uiso   1.00
O50    O     0.39820   0.17230   0.77682   0.01267  Uiso   1.00
O51    O     0.48910   0.10112   0.71718   0.01267  Uiso   1.00
O52    O     0.46260   0.41255   0.71915   0.01267  Uiso   1.00
O53    O     0.31530   0.42597   0.64277   0.01267  Uiso   1.00
O54    O     0.43460   0.26369   0.51682   0.01267  Uiso   1.00
O55    O     0.42300   0.16462   0.53639   0.01267  Uiso   1.00
O56    O     0.24100   0.53029   0.71320   0.01267  Uiso   1.00
