data_image0
_cell_length_a       26.1535
_cell_length_b       13.6168
_cell_length_c       17.1807
_cell_angle_alpha    90
_cell_angle_beta     126.056
_cell_angle_gamma    90

_symmetry_space_group_name_H-M    "P 1"
_symmetry_int_tables_number       1

loop_
  _symmetry_equiv_pos_as_xyz
  'x, y, z'

loop_
  _atom_site_label
  _atom_site_occupancy
  _atom_site_fract_x
  _atom_site_fract_y
  _atom_site_fract_z
  _atom_site_thermal_displace_type
  _atom_site_B_iso_or_equiv
  _atom_site_type_symbol
  Co1      1.0000 0.12292  0.22335  0.18843  Biso   1.000  Co
  O1       1.0000 0.11890  0.35330  0.11120  Biso   1.000  O
  O2       1.0000 0.09760  0.36910  0.21460  Biso   1.000  O
  N1       1.0000 0.71950  0.25530  0.80350  Biso   1.000  N
  N2       1.0000 0.02610  0.19640  0.07530  Biso   1.000  N
  N3       1.0000 0.92510  0.15450  0.00050  Biso   1.000  N
  N4       1.0000 0.85030  0.87810  0.87090  Biso   1.000  N
  N5       1.0000 0.81160  0.19100  0.91990  Biso   1.000  N
  N6       1.0000 0.88520  0.13930  0.21670  Biso   1.000  N
  N7       1.0000 0.87490  0.10540  0.08170  Biso   1.000  N
  N8       1.0000 0.84640  0.01600  0.93560  Biso   1.000  N
  C1       1.0000 0.08220  0.51140  0.11940  Biso   1.000  C
  H1       1.0000 0.06820  0.54160  0.15630  Biso   1.000  H
  H2       1.0000 0.11990  0.54790  0.13470  Biso   1.000  H
  C2       1.0000 0.03060  0.52110  0.01420  Biso   1.000  C
  H3       1.0000 0.02440  0.59160  0.99650  Biso   1.000  H
  H4       1.0000 0.04380  0.48770  0.97740  Biso   1.000  H
  C3       1.0000 0.81630  0.29250  0.93040  Biso   1.000  C
  H5       1.0000 0.85240  0.32870  0.97870  Biso   1.000  H
  C4       1.0000 0.98150  0.16640  0.08490  Biso   1.000  C
  H6       1.0000 0.98900  0.15480  0.14540  Biso   1.000  H
  C5       1.0000 0.93430  0.18200  0.93220  Biso   1.000  C
  H7       1.0000 0.90300  0.18350  0.86450  Biso   1.000  H
  C6       1.0000 0.75190  0.17560  0.84100  Biso   1.000  C
  H8       1.0000 0.73530  0.11220  0.81550  Biso   1.000  H
  C7       1.0000 0.87650  0.96460  0.90700  Biso   1.000  C
  H9       1.0000 0.91260  0.98800  0.91210  Biso   1.000  H
  C8       1.0000 0.99530  0.20630  0.97850  Biso   1.000  C
  H10      1.0000 0.01430  0.22740  0.94830  Biso   1.000  H
  C9       1.0000 0.76050  0.32920  0.85990  Biso   1.000  C
  H11      1.0000 0.75040  0.39720  0.85000  Biso   1.000  H
  C10      1.0000 0.86670  0.17160  0.13180  Biso   1.000  C
  H12      1.0000 0.84940  0.23510  0.10810  Biso   1.000  H
  C11      1.0000 0.79740  0.95620  0.91690  Biso   1.000  C
  H13      1.0000 0.76740  0.97100  0.92960  Biso   1.000  H
  C12      1.0000 0.90670  0.04620  0.22240  Biso   1.000  C
  H14      1.0000 0.92370  0.00320  0.27590  Biso   1.000  H
  C13      1.0000 0.90020  0.02480  0.14040  Biso   1.000  C
  H15      1.0000 0.91120  0.96450  0.12590  Biso   1.000  H
  C14      1.0000 0.80060  0.87260  0.87720  Biso   1.000  C
  H16      1.0000 0.77260  0.81840  0.85670  Biso   1.000  H
  C15      1.0000 0.10070  0.40430  0.15090  Biso   1.000  C
  B1       1.0000 0.86420  0.11730  0.98370  Biso   1.000  B
  Co2      1.0000 0.62292  0.72335  0.18843  Biso   1.000  Co
  O3       1.0000 0.61890  0.85330  0.11120  Biso   1.000  O
  O4       1.0000 0.59760  0.86910  0.21460  Biso   1.000  O
  N9       1.0000 0.21950  0.75530  0.80350  Biso   1.000  N
  N10      1.0000 0.52610  0.69640  0.07530  Biso   1.000  N
  N11      1.0000 0.42510  0.65450  0.00050  Biso   1.000  N
  N12      1.0000 0.35030  0.37810  0.87090  Biso   1.000  N
  N13      1.0000 0.31160  0.69100  0.91990  Biso   1.000  N
  N14      1.0000 0.38520  0.63930  0.21670  Biso   1.000  N
  N15      1.0000 0.37490  0.60540  0.08170  Biso   1.000  N
  N16      1.0000 0.34640  0.51600  0.93560  Biso   1.000  N
  C16      1.0000 0.58220  0.01140  0.11940  Biso   1.000  C
  H17      1.0000 0.56820  0.04160  0.15630  Biso   1.000  H
  H18      1.0000 0.61990  0.04790  0.13470  Biso   1.000  H
  C17      1.0000 0.53060  0.02110  0.01420  Biso   1.000  C
  H19      1.0000 0.52440  0.09160  0.99650  Biso   1.000  H
  H20      1.0000 0.54380  0.98770  0.97740  Biso   1.000  H
  C18      1.0000 0.31630  0.79250  0.93040  Biso   1.000  C
  H21      1.0000 0.35240  0.82870  0.97870  Biso   1.000  H
  C19      1.0000 0.48150  0.66640  0.08490  Biso   1.000  C
  H22      1.0000 0.48900  0.65480  0.14540  Biso   1.000  H
  C20      1.0000 0.43430  0.68200  0.93220  Biso   1.000  C
  H23      1.0000 0.40300  0.68350  0.86450  Biso   1.000  H
  C21      1.0000 0.25190  0.67560  0.84100  Biso   1.000  C
  H24      1.0000 0.23530  0.61220  0.81550  Biso   1.000  H
  C22      1.0000 0.37650  0.46460  0.90700  Biso   1.000  C
  H25      1.0000 0.41260  0.48800  0.91210  Biso   1.000  H
  C23      1.0000 0.49530  0.70630  0.97850  Biso   1.000  C
  H26      1.0000 0.51430  0.72740  0.94830  Biso   1.000  H
  C24      1.0000 0.26050  0.82920  0.85990  Biso   1.000  C
  H27      1.0000 0.25040  0.89720  0.85000  Biso   1.000  H
  C25      1.0000 0.36670  0.67160  0.13180  Biso   1.000  C
  H28      1.0000 0.34940  0.73510  0.10810  Biso   1.000  H
  C26      1.0000 0.29740  0.45620  0.91690  Biso   1.000  C
  H29      1.0000 0.26740  0.47100  0.92960  Biso   1.000  H
  C27      1.0000 0.40670  0.54620  0.22240  Biso   1.000  C
  H30      1.0000 0.42370  0.50320  0.27590  Biso   1.000  H
  C28      1.0000 0.40020  0.52480  0.14040  Biso   1.000  C
  H31      1.0000 0.41120  0.46450  0.12590  Biso   1.000  H
  C29      1.0000 0.30060  0.37260  0.87720  Biso   1.000  C
  H32      1.0000 0.27260  0.31840  0.85670  Biso   1.000  H
  C30      1.0000 0.60070  0.90430  0.15090  Biso   1.000  C
  B2       1.0000 0.36420  0.61730  0.98370  Biso   1.000  B
  Co3      1.0000 0.87708  0.22335  0.31157  Biso   1.000  Co
  O5       1.0000 0.88110  0.35330  0.38880  Biso   1.000  O
  O6       1.0000 0.90240  0.36910  0.28540  Biso   1.000  O
  N17      1.0000 0.28050  0.25530  0.69650  Biso   1.000  N
  N18      1.0000 0.97390  0.19640  0.42470  Biso   1.000  N
  N19      1.0000 0.07490  0.15450  0.49950  Biso   1.000  N
  N20      1.0000 0.14970  0.87810  0.62910  Biso   1.000  N
  N21      1.0000 0.18840  0.19100  0.58010  Biso   1.000  N
  N22      1.0000 0.11480  0.13930  0.28330  Biso   1.000  N
  N23      1.0000 0.12510  0.10540  0.41830  Biso   1.000  N
  N24      1.0000 0.15360  0.01600  0.56440  Biso   1.000  N
  C31      1.0000 0.91780  0.51140  0.38060  Biso   1.000  C
  H33      1.0000 0.93180  0.54160  0.34370  Biso   1.000  H
  H34      1.0000 0.88010  0.54790  0.36530  Biso   1.000  H
  C32      1.0000 0.96940  0.52110  0.48580  Biso   1.000  C
  H35      1.0000 0.97560  0.59160  0.50350  Biso   1.000  H
  H36      1.0000 0.95620  0.48770  0.52260  Biso   1.000  H
  C33      1.0000 0.18370  0.29250  0.56960  Biso   1.000  C
  H37      1.0000 0.14760  0.32870  0.52130  Biso   1.000  H
  C34      1.0000 0.01850  0.16640  0.41510  Biso   1.000  C
  H38      1.0000 0.01100  0.15480  0.35460  Biso   1.000  H
  C35      1.0000 0.06570  0.18200  0.56780  Biso   1.000  C
  H39      1.0000 0.09700  0.18350  0.63550  Biso   1.000  H
  C36      1.0000 0.24810  0.17560  0.65900  Biso   1.000  C
  H40      1.0000 0.26470  0.11220  0.68450  Biso   1.000  H
  C37      1.0000 0.12350  0.96460  0.59300  Biso   1.000  C
  H41      1.0000 0.08740  0.98800  0.58790  Biso   1.000  H
  C38      1.0000 0.00470  0.20630  0.52150  Biso   1.000  C
  H42      1.0000 0.98570  0.22740  0.55170  Biso   1.000  H
  C39      1.0000 0.23950  0.32920  0.64010  Biso   1.000  C
  H43      1.0000 0.24960  0.39720  0.65000  Biso   1.000  H
  C40      1.0000 0.13330  0.17160  0.36820  Biso   1.000  C
  H44      1.0000 0.15060  0.23510  0.39190  Biso   1.000  H
  C41      1.0000 0.20260  0.95620  0.58310  Biso   1.000  C
  H45      1.0000 0.23260  0.97100  0.57040  Biso   1.000  H
  C42      1.0000 0.09330  0.04620  0.27760  Biso   1.000  C
  H46      1.0000 0.07630  0.00320  0.22410  Biso   1.000  H
  C43      1.0000 0.09980  0.02480  0.35960  Biso   1.000  C
  H47      1.0000 0.08880  0.96450  0.37410  Biso   1.000  H
  C44      1.0000 0.19940  0.87260  0.62280  Biso   1.000  C
  H48      1.0000 0.22740  0.81840  0.64330  Biso   1.000  H
  C45      1.0000 0.89930  0.40430  0.34910  Biso   1.000  C
  B3       1.0000 0.13580  0.11730  0.51630  Biso   1.000  B
  Co4      1.0000 0.37708  0.72335  0.31157  Biso   1.000  Co
  O7       1.0000 0.38110  0.85330  0.38880  Biso   1.000  O
  O8       1.0000 0.40240  0.86910  0.28540  Biso   1.000  O
  N25      1.0000 0.78050  0.75530  0.69650  Biso   1.000  N
  N26      1.0000 0.47390  0.69640  0.42470  Biso   1.000  N
  N27      1.0000 0.57490  0.65450  0.49950  Biso   1.000  N
  N28      1.0000 0.64970  0.37810  0.62910  Biso   1.000  N
  N29      1.0000 0.68840  0.69100  0.58010  Biso   1.000  N
  N30      1.0000 0.61480  0.63930  0.28330  Biso   1.000  N
  N31      1.0000 0.62510  0.60540  0.41830  Biso   1.000  N
  N32      1.0000 0.65360  0.51600  0.56440  Biso   1.000  N
  C46      1.0000 0.41780  0.01140  0.38060  Biso   1.000  C
  H49      1.0000 0.43180  0.04160  0.34370  Biso   1.000  H
  H50      1.0000 0.38010  0.04790  0.36530  Biso   1.000  H
  C47      1.0000 0.46940  0.02110  0.48580  Biso   1.000  C
  H51      1.0000 0.47560  0.09160  0.50350  Biso   1.000  H
  H52      1.0000 0.45620  0.98770  0.52260  Biso   1.000  H
  C48      1.0000 0.68370  0.79250  0.56960  Biso   1.000  C
  H53      1.0000 0.64760  0.82870  0.52130  Biso   1.000  H
  C49      1.0000 0.51850  0.66640  0.41510  Biso   1.000  C
  H54      1.0000 0.51100  0.65480  0.35460  Biso   1.000  H
  C50      1.0000 0.56570  0.68200  0.56780  Biso   1.000  C
  H55      1.0000 0.59700  0.68350  0.63550  Biso   1.000  H
  C51      1.0000 0.74810  0.67560  0.65900  Biso   1.000  C
  H56      1.0000 0.76470  0.61220  0.68450  Biso   1.000  H
  C52      1.0000 0.62350  0.46460  0.59300  Biso   1.000  C
  H57      1.0000 0.58740  0.48800  0.58790  Biso   1.000  H
  C53      1.0000 0.50470  0.70630  0.52150  Biso   1.000  C
  H58      1.0000 0.48570  0.72740  0.55170  Biso   1.000  H
  C54      1.0000 0.73950  0.82920  0.64010  Biso   1.000  C
  H59      1.0000 0.74960  0.89720  0.65000  Biso   1.000  H
  C55      1.0000 0.63330  0.67160  0.36820  Biso   1.000  C
  H60      1.0000 0.65060  0.73510  0.39190  Biso   1.000  H
  C56      1.0000 0.70260  0.45620  0.58310  Biso   1.000  C
  H61      1.0000 0.73260  0.47100  0.57040  Biso   1.000  H
  C57      1.0000 0.59330  0.54620  0.27760  Biso   1.000  C
  H62      1.0000 0.57630  0.50320  0.22410  Biso   1.000  H
  C58      1.0000 0.59980  0.52480  0.35960  Biso   1.000  C
  H63      1.0000 0.58880  0.46450  0.37410  Biso   1.000  H
  C59      1.0000 0.69940  0.37260  0.62280  Biso   1.000  C
  H64      1.0000 0.72740  0.31840  0.64330  Biso   1.000  H
  C60      1.0000 0.39930  0.90430  0.34910  Biso   1.000  C
  B4       1.0000 0.63580  0.61730  0.51630  Biso   1.000  B
  Co5      1.0000 0.87708  0.77665  0.81157  Biso   1.000  Co
  O9       1.0000 0.88110  0.64670  0.88880  Biso   1.000  O
  O10      1.0000 0.90240  0.63090  0.78540  Biso   1.000  O
  N33      1.0000 0.28050  0.74470  0.19650  Biso   1.000  N
  N34      1.0000 0.97390  0.80360  0.92470  Biso   1.000  N
  N35      1.0000 0.07490  0.84550  0.99950  Biso   1.000  N
  N36      1.0000 0.14970  0.12190  0.12910  Biso   1.000  N
  N37      1.0000 0.18840  0.80900  0.08010  Biso   1.000  N
  N38      1.0000 0.11480  0.86070  0.78330  Biso   1.000  N
  N39      1.0000 0.12510  0.89460  0.91830  Biso   1.000  N
  N40      1.0000 0.15360  0.98400  0.06440  Biso   1.000  N
  C61      1.0000 0.91780  0.48860  0.88060  Biso   1.000  C
  H65      1.0000 0.93180  0.45840  0.84370  Biso   1.000  H
  H66      1.0000 0.88010  0.45210  0.86530  Biso   1.000  H
  C62      1.0000 0.96940  0.47890  0.98580  Biso   1.000  C
  H67      1.0000 0.97560  0.40840  0.00350  Biso   1.000  H
  H68      1.0000 0.95620  0.51230  0.02260  Biso   1.000  H
  C63      1.0000 0.18370  0.70750  0.06960  Biso   1.000  C
  H69      1.0000 0.14760  0.67130  0.02130  Biso   1.000  H
  C64      1.0000 0.01850  0.83360  0.91510  Biso   1.000  C
  H70      1.0000 0.01100  0.84520  0.85460  Biso   1.000  H
  C65      1.0000 0.06570  0.81800  0.06780  Biso   1.000  C
  H71      1.0000 0.09700  0.81650  0.13550  Biso   1.000  H
  C66      1.0000 0.24810  0.82440  0.15900  Biso   1.000  C
  H72      1.0000 0.26470  0.88780  0.18450  Biso   1.000  H
  C67      1.0000 0.12350  0.03540  0.09300  Biso   1.000  C
  H73      1.0000 0.08740  0.01200  0.08790  Biso   1.000  H
  C68      1.0000 0.00470  0.79370  0.02150  Biso   1.000  C
  H74      1.0000 0.98570  0.77260  0.05170  Biso   1.000  H
  C69      1.0000 0.23950  0.67080  0.14010  Biso   1.000  C
  H75      1.0000 0.24960  0.60280  0.15000  Biso   1.000  H
  C70      1.0000 0.13330  0.82840  0.86820  Biso   1.000  C
  H76      1.0000 0.15060  0.76490  0.89190  Biso   1.000  H
  C71      1.0000 0.20260  0.04380  0.08310  Biso   1.000  C
  H77      1.0000 0.23260  0.02900  0.07040  Biso   1.000  H
  C72      1.0000 0.09330  0.95380  0.77760  Biso   1.000  C
  H78      1.0000 0.07630  0.99680  0.72410  Biso   1.000  H
  C73      1.0000 0.09980  0.97520  0.85960  Biso   1.000  C
  H79      1.0000 0.08880  0.03550  0.87410  Biso   1.000  H
  C74      1.0000 0.19940  0.12740  0.12280  Biso   1.000  C
  H80      1.0000 0.22740  0.18160  0.14330  Biso   1.000  H
  C75      1.0000 0.89930  0.59570  0.84910  Biso   1.000  C
  B5       1.0000 0.13580  0.88270  0.01630  Biso   1.000  B
  Co6      1.0000 0.37708  0.27665  0.81157  Biso   1.000  Co
  O11      1.0000 0.38110  0.14670  0.88880  Biso   1.000  O
  O12      1.0000 0.40240  0.13090  0.78540  Biso   1.000  O
  N41      1.0000 0.78050  0.24470  0.19650  Biso   1.000  N
  N42      1.0000 0.47390  0.30360  0.92470  Biso   1.000  N
  N43      1.0000 0.57490  0.34550  0.99950  Biso   1.000  N
  N44      1.0000 0.64970  0.62190  0.12910  Biso   1.000  N
  N45      1.0000 0.68840  0.30900  0.08010  Biso   1.000  N
  N46      1.0000 0.61480  0.36070  0.78330  Biso   1.000  N
  N47      1.0000 0.62510  0.39460  0.91830  Biso   1.000  N
  N48      1.0000 0.65360  0.48400  0.06440  Biso   1.000  N
  C76      1.0000 0.41780  0.98860  0.88060  Biso   1.000  C
  H81      1.0000 0.43180  0.95840  0.84370  Biso   1.000  H
  H82      1.0000 0.38010  0.95210  0.86530  Biso   1.000  H
  C77      1.0000 0.46940  0.97890  0.98580  Biso   1.000  C
  H83      1.0000 0.47560  0.90840  0.00350  Biso   1.000  H
  H84      1.0000 0.45620  0.01230  0.02260  Biso   1.000  H
  C78      1.0000 0.68370  0.20750  0.06960  Biso   1.000  C
  H85      1.0000 0.64760  0.17130  0.02130  Biso   1.000  H
  C79      1.0000 0.51850  0.33360  0.91510  Biso   1.000  C
  H86      1.0000 0.51100  0.34520  0.85460  Biso   1.000  H
  C80      1.0000 0.56570  0.31800  0.06780  Biso   1.000  C
  H87      1.0000 0.59700  0.31650  0.13550  Biso   1.000  H
  C81      1.0000 0.74810  0.32440  0.15900  Biso   1.000  C
  H88      1.0000 0.76470  0.38780  0.18450  Biso   1.000  H
  C82      1.0000 0.62350  0.53540  0.09300  Biso   1.000  C
  H89      1.0000 0.58740  0.51200  0.08790  Biso   1.000  H
  C83      1.0000 0.50470  0.29370  0.02150  Biso   1.000  C
  H90      1.0000 0.48570  0.27260  0.05170  Biso   1.000  H
  C84      1.0000 0.73950  0.17080  0.14010  Biso   1.000  C
  H91      1.0000 0.74960  0.10280  0.15000  Biso   1.000  H
  C85      1.0000 0.63330  0.32840  0.86820  Biso   1.000  C
  H92      1.0000 0.65060  0.26490  0.89190  Biso   1.000  H
  C86      1.0000 0.70260  0.54380  0.08310  Biso   1.000  C
  H93      1.0000 0.73260  0.52900  0.07040  Biso   1.000  H
  C87      1.0000 0.59330  0.45380  0.77760  Biso   1.000  C
  H94      1.0000 0.57630  0.49680  0.72410  Biso   1.000  H
  C88      1.0000 0.59980  0.47520  0.85960  Biso   1.000  C
  H95      1.0000 0.58880  0.53550  0.87410  Biso   1.000  H
  C89      1.0000 0.69940  0.62740  0.12280  Biso   1.000  C
  H96      1.0000 0.72740  0.68160  0.14330  Biso   1.000  H
  C90      1.0000 0.39930  0.09570  0.84910  Biso   1.000  C
  B6       1.0000 0.63580  0.38270  0.01630  Biso   1.000  B
  Co7      1.0000 0.12292  0.77665  0.68843  Biso   1.000  Co
  O13      1.0000 0.11890  0.64670  0.61120  Biso   1.000  O
  O14      1.0000 0.09760  0.63090  0.71460  Biso   1.000  O
  N49      1.0000 0.71950  0.74470  0.30350  Biso   1.000  N
  N50      1.0000 0.02610  0.80360  0.57530  Biso   1.000  N
  N51      1.0000 0.92510  0.84550  0.50050  Biso   1.000  N
  N52      1.0000 0.85030  0.12190  0.37090  Biso   1.000  N
  N53      1.0000 0.81160  0.80900  0.41990  Biso   1.000  N
  N54      1.0000 0.88520  0.86070  0.71670  Biso   1.000  N
  N55      1.0000 0.87490  0.89460  0.58170  Biso   1.000  N
  N56      1.0000 0.84640  0.98400  0.43560  Biso   1.000  N
  C91      1.0000 0.08220  0.48860  0.61940  Biso   1.000  C
  H97      1.0000 0.06820  0.45840  0.65630  Biso   1.000  H
  H98      1.0000 0.11990  0.45210  0.63470  Biso   1.000  H
  C92      1.0000 0.03060  0.47890  0.51420  Biso   1.000  C
  H99      1.0000 0.02440  0.40840  0.49650  Biso   1.000  H
  H100     1.0000 0.04380  0.51230  0.47740  Biso   1.000  H
  C93      1.0000 0.81630  0.70750  0.43040  Biso   1.000  C
  H101     1.0000 0.85240  0.67130  0.47870  Biso   1.000  H
  C94      1.0000 0.98150  0.83360  0.58490  Biso   1.000  C
  H102     1.0000 0.98900  0.84520  0.64540  Biso   1.000  H
  C95      1.0000 0.93430  0.81800  0.43220  Biso   1.000  C
  H103     1.0000 0.90300  0.81650  0.36450  Biso   1.000  H
  C96      1.0000 0.75190  0.82440  0.34100  Biso   1.000  C
  H104     1.0000 0.73530  0.88780  0.31550  Biso   1.000  H
  C97      1.0000 0.87650  0.03540  0.40700  Biso   1.000  C
  H105     1.0000 0.91260  0.01200  0.41210  Biso   1.000  H
  C98      1.0000 0.99530  0.79370  0.47850  Biso   1.000  C
  H106     1.0000 0.01430  0.77260  0.44830  Biso   1.000  H
  C99      1.0000 0.76050  0.67080  0.35990  Biso   1.000  C
  H107     1.0000 0.75040  0.60280  0.35000  Biso   1.000  H
  C100     1.0000 0.86670  0.82840  0.63180  Biso   1.000  C
  H108     1.0000 0.84940  0.76490  0.60810  Biso   1.000  H
  C101     1.0000 0.79740  0.04380  0.41690  Biso   1.000  C
  H109     1.0000 0.76740  0.02900  0.42960  Biso   1.000  H
  C102     1.0000 0.90670  0.95380  0.72240  Biso   1.000  C
  H110     1.0000 0.92370  0.99680  0.77590  Biso   1.000  H
  C103     1.0000 0.90020  0.97520  0.64040  Biso   1.000  C
  H111     1.0000 0.91120  0.03550  0.62590  Biso   1.000  H
  C104     1.0000 0.80060  0.12740  0.37720  Biso   1.000  C
  H112     1.0000 0.77260  0.18160  0.35670  Biso   1.000  H
  C105     1.0000 0.10070  0.59570  0.65090  Biso   1.000  C
  B7       1.0000 0.86420  0.88270  0.48370  Biso   1.000  B
  Co8      1.0000 0.62292  0.27665  0.68843  Biso   1.000  Co
  O15      1.0000 0.61890  0.14670  0.61120  Biso   1.000  O
  O16      1.0000 0.59760  0.13090  0.71460  Biso   1.000  O
  N57      1.0000 0.21950  0.24470  0.30350  Biso   1.000  N
  N58      1.0000 0.52610  0.30360  0.57530  Biso   1.000  N
  N59      1.0000 0.42510  0.34550  0.50050  Biso   1.000  N
  N60      1.0000 0.35030  0.62190  0.37090  Biso   1.000  N
  N61      1.0000 0.31160  0.30900  0.41990  Biso   1.000  N
  N62      1.0000 0.38520  0.36070  0.71670  Biso   1.000  N
  N63      1.0000 0.37490  0.39460  0.58170  Biso   1.000  N
  N64      1.0000 0.34640  0.48400  0.43560  Biso   1.000  N
  C106     1.0000 0.58220  0.98860  0.61940  Biso   1.000  C
  H113     1.0000 0.56820  0.95840  0.65630  Biso   1.000  H
  H114     1.0000 0.61990  0.95210  0.63470  Biso   1.000  H
  C107     1.0000 0.53060  0.97890  0.51420  Biso   1.000  C
  H115     1.0000 0.52440  0.90840  0.49650  Biso   1.000  H
  H116     1.0000 0.54380  0.01230  0.47740  Biso   1.000  H
  C108     1.0000 0.31630  0.20750  0.43040  Biso   1.000  C
  H117     1.0000 0.35240  0.17130  0.47870  Biso   1.000  H
  C109     1.0000 0.48150  0.33360  0.58490  Biso   1.000  C
  H118     1.0000 0.48900  0.34520  0.64540  Biso   1.000  H
  C110     1.0000 0.43430  0.31800  0.43220  Biso   1.000  C
  H119     1.0000 0.40300  0.31650  0.36450  Biso   1.000  H
  C111     1.0000 0.25190  0.32440  0.34100  Biso   1.000  C
  H120     1.0000 0.23530  0.38780  0.31550  Biso   1.000  H
  C112     1.0000 0.37650  0.53540  0.40700  Biso   1.000  C
  H121     1.0000 0.41260  0.51200  0.41210  Biso   1.000  H
  C113     1.0000 0.49530  0.29370  0.47850  Biso   1.000  C
  H122     1.0000 0.51430  0.27260  0.44830  Biso   1.000  H
  C114     1.0000 0.26050  0.17080  0.35990  Biso   1.000  C
  H123     1.0000 0.25040  0.10280  0.35000  Biso   1.000  H
  C115     1.0000 0.36670  0.32840  0.63180  Biso   1.000  C
  H124     1.0000 0.34940  0.26490  0.60810  Biso   1.000  H
  C116     1.0000 0.29740  0.54380  0.41690  Biso   1.000  C
  H125     1.0000 0.26740  0.52900  0.42960  Biso   1.000  H
  C117     1.0000 0.40670  0.45380  0.72240  Biso   1.000  C
  H126     1.0000 0.42370  0.49680  0.77590  Biso   1.000  H
  C118     1.0000 0.40020  0.47520  0.64040  Biso   1.000  C
  H127     1.0000 0.41120  0.53550  0.62590  Biso   1.000  H
  C119     1.0000 0.30060  0.62740  0.37720  Biso   1.000  C
  H128     1.0000 0.27260  0.68160  0.35670  Biso   1.000  H
  C120     1.0000 0.60070  0.09570  0.65090  Biso   1.000  C
  B8       1.0000 0.36420  0.38270  0.48370  Biso   1.000  B
