data_NAJGAH_clean
_audit_creation_date              2014-07-02
_audit_creation_method            'Materials Studio'
_symmetry_space_group_name_H-M    'P1'
_symmetry_Int_Tables_number       1
_symmetry_cell_setting            triclinic
loop_
_symmetry_equiv_pos_as_xyz
  x,y,z
_cell_length_a                    8.6630
_cell_length_b                    9.0690
_cell_length_c                    11.8750
_cell_angle_alpha                 110.0500
_cell_angle_beta                  90.0000
_cell_angle_gamma                 90.0000
loop_
_atom_site_label
_atom_site_type_symbol
_atom_site_fract_x
_atom_site_fract_y
_atom_site_fract_z
_atom_site_U_iso_or_equiv
_atom_site_adp_type
_atom_site_occupancy
Nd1    Nd    0.47062   0.02571   0.98776   0.01267  Uiso   1.00
Nd2    Nd    0.97062   0.97429   0.01224   0.01267  Uiso   1.00
H1     H     0.09050   0.83240   0.66160   0.01267  Uiso   1.00
H2     H     0.12220   0.68730   0.70130   0.01267  Uiso   1.00
H3     H     0.31390   0.77120   0.53810   0.01267  Uiso   1.00
H4     H     0.34590   0.62630   0.57790   0.01267  Uiso   1.00
H5     H     0.09640   0.65740   0.44010   0.01267  Uiso   1.00
H6     H     0.11300   0.51750   0.48810   0.01267  Uiso   1.00
H7     H     0.31200   0.57270   0.31820   0.01267  Uiso   1.00
H8     H     0.34210   0.43980   0.37170   0.01267  Uiso   1.00
H9     H     0.10150   0.45030   0.22010   0.01267  Uiso   1.00
H10    H     0.10370   0.32910   0.28730   0.01267  Uiso   1.00
H11    H     0.50990   0.18480   0.75900   0.01267  Uiso   1.00
H12    H     0.37360   0.90980   0.36270   0.01267  Uiso   1.00
H13    H     0.19730   0.86670   0.35460   0.01267  Uiso   1.00
H14    H     0.30870   0.18320   0.41320   0.01267  Uiso   1.00
H15    H     0.13240   0.14050   0.40420   0.01267  Uiso   1.00
H16    H     0.33130   0.08840   0.57590   0.01267  Uiso   1.00
H17    H     0.15310   0.05660   0.56910   0.01267  Uiso   1.00
H18    H     0.28660   0.35980   0.63170   0.01267  Uiso   1.00
H19    H     0.10850   0.33100   0.61970   0.01267  Uiso   1.00
H20    H     0.10830   0.25490   0.78470   0.01267  Uiso   1.00
H21    H     0.17550   0.42470   0.81670   0.01267  Uiso   1.00
H22    H     0.59050   0.16760   0.33840   0.01267  Uiso   1.00
H23    H     0.62220   0.31270   0.29870   0.01267  Uiso   1.00
H24    H     0.81390   0.22880   0.46190   0.01267  Uiso   1.00
H25    H     0.84590   0.37370   0.42210   0.01267  Uiso   1.00
H26    H     0.59640   0.34260   0.55990   0.01267  Uiso   1.00
H27    H     0.61300   0.48250   0.51190   0.01267  Uiso   1.00
H28    H     0.81200   0.42730   0.68180   0.01267  Uiso   1.00
H29    H     0.84210   0.56020   0.62830   0.01267  Uiso   1.00
H30    H     0.60150   0.54970   0.77990   0.01267  Uiso   1.00
H31    H     0.60370   0.67090   0.71270   0.01267  Uiso   1.00
H32    H     0.00990   0.81520   0.24100   0.01267  Uiso   1.00
H33    H     0.87360   0.09020   0.63730   0.01267  Uiso   1.00
H34    H     0.69730   0.13330   0.64540   0.01267  Uiso   1.00
H35    H     0.80870   0.81680   0.58680   0.01267  Uiso   1.00
H36    H     0.63240   0.85950   0.59580   0.01267  Uiso   1.00
H37    H     0.83130   0.91160   0.42410   0.01267  Uiso   1.00
H38    H     0.65310   0.94340   0.43090   0.01267  Uiso   1.00
H39    H     0.78660   0.64020   0.36830   0.01267  Uiso   1.00
H40    H     0.60850   0.66900   0.38030   0.01267  Uiso   1.00
H41    H     0.60830   0.74510   0.21530   0.01267  Uiso   1.00
H42    H     0.67550   0.57530   0.18330   0.01267  Uiso   1.00
C1     C     0.26680   0.86810   0.77900   0.01267  Uiso   1.00
C2     C     0.17140   0.76850   0.67780   0.01267  Uiso   1.00
C3     C     0.26490   0.69010   0.56160   0.01267  Uiso   1.00
C4     C     0.17050   0.59110   0.46140   0.01267  Uiso   1.00
C5     C     0.26180   0.49880   0.34910   0.01267  Uiso   1.00
C6     C     0.16880   0.38950   0.25280   0.01267  Uiso   1.00
C7     C     0.26210   0.27440   0.14890   0.01267  Uiso   1.00
C8     C     0.27100   0.92780   0.21500   0.01267  Uiso   1.00
C9     C     0.27200   0.93900   0.34220   0.01267  Uiso   1.00
C10    C     0.23300   0.11100   0.42550   0.01267  Uiso   1.00
C11    C     0.23300   0.12500   0.55670   0.01267  Uiso   1.00
C12    C     0.20400   0.29400   0.64280   0.01267  Uiso   1.00
C13    C     0.19500   0.31500   0.77200   0.01267  Uiso   1.00
C14    C     0.34130   0.26410   0.82170   0.01267  Uiso   1.00
C15    C     0.76680   0.13190   0.22100   0.01267  Uiso   1.00
C16    C     0.67140   0.23150   0.32220   0.01267  Uiso   1.00
C17    C     0.76490   0.30990   0.43840   0.01267  Uiso   1.00
C18    C     0.67050   0.40890   0.53860   0.01267  Uiso   1.00
C19    C     0.76180   0.50120   0.65090   0.01267  Uiso   1.00
C20    C     0.66880   0.61050   0.74720   0.01267  Uiso   1.00
C21    C     0.76210   0.72560   0.85110   0.01267  Uiso   1.00
C22    C     0.77100   0.07220   0.78500   0.01267  Uiso   1.00
C23    C     0.77200   0.06100   0.65780   0.01267  Uiso   1.00
C24    C     0.73300   0.88900   0.57450   0.01267  Uiso   1.00
C25    C     0.73300   0.87500   0.44330   0.01267  Uiso   1.00
C26    C     0.70400   0.70600   0.35720   0.01267  Uiso   1.00
C27    C     0.69500   0.68500   0.22800   0.01267  Uiso   1.00
C28    C     0.84130   0.73590   0.17830   0.01267  Uiso   1.00
O1     O     0.19040   0.92600   0.88680   0.01267  Uiso   1.00
O2     O     0.39770   0.89890   0.77340   0.01267  Uiso   1.00
O3     O     0.19170   0.14750   0.08520   0.01267  Uiso   1.00
O4     O     0.39910   0.29730   0.13230   0.01267  Uiso   1.00
O5     O     0.39030   0.97880   0.17610   0.01267  Uiso   1.00
O6     O     0.15810   0.87100   0.15120   0.01267  Uiso   1.00
O7     O     0.46200   0.26660   0.76930   0.01267  Uiso   1.00
O8     O     0.33700   0.23370   0.91940   0.01267  Uiso   1.00
O9     O     0.48900   0.63400   0.59780   0.01267  Uiso   1.00
O10    O     0.69040   0.07400   0.11320   0.01267  Uiso   1.00
O11    O     0.89770   0.10110   0.22660   0.01267  Uiso   1.00
O12    O     0.69170   0.85250   0.91480   0.01267  Uiso   1.00
O13    O     0.89910   0.70270   0.86770   0.01267  Uiso   1.00
O14    O     0.89030   0.02120   0.82390   0.01267  Uiso   1.00
O15    O     0.65810   0.12900   0.84880   0.01267  Uiso   1.00
O16    O     0.96200   0.73340   0.23070   0.01267  Uiso   1.00
O17    O     0.83700   0.76630   0.08060   0.01267  Uiso   1.00
O18    O     0.98900   0.36600   0.40220   0.01267  Uiso   1.00
