data_image0
_cell_length_a       8.8353
_cell_length_b       14.2682
_cell_length_c       22.808
_cell_angle_alpha    92.475
_cell_angle_beta     91.101
_cell_angle_gamma    105.445

_symmetry_space_group_name_H-M    "P 1"
_symmetry_int_tables_number       1

loop_
  _symmetry_equiv_pos_as_xyz
  'x, y, z'

loop_
  _atom_site_label
  _atom_site_occupancy
  _atom_site_fract_x
  _atom_site_fract_y
  _atom_site_fract_z
  _atom_site_thermal_displace_type
  _atom_site_B_iso_or_equiv
  _atom_site_type_symbol
  Mn1      1.0000 0.00833  0.54815  0.07958  Biso   1.000  Mn
  Mn2      1.0000 0.50575  0.95296  0.42616  Biso   1.000  Mn
  Mn3      1.0000 0.25660  0.82634  0.30181  Biso   1.000  Mn
  C1       1.0000 0.69720  0.82140  0.47710  Biso   1.000  C
  C2       1.0000 0.71210  0.71980  0.47833  Biso   1.000  C
  C3       1.0000 0.61570  0.64650  0.44123  Biso   1.000  C
  H1       1.0000 0.54050  0.66110  0.41680  Biso   1.000  H
  C4       1.0000 0.63080  0.55280  0.44054  Biso   1.000  C
  H2       1.0000 0.56570  0.50450  0.41580  Biso   1.000  H
  C5       1.0000 0.74340  0.53010  0.47672  Biso   1.000  C
  C6       1.0000 0.83730  0.60210  0.51422  Biso   1.000  C
  H3       1.0000 0.91100  0.58710  0.53920  Biso   1.000  H
  C7       1.0000 0.82230  0.69680  0.51475  Biso   1.000  C
  H4       1.0000 0.88680  0.74480  0.53980  Biso   1.000  H
  C8       1.0000 0.75710  0.42800  0.47723  Biso   1.000  C
  C9       1.0000 0.76700  0.37150  0.42571  Biso   1.000  C
  C10      1.0000 0.76640  0.27420  0.43073  Biso   1.000  C
  H5       1.0000 0.77000  0.23620  0.39690  Biso   1.000  H
  C11      1.0000 0.76030  0.23240  0.48515  Biso   1.000  C
  C12      1.0000 0.75670  0.28980  0.53588  Biso   1.000  C
  C13      1.0000 0.75630  0.38600  0.53105  Biso   1.000  C
  H6       1.0000 0.75540  0.42400  0.56510  Biso   1.000  H
  C14      1.0000 0.75120  0.24890  0.59546  Biso   1.000  C
  C15      1.0000 0.76080  0.12750  0.48500  Biso   1.000  C
  C16      1.0000 0.90020  0.50000  0.35771  Biso   1.000  C
  H7       1.0000 0.95160  0.53820  0.38990  Biso   1.000  H
  C17      1.0000 0.78920  0.41170  0.36615  Biso   1.000  C
  C18      1.0000 0.71190  0.35840  0.31754  Biso   1.000  C
  H8       1.0000 0.63550  0.30060  0.32260  Biso   1.000  H
  C19      1.0000 0.74580  0.38930  0.26095  Biso   1.000  C
  H9       1.0000 0.69250  0.35200  0.22870  Biso   1.000  H
  C20      1.0000 0.85880  0.47570  0.25269  Biso   1.000  C
  C21      1.0000 0.93380  0.53050  0.30148  Biso   1.000  C
  H10      1.0000 0.00840  0.58920  0.29640  Biso   1.000  H
  C22      1.0000 0.90340  0.50660  0.19132  Biso   1.000  C
  C23      1.0000 0.74320  0.37520  0.02284  Biso   1.000  C
  C24      1.0000 0.74550  0.26980  0.02497  Biso   1.000  C
  C25      1.0000 0.74820  0.21180  0.97467  Biso   1.000  C
  C26      1.0000 0.74950  0.11520  0.98069  Biso   1.000  C
  H11      1.0000 0.75060  0.07640  0.94700  Biso   1.000  H
  C27      1.0000 0.74930  0.07470  0.03466  Biso   1.000  C
  C28      1.0000 0.73910  0.13170  0.08553  Biso   1.000  C
  C29      1.0000 0.73960  0.22890  0.07957  Biso   1.000  C
  H12      1.0000 0.73590  0.26750  0.11310  Biso   1.000  H
  C30      1.0000 0.74480  0.24790  0.91346  Biso   1.000  C
  C31      1.0000 0.71510  0.08990  0.14516  Biso   1.000  C
  C32      1.0000 0.79660  0.13900  0.19442  Biso   1.000  C
  H13      1.0000 0.87170  0.19780  0.19070  Biso   1.000  H
  C33      1.0000 0.76740  0.10110  0.24965  Biso   1.000  C
  H14      1.0000 0.82160  0.13530  0.28270  Biso   1.000  H
  C34      1.0000 0.65650  0.01180  0.25529  Biso   1.000  C
  C35      1.0000 0.57790  0.96200  0.20590  Biso   1.000  C
  H15      1.0000 0.50550  0.90190  0.20930  Biso   1.000  H
  C36      1.0000 0.60570  0.00040  0.15104  Biso   1.000  C
  H16      1.0000 0.55100  0.96630  0.11800  Biso   1.000  H
  C37      1.0000 0.76000  0.97190  0.03600  Biso   1.000  C
  C38      1.0000 0.87270  0.94760  0.07145  Biso   1.000  C
  H17      1.0000 0.93990  0.99550  0.09570  Biso   1.000  H
  C39      1.0000 0.88590  0.85290  0.07103  Biso   1.000  C
  H18      1.0000 0.96140  0.83780  0.09510  Biso   1.000  H
  C40      1.0000 0.78640  0.78010  0.03470  Biso   1.000  C
  C41      1.0000 0.67480  0.80470  0.99901  Biso   1.000  C
  H19      1.0000 0.60790  0.75710  0.97440  Biso   1.000  H
  C42      1.0000 0.66260  0.89940  0.99987  Biso   1.000  C
  H20      1.0000 0.58750  0.91460  0.97570  Biso   1.000  H
  C43      1.0000 0.80040  0.67790  0.03322  Biso   1.000  C
  C44      1.0000 0.61540  0.97590  0.31516  Biso   1.000  C
  O1       1.0000 0.59730  0.83653  0.44125  Biso   1.000  O
  O2       1.0000 0.78210  0.88580  0.51261  Biso   1.000  O
  O3       1.0000 0.75000  0.30171  0.64014  Biso   1.000  O
  O4       1.0000 0.74430  0.15869  0.59958  Biso   1.000  O
  O5       1.0000 0.62760  0.06523  0.48983  Biso   1.000  O
  O6       1.0000 0.88690  0.10772  0.47782  Biso   1.000  O
  O7       1.0000 0.02470  0.57510  0.18502  Biso   1.000  O
  O8       1.0000 0.82140  0.46290  0.14815  Biso   1.000  O
  O9       1.0000 0.61480  0.39331  0.03158  Biso   1.000  O
  O10      1.0000 0.87150  0.43776  0.01425  Biso   1.000  O
  O11      1.0000 0.75870  0.33701  0.90786  Biso   1.000  O
  O12      1.0000 0.72730  0.18537  0.87171  Biso   1.000  O
  O13      1.0000 0.71730  0.61720  0.99543  Biso   1.000  O
  O14      1.0000 0.89780  0.65980  0.06879  Biso   1.000  O
  O15      1.0000 0.49800  0.90280  0.32065  Biso   1.000  O
  O16      1.0000 0.69370  0.01790  0.35958  Biso   1.000  O
  Mn4      1.0000 0.99167  0.45185  0.92042  Biso   1.000  Mn
  Mn5      1.0000 0.49425  0.04704  0.57384  Biso   1.000  Mn
  Mn6      1.0000 0.74340  0.17366  0.69819  Biso   1.000  Mn
  C45      1.0000 0.30280  0.17860  0.52290  Biso   1.000  C
  C46      1.0000 0.28790  0.28020  0.52167  Biso   1.000  C
  C47      1.0000 0.38430  0.35350  0.55877  Biso   1.000  C
  H21      1.0000 0.45950  0.33890  0.58320  Biso   1.000  H
  C48      1.0000 0.36920  0.44720  0.55946  Biso   1.000  C
  H22      1.0000 0.43430  0.49550  0.58420  Biso   1.000  H
  C49      1.0000 0.25660  0.46990  0.52328  Biso   1.000  C
  C50      1.0000 0.16270  0.39790  0.48578  Biso   1.000  C
  H23      1.0000 0.08900  0.41290  0.46080  Biso   1.000  H
  C51      1.0000 0.17770  0.30320  0.48525  Biso   1.000  C
  H24      1.0000 0.11320  0.25520  0.46020  Biso   1.000  H
  C52      1.0000 0.24290  0.57200  0.52277  Biso   1.000  C
  C53      1.0000 0.23300  0.62850  0.57429  Biso   1.000  C
  C54      1.0000 0.23360  0.72580  0.56927  Biso   1.000  C
  H25      1.0000 0.23000  0.76380  0.60310  Biso   1.000  H
  C55      1.0000 0.23970  0.76760  0.51485  Biso   1.000  C
  C56      1.0000 0.24330  0.71020  0.46412  Biso   1.000  C
  C57      1.0000 0.24370  0.61400  0.46895  Biso   1.000  C
  H26      1.0000 0.24460  0.57600  0.43490  Biso   1.000  H
  C58      1.0000 0.24880  0.75110  0.40454  Biso   1.000  C
  C59      1.0000 0.23920  0.87250  0.51500  Biso   1.000  C
  C60      1.0000 0.09980  0.50000  0.64229  Biso   1.000  C
  H27      1.0000 0.04840  0.46180  0.61010  Biso   1.000  H
  C61      1.0000 0.21080  0.58830  0.63385  Biso   1.000  C
  C62      1.0000 0.28810  0.64160  0.68246  Biso   1.000  C
  H28      1.0000 0.36450  0.69940  0.67740  Biso   1.000  H
  C63      1.0000 0.25420  0.61070  0.73905  Biso   1.000  C
  H29      1.0000 0.30750  0.64800  0.77130  Biso   1.000  H
  C64      1.0000 0.14120  0.52430  0.74731  Biso   1.000  C
  C65      1.0000 0.06620  0.46950  0.69852  Biso   1.000  C
  H30      1.0000 0.99160  0.41080  0.70360  Biso   1.000  H
  C66      1.0000 0.09660  0.49340  0.80868  Biso   1.000  C
  C67      1.0000 0.25680  0.62480  0.97716  Biso   1.000  C
  C68      1.0000 0.25450  0.73020  0.97503  Biso   1.000  C
  C69      1.0000 0.25180  0.78820  0.02533  Biso   1.000  C
  C70      1.0000 0.25050  0.88480  0.01931  Biso   1.000  C
  H31      1.0000 0.24940  0.92360  0.05300  Biso   1.000  H
  C71      1.0000 0.25070  0.92530  0.96534  Biso   1.000  C
  C72      1.0000 0.26090  0.86830  0.91447  Biso   1.000  C
  C73      1.0000 0.26040  0.77110  0.92043  Biso   1.000  C
  H32      1.0000 0.26410  0.73250  0.88690  Biso   1.000  H
  C74      1.0000 0.25520  0.75210  0.08654  Biso   1.000  C
  C75      1.0000 0.28490  0.91010  0.85484  Biso   1.000  C
  C76      1.0000 0.20340  0.86100  0.80558  Biso   1.000  C
  H33      1.0000 0.12830  0.80220  0.80930  Biso   1.000  H
  C77      1.0000 0.23260  0.89890  0.75035  Biso   1.000  C
  H34      1.0000 0.17840  0.86470  0.71730  Biso   1.000  H
  C78      1.0000 0.34350  0.98820  0.74471  Biso   1.000  C
  C79      1.0000 0.42210  0.03800  0.79410  Biso   1.000  C
  H35      1.0000 0.49450  0.09810  0.79070  Biso   1.000  H
  C80      1.0000 0.39430  0.99960  0.84896  Biso   1.000  C
  H36      1.0000 0.44900  0.03370  0.88200  Biso   1.000  H
  C81      1.0000 0.24000  0.02810  0.96400  Biso   1.000  C
  C82      1.0000 0.12730  0.05240  0.92855  Biso   1.000  C
  H37      1.0000 0.06010  0.00450  0.90430  Biso   1.000  H
  C83      1.0000 0.11410  0.14710  0.92897  Biso   1.000  C
  H38      1.0000 0.03860  0.16220  0.90490  Biso   1.000  H
  C84      1.0000 0.21360  0.21990  0.96530  Biso   1.000  C
  C85      1.0000 0.32520  0.19530  0.00099  Biso   1.000  C
  H39      1.0000 0.39210  0.24290  0.02560  Biso   1.000  H
  C86      1.0000 0.33740  0.10060  0.00013  Biso   1.000  C
  H40      1.0000 0.41250  0.08540  0.02430  Biso   1.000  H
  C87      1.0000 0.19960  0.32210  0.96678  Biso   1.000  C
  C88      1.0000 0.38460  0.02410  0.68484  Biso   1.000  C
  O17      1.0000 0.40270  0.16347  0.55875  Biso   1.000  O
  O18      1.0000 0.21790  0.11420  0.48739  Biso   1.000  O
  O19      1.0000 0.25000  0.69829  0.35986  Biso   1.000  O
  O20      1.0000 0.25570  0.84131  0.40042  Biso   1.000  O
  O21      1.0000 0.37240  0.93477  0.51017  Biso   1.000  O
  O22      1.0000 0.11310  0.89228  0.52218  Biso   1.000  O
  O23      1.0000 0.97530  0.42490  0.81498  Biso   1.000  O
  O24      1.0000 0.17860  0.53710  0.85185  Biso   1.000  O
  O25      1.0000 0.38520  0.60669  0.96842  Biso   1.000  O
  O26      1.0000 0.12850  0.56224  0.98575  Biso   1.000  O
  O27      1.0000 0.24130  0.66299  0.09214  Biso   1.000  O
  O28      1.0000 0.27270  0.81463  0.12829  Biso   1.000  O
  O29      1.0000 0.28270  0.38280  0.00457  Biso   1.000  O
  O30      1.0000 0.10220  0.34020  0.93121  Biso   1.000  O
  O31      1.0000 0.50200  0.09720  0.67935  Biso   1.000  O
  O32      1.0000 0.30630  0.98210  0.64042  Biso   1.000  O
  Mn7      1.0000 0.50000  0.50000  0.00000  Biso   1.000  Mn
  Mn8      1.0000 0.00000  0.00000  0.50000  Biso   1.000  Mn
