data_image0
_cell_length_a       29.2063
_cell_length_b       13.6607
_cell_length_c       13.9294
_cell_angle_alpha    90
_cell_angle_beta     98.291
_cell_angle_gamma    90

_symmetry_space_group_name_H-M    "P 1"
_symmetry_int_tables_number       1

loop_
  _symmetry_equiv_pos_as_xyz
  'x, y, z'

loop_
  _atom_site_label
  _atom_site_occupancy
  _atom_site_fract_x
  _atom_site_fract_y
  _atom_site_fract_z
  _atom_site_thermal_displace_type
  _atom_site_B_iso_or_equiv
  _atom_site_type_symbol
  Eu1      1.0000 0.31733  0.29166  0.53680  Biso   1.000  Eu
  C1       1.0000 0.70769  0.10470  0.23810  Biso   1.000  C
  C2       1.0000 0.73551  0.03840  0.29280  Biso   1.000  C
  H1       1.0000 0.76660  0.03190  0.28590  Biso   1.000  H
  C3       1.0000 0.71631  0.98210  0.35760  Biso   1.000  C
  C4       1.0000 0.67007  0.99200  0.36940  Biso   1.000  C
  H2       1.0000 0.65790  0.95110  0.41280  Biso   1.000  H
  C5       1.0000 0.64184  0.06040  0.31870  Biso   1.000  C
  C6       1.0000 0.66148  0.11520  0.25190  Biso   1.000  C
  H3       1.0000 0.64320  0.16090  0.21450  Biso   1.000  H
  C7       1.0000 0.72727  0.16450  0.16400  Biso   1.000  C
  C8       1.0000 0.74668  0.91090  0.41540  Biso   1.000  C
  C9       1.0000 0.59359  0.07790  0.33890  Biso   1.000  C
  C10      1.0000 0.56440  0.00540  0.36150  Biso   1.000  C
  H4       1.0000 0.57460  0.94090  0.36110  Biso   1.000  H
  C11      1.0000 0.52081  0.02270  0.38490  Biso   1.000  C
  H5       1.0000 0.50250  0.96970  0.39730  Biso   1.000  H
  C12      1.0000 0.50397  0.11370  0.39040  Biso   1.000  C
  C13      1.0000 0.46123  0.13510  0.42370  Biso   1.000  C
  H6       1.0000 0.44290  0.08350  0.43940  Biso   1.000  H
  C14      1.0000 0.44705  0.22390  0.43290  Biso   1.000  C
  C15      1.0000 0.47534  0.29680  0.40670  Biso   1.000  C
  H7       1.0000 0.46590  0.36150  0.41100  Biso   1.000  H
  C16      1.0000 0.51716  0.27870  0.37440  Biso   1.000  C
  H8       1.0000 0.53470  0.33090  0.35700  Biso   1.000  H
  C17      1.0000 0.53287  0.18700  0.36780  Biso   1.000  C
  C18      1.0000 0.57685  0.16630  0.34050  Biso   1.000  C
  H9       1.0000 0.59450  0.21810  0.32290  Biso   1.000  H
  C19      1.0000 0.40306  0.24570  0.47320  Biso   1.000  C
  O1       1.0000 0.70051  0.22611  0.12270  Biso   1.000  O
  O2       1.0000 0.76824  0.14942  0.14994  Biso   1.000  O
  O3       1.0000 0.78994  0.92405  0.43270  Biso   1.000  O
  O4       1.0000 0.72807  0.84039  0.44739  Biso   1.000  O
  O5       1.0000 0.38757  0.32693  0.46600  Biso   1.000  O
  O6       1.0000 0.38272  0.18400  0.51420  Biso   1.000  O
  Eu2      1.0000 0.81733  0.79166  0.53680  Biso   1.000  Eu
  C20      1.0000 0.20769  0.60470  0.23810  Biso   1.000  C
  C21      1.0000 0.23551  0.53840  0.29280  Biso   1.000  C
  H10      1.0000 0.26660  0.53190  0.28590  Biso   1.000  H
  C22      1.0000 0.21631  0.48210  0.35760  Biso   1.000  C
  C23      1.0000 0.17007  0.49200  0.36940  Biso   1.000  C
  H11      1.0000 0.15790  0.45110  0.41280  Biso   1.000  H
  C24      1.0000 0.14184  0.56040  0.31870  Biso   1.000  C
  C25      1.0000 0.16148  0.61520  0.25190  Biso   1.000  C
  H12      1.0000 0.14320  0.66090  0.21450  Biso   1.000  H
  C26      1.0000 0.22727  0.66450  0.16400  Biso   1.000  C
  C27      1.0000 0.24668  0.41090  0.41540  Biso   1.000  C
  C28      1.0000 0.09359  0.57790  0.33890  Biso   1.000  C
  C29      1.0000 0.06440  0.50540  0.36150  Biso   1.000  C
  H13      1.0000 0.07460  0.44090  0.36110  Biso   1.000  H
  C30      1.0000 0.02081  0.52270  0.38490  Biso   1.000  C
  H14      1.0000 0.00250  0.46970  0.39730  Biso   1.000  H
  C31      1.0000 0.00397  0.61370  0.39040  Biso   1.000  C
  C32      1.0000 0.96123  0.63510  0.42370  Biso   1.000  C
  H15      1.0000 0.94290  0.58350  0.43940  Biso   1.000  H
  C33      1.0000 0.94705  0.72390  0.43290  Biso   1.000  C
  C34      1.0000 0.97534  0.79680  0.40670  Biso   1.000  C
  H16      1.0000 0.96590  0.86150  0.41100  Biso   1.000  H
  C35      1.0000 0.01716  0.77870  0.37440  Biso   1.000  C
  H17      1.0000 0.03470  0.83090  0.35700  Biso   1.000  H
  C36      1.0000 0.03287  0.68700  0.36780  Biso   1.000  C
  C37      1.0000 0.07685  0.66630  0.34050  Biso   1.000  C
  H18      1.0000 0.09450  0.71810  0.32290  Biso   1.000  H
  C38      1.0000 0.90306  0.74570  0.47320  Biso   1.000  C
  O7       1.0000 0.20051  0.72611  0.12270  Biso   1.000  O
  O8       1.0000 0.26824  0.64942  0.14994  Biso   1.000  O
  O9       1.0000 0.28994  0.42405  0.43270  Biso   1.000  O
  O10      1.0000 0.22807  0.34039  0.44739  Biso   1.000  O
  O11      1.0000 0.88757  0.82693  0.46600  Biso   1.000  O
  O12      1.0000 0.88272  0.68400  0.51420  Biso   1.000  O
  Eu3      1.0000 0.68267  0.29166  0.96320  Biso   1.000  Eu
  C39      1.0000 0.29231  0.10470  0.26190  Biso   1.000  C
  C40      1.0000 0.26449  0.03840  0.20720  Biso   1.000  C
  H19      1.0000 0.23340  0.03190  0.21410  Biso   1.000  H
  C41      1.0000 0.28369  0.98210  0.14240  Biso   1.000  C
  C42      1.0000 0.32993  0.99200  0.13060  Biso   1.000  C
  H20      1.0000 0.34210  0.95110  0.08720  Biso   1.000  H
  C43      1.0000 0.35816  0.06040  0.18130  Biso   1.000  C
  C44      1.0000 0.33852  0.11520  0.24810  Biso   1.000  C
  H21      1.0000 0.35680  0.16090  0.28550  Biso   1.000  H
  C45      1.0000 0.27273  0.16450  0.33600  Biso   1.000  C
  C46      1.0000 0.25332  0.91090  0.08460  Biso   1.000  C
  C47      1.0000 0.40641  0.07790  0.16110  Biso   1.000  C
  C48      1.0000 0.43560  0.00540  0.13850  Biso   1.000  C
  H22      1.0000 0.42540  0.94090  0.13890  Biso   1.000  H
  C49      1.0000 0.47919  0.02270  0.11510  Biso   1.000  C
  H23      1.0000 0.49750  0.96970  0.10270  Biso   1.000  H
  C50      1.0000 0.49603  0.11370  0.10960  Biso   1.000  C
  C51      1.0000 0.53877  0.13510  0.07630  Biso   1.000  C
  H24      1.0000 0.55710  0.08350  0.06060  Biso   1.000  H
  C52      1.0000 0.55295  0.22390  0.06710  Biso   1.000  C
  C53      1.0000 0.52466  0.29680  0.09330  Biso   1.000  C
  H25      1.0000 0.53410  0.36150  0.08900  Biso   1.000  H
  C54      1.0000 0.48284  0.27870  0.12560  Biso   1.000  C
  H26      1.0000 0.46530  0.33090  0.14300  Biso   1.000  H
  C55      1.0000 0.46713  0.18700  0.13220  Biso   1.000  C
  C56      1.0000 0.42315  0.16630  0.15950  Biso   1.000  C
  H27      1.0000 0.40550  0.21810  0.17710  Biso   1.000  H
  C57      1.0000 0.59694  0.24570  0.02680  Biso   1.000  C
  O13      1.0000 0.29949  0.22611  0.37730  Biso   1.000  O
  O14      1.0000 0.23176  0.14942  0.35006  Biso   1.000  O
  O15      1.0000 0.21006  0.92405  0.06730  Biso   1.000  O
  O16      1.0000 0.27193  0.84039  0.05261  Biso   1.000  O
  O17      1.0000 0.61243  0.32693  0.03400  Biso   1.000  O
  O18      1.0000 0.61728  0.18400  0.98580  Biso   1.000  O
  Eu4      1.0000 0.18267  0.79166  0.96320  Biso   1.000  Eu
  C58      1.0000 0.79231  0.60470  0.26190  Biso   1.000  C
  C59      1.0000 0.76449  0.53840  0.20720  Biso   1.000  C
  H28      1.0000 0.73340  0.53190  0.21410  Biso   1.000  H
  C60      1.0000 0.78369  0.48210  0.14240  Biso   1.000  C
  C61      1.0000 0.82993  0.49200  0.13060  Biso   1.000  C
  H29      1.0000 0.84210  0.45110  0.08720  Biso   1.000  H
  C62      1.0000 0.85816  0.56040  0.18130  Biso   1.000  C
  C63      1.0000 0.83852  0.61520  0.24810  Biso   1.000  C
  H30      1.0000 0.85680  0.66090  0.28550  Biso   1.000  H
  C64      1.0000 0.77273  0.66450  0.33600  Biso   1.000  C
  C65      1.0000 0.75332  0.41090  0.08460  Biso   1.000  C
  C66      1.0000 0.90641  0.57790  0.16110  Biso   1.000  C
  C67      1.0000 0.93560  0.50540  0.13850  Biso   1.000  C
  H31      1.0000 0.92540  0.44090  0.13890  Biso   1.000  H
  C68      1.0000 0.97919  0.52270  0.11510  Biso   1.000  C
  H32      1.0000 0.99750  0.46970  0.10270  Biso   1.000  H
  C69      1.0000 0.99603  0.61370  0.10960  Biso   1.000  C
  C70      1.0000 0.03877  0.63510  0.07630  Biso   1.000  C
  H33      1.0000 0.05710  0.58350  0.06060  Biso   1.000  H
  C71      1.0000 0.05295  0.72390  0.06710  Biso   1.000  C
  C72      1.0000 0.02466  0.79680  0.09330  Biso   1.000  C
  H34      1.0000 0.03410  0.86150  0.08900  Biso   1.000  H
  C73      1.0000 0.98284  0.77870  0.12560  Biso   1.000  C
  H35      1.0000 0.96530  0.83090  0.14300  Biso   1.000  H
  C74      1.0000 0.96713  0.68700  0.13220  Biso   1.000  C
  C75      1.0000 0.92315  0.66630  0.15950  Biso   1.000  C
  H36      1.0000 0.90550  0.71810  0.17710  Biso   1.000  H
  C76      1.0000 0.09694  0.74570  0.02680  Biso   1.000  C
  O19      1.0000 0.79949  0.72611  0.37730  Biso   1.000  O
  O20      1.0000 0.73176  0.64942  0.35006  Biso   1.000  O
  O21      1.0000 0.71006  0.42405  0.06730  Biso   1.000  O
  O22      1.0000 0.77193  0.34039  0.05261  Biso   1.000  O
  O23      1.0000 0.11243  0.82693  0.03400  Biso   1.000  O
  O24      1.0000 0.11728  0.68400  0.98580  Biso   1.000  O
  Eu5      1.0000 0.68267  0.70835  0.46320  Biso   1.000  Eu
  C77      1.0000 0.29231  0.89530  0.76190  Biso   1.000  C
  C78      1.0000 0.26449  0.96160  0.70720  Biso   1.000  C
  H37      1.0000 0.23340  0.96810  0.71410  Biso   1.000  H
  C79      1.0000 0.28369  0.01790  0.64240  Biso   1.000  C
  C80      1.0000 0.32993  0.00800  0.63060  Biso   1.000  C
  H38      1.0000 0.34210  0.04890  0.58720  Biso   1.000  H
  C81      1.0000 0.35816  0.93960  0.68130  Biso   1.000  C
  C82      1.0000 0.33852  0.88480  0.74810  Biso   1.000  C
  H39      1.0000 0.35680  0.83910  0.78550  Biso   1.000  H
  C83      1.0000 0.27273  0.83550  0.83600  Biso   1.000  C
  C84      1.0000 0.25332  0.08910  0.58460  Biso   1.000  C
  C85      1.0000 0.40641  0.92210  0.66110  Biso   1.000  C
  C86      1.0000 0.43560  0.99460  0.63850  Biso   1.000  C
  H40      1.0000 0.42540  0.05910  0.63890  Biso   1.000  H
  C87      1.0000 0.47919  0.97730  0.61510  Biso   1.000  C
  H41      1.0000 0.49750  0.03030  0.60270  Biso   1.000  H
  C88      1.0000 0.49603  0.88630  0.60960  Biso   1.000  C
  C89      1.0000 0.53877  0.86490  0.57630  Biso   1.000  C
  H42      1.0000 0.55710  0.91650  0.56060  Biso   1.000  H
  C90      1.0000 0.55295  0.77610  0.56710  Biso   1.000  C
  C91      1.0000 0.52466  0.70320  0.59330  Biso   1.000  C
  H43      1.0000 0.53410  0.63850  0.58900  Biso   1.000  H
  C92      1.0000 0.48284  0.72130  0.62560  Biso   1.000  C
  H44      1.0000 0.46530  0.66910  0.64300  Biso   1.000  H
  C93      1.0000 0.46713  0.81300  0.63220  Biso   1.000  C
  C94      1.0000 0.42315  0.83370  0.65950  Biso   1.000  C
  H45      1.0000 0.40550  0.78190  0.67710  Biso   1.000  H
  C95      1.0000 0.59694  0.75430  0.52680  Biso   1.000  C
  O25      1.0000 0.29949  0.77389  0.87730  Biso   1.000  O
  O26      1.0000 0.23176  0.85058  0.85006  Biso   1.000  O
  O27      1.0000 0.21006  0.07595  0.56730  Biso   1.000  O
  O28      1.0000 0.27193  0.15961  0.55261  Biso   1.000  O
  O29      1.0000 0.61243  0.67307  0.53400  Biso   1.000  O
  O30      1.0000 0.61728  0.81600  0.48580  Biso   1.000  O
  Eu6      1.0000 0.18267  0.20835  0.46320  Biso   1.000  Eu
  C96      1.0000 0.79231  0.39530  0.76190  Biso   1.000  C
  C97      1.0000 0.76449  0.46160  0.70720  Biso   1.000  C
  H46      1.0000 0.73340  0.46810  0.71410  Biso   1.000  H
  C98      1.0000 0.78369  0.51790  0.64240  Biso   1.000  C
  C99      1.0000 0.82993  0.50800  0.63060  Biso   1.000  C
  H47      1.0000 0.84210  0.54890  0.58720  Biso   1.000  H
  C100     1.0000 0.85816  0.43960  0.68130  Biso   1.000  C
  C101     1.0000 0.83852  0.38480  0.74810  Biso   1.000  C
  H48      1.0000 0.85680  0.33910  0.78550  Biso   1.000  H
  C102     1.0000 0.77273  0.33550  0.83600  Biso   1.000  C
  C103     1.0000 0.75332  0.58910  0.58460  Biso   1.000  C
  C104     1.0000 0.90641  0.42210  0.66110  Biso   1.000  C
  C105     1.0000 0.93560  0.49460  0.63850  Biso   1.000  C
  H49      1.0000 0.92540  0.55910  0.63890  Biso   1.000  H
  C106     1.0000 0.97919  0.47730  0.61510  Biso   1.000  C
  H50      1.0000 0.99750  0.53030  0.60270  Biso   1.000  H
  C107     1.0000 0.99603  0.38630  0.60960  Biso   1.000  C
  C108     1.0000 0.03877  0.36490  0.57630  Biso   1.000  C
  H51      1.0000 0.05710  0.41650  0.56060  Biso   1.000  H
  C109     1.0000 0.05295  0.27610  0.56710  Biso   1.000  C
  C110     1.0000 0.02466  0.20320  0.59330  Biso   1.000  C
  H52      1.0000 0.03410  0.13850  0.58900  Biso   1.000  H
  C111     1.0000 0.98284  0.22130  0.62560  Biso   1.000  C
  H53      1.0000 0.96530  0.16910  0.64300  Biso   1.000  H
  C112     1.0000 0.96713  0.31300  0.63220  Biso   1.000  C
  C113     1.0000 0.92315  0.33370  0.65950  Biso   1.000  C
  H54      1.0000 0.90550  0.28190  0.67710  Biso   1.000  H
  C114     1.0000 0.09694  0.25430  0.52680  Biso   1.000  C
  O31      1.0000 0.79949  0.27389  0.87730  Biso   1.000  O
  O32      1.0000 0.73176  0.35058  0.85006  Biso   1.000  O
  O33      1.0000 0.71006  0.57595  0.56730  Biso   1.000  O
  O34      1.0000 0.77193  0.65961  0.55261  Biso   1.000  O
  O35      1.0000 0.11243  0.17307  0.53400  Biso   1.000  O
  O36      1.0000 0.11728  0.31600  0.48580  Biso   1.000  O
  Eu7      1.0000 0.31733  0.70835  0.03680  Biso   1.000  Eu
  C115     1.0000 0.70769  0.89530  0.73810  Biso   1.000  C
  C116     1.0000 0.73551  0.96160  0.79280  Biso   1.000  C
  H55      1.0000 0.76660  0.96810  0.78590  Biso   1.000  H
  C117     1.0000 0.71631  0.01790  0.85760  Biso   1.000  C
  C118     1.0000 0.67007  0.00800  0.86940  Biso   1.000  C
  H56      1.0000 0.65790  0.04890  0.91280  Biso   1.000  H
  C119     1.0000 0.64184  0.93960  0.81870  Biso   1.000  C
  C120     1.0000 0.66148  0.88480  0.75190  Biso   1.000  C
  H57      1.0000 0.64320  0.83910  0.71450  Biso   1.000  H
  C121     1.0000 0.72727  0.83550  0.66400  Biso   1.000  C
  C122     1.0000 0.74668  0.08910  0.91540  Biso   1.000  C
  C123     1.0000 0.59359  0.92210  0.83890  Biso   1.000  C
  C124     1.0000 0.56440  0.99460  0.86150  Biso   1.000  C
  H58      1.0000 0.57460  0.05910  0.86110  Biso   1.000  H
  C125     1.0000 0.52081  0.97730  0.88490  Biso   1.000  C
  H59      1.0000 0.50250  0.03030  0.89730  Biso   1.000  H
  C126     1.0000 0.50397  0.88630  0.89040  Biso   1.000  C
  C127     1.0000 0.46123  0.86490  0.92370  Biso   1.000  C
  H60      1.0000 0.44290  0.91650  0.93940  Biso   1.000  H
  C128     1.0000 0.44705  0.77610  0.93290  Biso   1.000  C
  C129     1.0000 0.47534  0.70320  0.90670  Biso   1.000  C
  H61      1.0000 0.46590  0.63850  0.91100  Biso   1.000  H
  C130     1.0000 0.51716  0.72130  0.87440  Biso   1.000  C
  H62      1.0000 0.53470  0.66910  0.85700  Biso   1.000  H
  C131     1.0000 0.53287  0.81300  0.86780  Biso   1.000  C
  C132     1.0000 0.57685  0.83370  0.84050  Biso   1.000  C
  H63      1.0000 0.59450  0.78190  0.82290  Biso   1.000  H
  C133     1.0000 0.40306  0.75430  0.97320  Biso   1.000  C
  O37      1.0000 0.70051  0.77389  0.62270  Biso   1.000  O
  O38      1.0000 0.76824  0.85058  0.64994  Biso   1.000  O
  O39      1.0000 0.78994  0.07595  0.93270  Biso   1.000  O
  O40      1.0000 0.72807  0.15961  0.94739  Biso   1.000  O
  O41      1.0000 0.38757  0.67307  0.96600  Biso   1.000  O
  O42      1.0000 0.38272  0.81600  0.01420  Biso   1.000  O
  Eu8      1.0000 0.81733  0.20835  0.03680  Biso   1.000  Eu
  C134     1.0000 0.20769  0.39530  0.73810  Biso   1.000  C
  C135     1.0000 0.23551  0.46160  0.79280  Biso   1.000  C
  H64      1.0000 0.26660  0.46810  0.78590  Biso   1.000  H
  C136     1.0000 0.21631  0.51790  0.85760  Biso   1.000  C
  C137     1.0000 0.17007  0.50800  0.86940  Biso   1.000  C
  H65      1.0000 0.15790  0.54890  0.91280  Biso   1.000  H
  C138     1.0000 0.14184  0.43960  0.81870  Biso   1.000  C
  C139     1.0000 0.16148  0.38480  0.75190  Biso   1.000  C
  H66      1.0000 0.14320  0.33910  0.71450  Biso   1.000  H
  C140     1.0000 0.22727  0.33550  0.66400  Biso   1.000  C
  C141     1.0000 0.24668  0.58910  0.91540  Biso   1.000  C
  C142     1.0000 0.09359  0.42210  0.83890  Biso   1.000  C
  C143     1.0000 0.06440  0.49460  0.86150  Biso   1.000  C
  H67      1.0000 0.07460  0.55910  0.86110  Biso   1.000  H
  C144     1.0000 0.02081  0.47730  0.88490  Biso   1.000  C
  H68      1.0000 0.00250  0.53030  0.89730  Biso   1.000  H
  C145     1.0000 0.00397  0.38630  0.89040  Biso   1.000  C
  C146     1.0000 0.96123  0.36490  0.92370  Biso   1.000  C
  H69      1.0000 0.94290  0.41650  0.93940  Biso   1.000  H
  C147     1.0000 0.94705  0.27610  0.93290  Biso   1.000  C
  C148     1.0000 0.97534  0.20320  0.90670  Biso   1.000  C
  H70      1.0000 0.96590  0.13850  0.91100  Biso   1.000  H
  C149     1.0000 0.01716  0.22130  0.87440  Biso   1.000  C
  H71      1.0000 0.03470  0.16910  0.85700  Biso   1.000  H
  C150     1.0000 0.03287  0.31300  0.86780  Biso   1.000  C
  C151     1.0000 0.07685  0.33370  0.84050  Biso   1.000  C
  H72      1.0000 0.09450  0.28190  0.82290  Biso   1.000  H
  C152     1.0000 0.90306  0.25430  0.97320  Biso   1.000  C
  O43      1.0000 0.20051  0.27389  0.62270  Biso   1.000  O
  O44      1.0000 0.26824  0.35058  0.64994  Biso   1.000  O
  O45      1.0000 0.28994  0.57595  0.93270  Biso   1.000  O
  O46      1.0000 0.22807  0.65961  0.94739  Biso   1.000  O
  O47      1.0000 0.88757  0.17307  0.96600  Biso   1.000  O
  O48      1.0000 0.88272  0.31600  0.01420  Biso   1.000  O
