data_image0
_cell_length_a       29.162
_cell_length_b       13.4545
_cell_length_c       13.903
_cell_angle_alpha    90
_cell_angle_beta     98.219
_cell_angle_gamma    90

_symmetry_space_group_name_H-M    "P 1"
_symmetry_int_tables_number       1

loop_
  _symmetry_equiv_pos_as_xyz
  'x, y, z'

loop_
  _atom_site_label
  _atom_site_occupancy
  _atom_site_fract_x
  _atom_site_fract_y
  _atom_site_fract_z
  _atom_site_thermal_displace_type
  _atom_site_B_iso_or_equiv
  _atom_site_type_symbol
  Ho1      1.0000 0.31541  0.30093  0.54077  Biso   1.000  Ho
  C1       1.0000 0.70440  0.12180  0.24200  Biso   1.000  C
  C2       1.0000 0.73240  0.05370  0.29910  Biso   1.000  C
  H1       1.0000 0.76360  0.04730  0.29290  Biso   1.000  H
  C3       1.0000 0.71290  0.99570  0.36530  Biso   1.000  C
  C4       1.0000 0.66630  0.00630  0.37490  Biso   1.000  C
  H2       1.0000 0.65340  0.96510  0.41750  Biso   1.000  H
  C5       1.0000 0.63910  0.07700  0.32230  Biso   1.000  C
  C6       1.0000 0.65910  0.13540  0.25400  Biso   1.000  C
  H3       1.0000 0.64130  0.18310  0.21740  Biso   1.000  H
  C7       1.0000 0.72500  0.17970  0.16410  Biso   1.000  C
  C8       1.0000 0.74290  0.92270  0.42740  Biso   1.000  C
  C9       1.0000 0.59080  0.09530  0.34160  Biso   1.000  C
  C10      1.0000 0.56320  0.01750  0.36350  Biso   1.000  C
  H4       1.0000 0.57460  0.95300  0.36320  Biso   1.000  H
  C11      1.0000 0.51950  0.03230  0.38540  Biso   1.000  C
  H5       1.0000 0.50110  0.97790  0.39560  Biso   1.000  H
  C12      1.0000 0.50190  0.12940  0.39290  Biso   1.000  C
  C13      1.0000 0.45920  0.15050  0.42460  Biso   1.000  C
  H6       1.0000 0.44090  0.09820  0.44060  Biso   1.000  H
  C14      1.0000 0.44410  0.24500  0.43230  Biso   1.000  C
  C15      1.0000 0.47060  0.32450  0.40600  Biso   1.000  C
  H7       1.0000 0.45970  0.38900  0.41020  Biso   1.000  H
  C16      1.0000 0.51250  0.30940  0.37400  Biso   1.000  C
  H8       1.0000 0.52950  0.36310  0.35610  Biso   1.000  H
  C17      1.0000 0.52980  0.21080  0.36840  Biso   1.000  C
  C18      1.0000 0.57370  0.19000  0.34160  Biso   1.000  C
  H9       1.0000 0.59150  0.24220  0.32340  Biso   1.000  H
  C19      1.0000 0.39980  0.26440  0.47380  Biso   1.000  C
  O1       1.0000 0.70000  0.24780  0.12110  Biso   1.000  O
  O2       1.0000 0.76520  0.15640  0.15160  Biso   1.000  O
  O3       1.0000 0.78500  0.94390  0.45070  Biso   1.000  O
  O4       1.0000 0.72540  0.84590  0.45460  Biso   1.000  O
  O5       1.0000 0.38300  0.35130  0.46780  Biso   1.000  O
  O6       1.0000 0.38060  0.19520  0.51310  Biso   1.000  O
  Ho2      1.0000 0.81541  0.80093  0.54077  Biso   1.000  Ho
  C20      1.0000 0.20440  0.62180  0.24200  Biso   1.000  C
  C21      1.0000 0.23240  0.55370  0.29910  Biso   1.000  C
  H10      1.0000 0.26360  0.54730  0.29290  Biso   1.000  H
  C22      1.0000 0.21290  0.49570  0.36530  Biso   1.000  C
  C23      1.0000 0.16630  0.50630  0.37490  Biso   1.000  C
  H11      1.0000 0.15340  0.46510  0.41750  Biso   1.000  H
  C24      1.0000 0.13910  0.57700  0.32230  Biso   1.000  C
  C25      1.0000 0.15910  0.63540  0.25400  Biso   1.000  C
  H12      1.0000 0.14130  0.68310  0.21740  Biso   1.000  H
  C26      1.0000 0.22500  0.67970  0.16410  Biso   1.000  C
  C27      1.0000 0.24290  0.42270  0.42740  Biso   1.000  C
  C28      1.0000 0.09080  0.59530  0.34160  Biso   1.000  C
  C29      1.0000 0.06320  0.51750  0.36350  Biso   1.000  C
  H13      1.0000 0.07460  0.45300  0.36320  Biso   1.000  H
  C30      1.0000 0.01950  0.53230  0.38540  Biso   1.000  C
  H14      1.0000 0.00110  0.47790  0.39560  Biso   1.000  H
  C31      1.0000 0.00190  0.62940  0.39290  Biso   1.000  C
  C32      1.0000 0.95920  0.65050  0.42460  Biso   1.000  C
  H15      1.0000 0.94090  0.59820  0.44060  Biso   1.000  H
  C33      1.0000 0.94410  0.74500  0.43230  Biso   1.000  C
  C34      1.0000 0.97060  0.82450  0.40600  Biso   1.000  C
  H16      1.0000 0.95970  0.88900  0.41020  Biso   1.000  H
  C35      1.0000 0.01250  0.80940  0.37400  Biso   1.000  C
  H17      1.0000 0.02950  0.86310  0.35610  Biso   1.000  H
  C36      1.0000 0.02980  0.71080  0.36840  Biso   1.000  C
  C37      1.0000 0.07370  0.69000  0.34160  Biso   1.000  C
  H18      1.0000 0.09150  0.74220  0.32340  Biso   1.000  H
  C38      1.0000 0.89980  0.76440  0.47380  Biso   1.000  C
  O7       1.0000 0.20000  0.74780  0.12110  Biso   1.000  O
  O8       1.0000 0.26520  0.65640  0.15160  Biso   1.000  O
  O9       1.0000 0.28500  0.44390  0.45070  Biso   1.000  O
  O10      1.0000 0.22540  0.34590  0.45460  Biso   1.000  O
  O11      1.0000 0.88300  0.85130  0.46780  Biso   1.000  O
  O12      1.0000 0.88060  0.69520  0.51310  Biso   1.000  O
  Ho3      1.0000 0.68459  0.30093  0.95923  Biso   1.000  Ho
  C39      1.0000 0.29560  0.12180  0.25800  Biso   1.000  C
  C40      1.0000 0.26760  0.05370  0.20090  Biso   1.000  C
  H19      1.0000 0.23640  0.04730  0.20710  Biso   1.000  H
  C41      1.0000 0.28710  0.99570  0.13470  Biso   1.000  C
  C42      1.0000 0.33370  0.00630  0.12510  Biso   1.000  C
  H20      1.0000 0.34660  0.96510  0.08250  Biso   1.000  H
  C43      1.0000 0.36090  0.07700  0.17770  Biso   1.000  C
  C44      1.0000 0.34090  0.13540  0.24600  Biso   1.000  C
  H21      1.0000 0.35870  0.18310  0.28260  Biso   1.000  H
  C45      1.0000 0.27500  0.17970  0.33590  Biso   1.000  C
  C46      1.0000 0.25710  0.92270  0.07260  Biso   1.000  C
  C47      1.0000 0.40920  0.09530  0.15840  Biso   1.000  C
  C48      1.0000 0.43680  0.01750  0.13650  Biso   1.000  C
  H22      1.0000 0.42540  0.95300  0.13680  Biso   1.000  H
  C49      1.0000 0.48050  0.03230  0.11460  Biso   1.000  C
  H23      1.0000 0.49890  0.97790  0.10440  Biso   1.000  H
  C50      1.0000 0.49810  0.12940  0.10710  Biso   1.000  C
  C51      1.0000 0.54080  0.15050  0.07540  Biso   1.000  C
  H24      1.0000 0.55910  0.09820  0.05940  Biso   1.000  H
  C52      1.0000 0.55590  0.24500  0.06770  Biso   1.000  C
  C53      1.0000 0.52940  0.32450  0.09400  Biso   1.000  C
  H25      1.0000 0.54030  0.38900  0.08980  Biso   1.000  H
  C54      1.0000 0.48750  0.30940  0.12600  Biso   1.000  C
  H26      1.0000 0.47050  0.36310  0.14390  Biso   1.000  H
  C55      1.0000 0.47020  0.21080  0.13160  Biso   1.000  C
  C56      1.0000 0.42630  0.19000  0.15840  Biso   1.000  C
  H27      1.0000 0.40850  0.24220  0.17660  Biso   1.000  H
  C57      1.0000 0.60020  0.26440  0.02620  Biso   1.000  C
  O13      1.0000 0.30000  0.24780  0.37890  Biso   1.000  O
  O14      1.0000 0.23480  0.15640  0.34840  Biso   1.000  O
  O15      1.0000 0.21500  0.94390  0.04930  Biso   1.000  O
  O16      1.0000 0.27460  0.84590  0.04540  Biso   1.000  O
  O17      1.0000 0.61700  0.35130  0.03220  Biso   1.000  O
  O18      1.0000 0.61940  0.19520  0.98690  Biso   1.000  O
  Ho4      1.0000 0.18459  0.80093  0.95923  Biso   1.000  Ho
  C58      1.0000 0.79560  0.62180  0.25800  Biso   1.000  C
  C59      1.0000 0.76760  0.55370  0.20090  Biso   1.000  C
  H28      1.0000 0.73640  0.54730  0.20710  Biso   1.000  H
  C60      1.0000 0.78710  0.49570  0.13470  Biso   1.000  C
  C61      1.0000 0.83370  0.50630  0.12510  Biso   1.000  C
  H29      1.0000 0.84660  0.46510  0.08250  Biso   1.000  H
  C62      1.0000 0.86090  0.57700  0.17770  Biso   1.000  C
  C63      1.0000 0.84090  0.63540  0.24600  Biso   1.000  C
  H30      1.0000 0.85870  0.68310  0.28260  Biso   1.000  H
  C64      1.0000 0.77500  0.67970  0.33590  Biso   1.000  C
  C65      1.0000 0.75710  0.42270  0.07260  Biso   1.000  C
  C66      1.0000 0.90920  0.59530  0.15840  Biso   1.000  C
  C67      1.0000 0.93680  0.51750  0.13650  Biso   1.000  C
  H31      1.0000 0.92540  0.45300  0.13680  Biso   1.000  H
  C68      1.0000 0.98050  0.53230  0.11460  Biso   1.000  C
  H32      1.0000 0.99890  0.47790  0.10440  Biso   1.000  H
  C69      1.0000 0.99810  0.62940  0.10710  Biso   1.000  C
  C70      1.0000 0.04080  0.65050  0.07540  Biso   1.000  C
  H33      1.0000 0.05910  0.59820  0.05940  Biso   1.000  H
  C71      1.0000 0.05590  0.74500  0.06770  Biso   1.000  C
  C72      1.0000 0.02940  0.82450  0.09400  Biso   1.000  C
  H34      1.0000 0.04030  0.88900  0.08980  Biso   1.000  H
  C73      1.0000 0.98750  0.80940  0.12600  Biso   1.000  C
  H35      1.0000 0.97050  0.86310  0.14390  Biso   1.000  H
  C74      1.0000 0.97020  0.71080  0.13160  Biso   1.000  C
  C75      1.0000 0.92630  0.69000  0.15840  Biso   1.000  C
  H36      1.0000 0.90850  0.74220  0.17660  Biso   1.000  H
  C76      1.0000 0.10020  0.76440  0.02620  Biso   1.000  C
  O19      1.0000 0.80000  0.74780  0.37890  Biso   1.000  O
  O20      1.0000 0.73480  0.65640  0.34840  Biso   1.000  O
  O21      1.0000 0.71500  0.44390  0.04930  Biso   1.000  O
  O22      1.0000 0.77460  0.34590  0.04540  Biso   1.000  O
  O23      1.0000 0.11700  0.85130  0.03220  Biso   1.000  O
  O24      1.0000 0.11940  0.69520  0.98690  Biso   1.000  O
  Ho5      1.0000 0.68459  0.69907  0.45923  Biso   1.000  Ho
  C77      1.0000 0.29560  0.87820  0.75800  Biso   1.000  C
  C78      1.0000 0.26760  0.94630  0.70090  Biso   1.000  C
  H37      1.0000 0.23640  0.95270  0.70710  Biso   1.000  H
  C79      1.0000 0.28710  0.00430  0.63470  Biso   1.000  C
  C80      1.0000 0.33370  0.99370  0.62510  Biso   1.000  C
  H38      1.0000 0.34660  0.03490  0.58250  Biso   1.000  H
  C81      1.0000 0.36090  0.92300  0.67770  Biso   1.000  C
  C82      1.0000 0.34090  0.86460  0.74600  Biso   1.000  C
  H39      1.0000 0.35870  0.81690  0.78260  Biso   1.000  H
  C83      1.0000 0.27500  0.82030  0.83590  Biso   1.000  C
  C84      1.0000 0.25710  0.07730  0.57260  Biso   1.000  C
  C85      1.0000 0.40920  0.90470  0.65840  Biso   1.000  C
  C86      1.0000 0.43680  0.98250  0.63650  Biso   1.000  C
  H40      1.0000 0.42540  0.04700  0.63680  Biso   1.000  H
  C87      1.0000 0.48050  0.96770  0.61460  Biso   1.000  C
  H41      1.0000 0.49890  0.02210  0.60440  Biso   1.000  H
  C88      1.0000 0.49810  0.87060  0.60710  Biso   1.000  C
  C89      1.0000 0.54080  0.84950  0.57540  Biso   1.000  C
  H42      1.0000 0.55910  0.90180  0.55940  Biso   1.000  H
  C90      1.0000 0.55590  0.75500  0.56770  Biso   1.000  C
  C91      1.0000 0.52940  0.67550  0.59400  Biso   1.000  C
  H43      1.0000 0.54030  0.61100  0.58980  Biso   1.000  H
  C92      1.0000 0.48750  0.69060  0.62600  Biso   1.000  C
  H44      1.0000 0.47050  0.63690  0.64390  Biso   1.000  H
  C93      1.0000 0.47020  0.78920  0.63160  Biso   1.000  C
  C94      1.0000 0.42630  0.81000  0.65840  Biso   1.000  C
  H45      1.0000 0.40850  0.75780  0.67660  Biso   1.000  H
  C95      1.0000 0.60020  0.73560  0.52620  Biso   1.000  C
  O25      1.0000 0.30000  0.75220  0.87890  Biso   1.000  O
  O26      1.0000 0.23480  0.84360  0.84840  Biso   1.000  O
  O27      1.0000 0.21500  0.05610  0.54930  Biso   1.000  O
  O28      1.0000 0.27460  0.15410  0.54540  Biso   1.000  O
  O29      1.0000 0.61700  0.64870  0.53220  Biso   1.000  O
  O30      1.0000 0.61940  0.80480  0.48690  Biso   1.000  O
  Ho6      1.0000 0.18459  0.19907  0.45923  Biso   1.000  Ho
  C96      1.0000 0.79560  0.37820  0.75800  Biso   1.000  C
  C97      1.0000 0.76760  0.44630  0.70090  Biso   1.000  C
  H46      1.0000 0.73640  0.45270  0.70710  Biso   1.000  H
  C98      1.0000 0.78710  0.50430  0.63470  Biso   1.000  C
  C99      1.0000 0.83370  0.49370  0.62510  Biso   1.000  C
  H47      1.0000 0.84660  0.53490  0.58250  Biso   1.000  H
  C100     1.0000 0.86090  0.42300  0.67770  Biso   1.000  C
  C101     1.0000 0.84090  0.36460  0.74600  Biso   1.000  C
  H48      1.0000 0.85870  0.31690  0.78260  Biso   1.000  H
  C102     1.0000 0.77500  0.32030  0.83590  Biso   1.000  C
  C103     1.0000 0.75710  0.57730  0.57260  Biso   1.000  C
  C104     1.0000 0.90920  0.40470  0.65840  Biso   1.000  C
  C105     1.0000 0.93680  0.48250  0.63650  Biso   1.000  C
  H49      1.0000 0.92540  0.54700  0.63680  Biso   1.000  H
  C106     1.0000 0.98050  0.46770  0.61460  Biso   1.000  C
  H50      1.0000 0.99890  0.52210  0.60440  Biso   1.000  H
  C107     1.0000 0.99810  0.37060  0.60710  Biso   1.000  C
  C108     1.0000 0.04080  0.34950  0.57540  Biso   1.000  C
  H51      1.0000 0.05910  0.40180  0.55940  Biso   1.000  H
  C109     1.0000 0.05590  0.25500  0.56770  Biso   1.000  C
  C110     1.0000 0.02940  0.17550  0.59400  Biso   1.000  C
  H52      1.0000 0.04030  0.11100  0.58980  Biso   1.000  H
  C111     1.0000 0.98750  0.19060  0.62600  Biso   1.000  C
  H53      1.0000 0.97050  0.13690  0.64390  Biso   1.000  H
  C112     1.0000 0.97020  0.28920  0.63160  Biso   1.000  C
  C113     1.0000 0.92630  0.31000  0.65840  Biso   1.000  C
  H54      1.0000 0.90850  0.25780  0.67660  Biso   1.000  H
  C114     1.0000 0.10020  0.23560  0.52620  Biso   1.000  C
  O31      1.0000 0.80000  0.25220  0.87890  Biso   1.000  O
  O32      1.0000 0.73480  0.34360  0.84840  Biso   1.000  O
  O33      1.0000 0.71500  0.55610  0.54930  Biso   1.000  O
  O34      1.0000 0.77460  0.65410  0.54540  Biso   1.000  O
  O35      1.0000 0.11700  0.14870  0.53220  Biso   1.000  O
  O36      1.0000 0.11940  0.30480  0.48690  Biso   1.000  O
  Ho7      1.0000 0.31541  0.69907  0.04077  Biso   1.000  Ho
  C115     1.0000 0.70440  0.87820  0.74200  Biso   1.000  C
  C116     1.0000 0.73240  0.94630  0.79910  Biso   1.000  C
  H55      1.0000 0.76360  0.95270  0.79290  Biso   1.000  H
  C117     1.0000 0.71290  0.00430  0.86530  Biso   1.000  C
  C118     1.0000 0.66630  0.99370  0.87490  Biso   1.000  C
  H56      1.0000 0.65340  0.03490  0.91750  Biso   1.000  H
  C119     1.0000 0.63910  0.92300  0.82230  Biso   1.000  C
  C120     1.0000 0.65910  0.86460  0.75400  Biso   1.000  C
  H57      1.0000 0.64130  0.81690  0.71740  Biso   1.000  H
  C121     1.0000 0.72500  0.82030  0.66410  Biso   1.000  C
  C122     1.0000 0.74290  0.07730  0.92740  Biso   1.000  C
  C123     1.0000 0.59080  0.90470  0.84160  Biso   1.000  C
  C124     1.0000 0.56320  0.98250  0.86350  Biso   1.000  C
  H58      1.0000 0.57460  0.04700  0.86320  Biso   1.000  H
  C125     1.0000 0.51950  0.96770  0.88540  Biso   1.000  C
  H59      1.0000 0.50110  0.02210  0.89560  Biso   1.000  H
  C126     1.0000 0.50190  0.87060  0.89290  Biso   1.000  C
  C127     1.0000 0.45920  0.84950  0.92460  Biso   1.000  C
  H60      1.0000 0.44090  0.90180  0.94060  Biso   1.000  H
  C128     1.0000 0.44410  0.75500  0.93230  Biso   1.000  C
  C129     1.0000 0.47060  0.67550  0.90600  Biso   1.000  C
  H61      1.0000 0.45970  0.61100  0.91020  Biso   1.000  H
  C130     1.0000 0.51250  0.69060  0.87400  Biso   1.000  C
  H62      1.0000 0.52950  0.63690  0.85610  Biso   1.000  H
  C131     1.0000 0.52980  0.78920  0.86840  Biso   1.000  C
  C132     1.0000 0.57370  0.81000  0.84160  Biso   1.000  C
  H63      1.0000 0.59150  0.75780  0.82340  Biso   1.000  H
  C133     1.0000 0.39980  0.73560  0.97380  Biso   1.000  C
  O37      1.0000 0.70000  0.75220  0.62110  Biso   1.000  O
  O38      1.0000 0.76520  0.84360  0.65160  Biso   1.000  O
  O39      1.0000 0.78500  0.05610  0.95070  Biso   1.000  O
  O40      1.0000 0.72540  0.15410  0.95460  Biso   1.000  O
  O41      1.0000 0.38300  0.64870  0.96780  Biso   1.000  O
  O42      1.0000 0.38060  0.80480  0.01310  Biso   1.000  O
  Ho8      1.0000 0.81541  0.19907  0.04077  Biso   1.000  Ho
  C134     1.0000 0.20440  0.37820  0.74200  Biso   1.000  C
  C135     1.0000 0.23240  0.44630  0.79910  Biso   1.000  C
  H64      1.0000 0.26360  0.45270  0.79290  Biso   1.000  H
  C136     1.0000 0.21290  0.50430  0.86530  Biso   1.000  C
  C137     1.0000 0.16630  0.49370  0.87490  Biso   1.000  C
  H65      1.0000 0.15340  0.53490  0.91750  Biso   1.000  H
  C138     1.0000 0.13910  0.42300  0.82230  Biso   1.000  C
  C139     1.0000 0.15910  0.36460  0.75400  Biso   1.000  C
  H66      1.0000 0.14130  0.31690  0.71740  Biso   1.000  H
  C140     1.0000 0.22500  0.32030  0.66410  Biso   1.000  C
  C141     1.0000 0.24290  0.57730  0.92740  Biso   1.000  C
  C142     1.0000 0.09080  0.40470  0.84160  Biso   1.000  C
  C143     1.0000 0.06320  0.48250  0.86350  Biso   1.000  C
  H67      1.0000 0.07460  0.54700  0.86320  Biso   1.000  H
  C144     1.0000 0.01950  0.46770  0.88540  Biso   1.000  C
  H68      1.0000 0.00110  0.52210  0.89560  Biso   1.000  H
  C145     1.0000 0.00190  0.37060  0.89290  Biso   1.000  C
  C146     1.0000 0.95920  0.34950  0.92460  Biso   1.000  C
  H69      1.0000 0.94090  0.40180  0.94060  Biso   1.000  H
  C147     1.0000 0.94410  0.25500  0.93230  Biso   1.000  C
  C148     1.0000 0.97060  0.17550  0.90600  Biso   1.000  C
  H70      1.0000 0.95970  0.11100  0.91020  Biso   1.000  H
  C149     1.0000 0.01250  0.19060  0.87400  Biso   1.000  C
  H71      1.0000 0.02950  0.13690  0.85610  Biso   1.000  H
  C150     1.0000 0.02980  0.28920  0.86840  Biso   1.000  C
  C151     1.0000 0.07370  0.31000  0.84160  Biso   1.000  C
  H72      1.0000 0.09150  0.25780  0.82340  Biso   1.000  H
  C152     1.0000 0.89980  0.23560  0.97380  Biso   1.000  C
  O43      1.0000 0.20000  0.25220  0.62110  Biso   1.000  O
  O44      1.0000 0.26520  0.34360  0.65160  Biso   1.000  O
  O45      1.0000 0.28500  0.55610  0.95070  Biso   1.000  O
  O46      1.0000 0.22540  0.65410  0.95460  Biso   1.000  O
  O47      1.0000 0.88300  0.14870  0.96780  Biso   1.000  O
  O48      1.0000 0.88060  0.30480  0.01310  Biso   1.000  O
