data_image0
_cell_length_a       28.8533
_cell_length_b       14.4038
_cell_length_c       13.7414
_cell_angle_alpha    90
_cell_angle_beta     98.666
_cell_angle_gamma    90

_symmetry_space_group_name_H-M    "P 1"
_symmetry_int_tables_number       1

loop_
  _symmetry_equiv_pos_as_xyz
  'x, y, z'

loop_
  _atom_site_label
  _atom_site_occupancy
  _atom_site_fract_x
  _atom_site_fract_y
  _atom_site_fract_z
  _atom_site_thermal_displace_type
  _atom_site_B_iso_or_equiv
  _atom_site_type_symbol
  Tb1      1.0000 0.31708  0.29329  0.53688  Biso   1.000  Tb
  C1       1.0000 0.70690  0.10420  0.23610  Biso   1.000  C
  C2       1.0000 0.73460  0.03790  0.29040  Biso   1.000  C
  H1       1.0000 0.76600  0.03150  0.28300  Biso   1.000  H
  C3       1.0000 0.71557  0.98130  0.35550  Biso   1.000  C
  C4       1.0000 0.66891  0.99180  0.36860  Biso   1.000  C
  H2       1.0000 0.65640  0.95310  0.41230  Biso   1.000  H
  C5       1.0000 0.64053  0.06000  0.31670  Biso   1.000  C
  C6       1.0000 0.66053  0.11490  0.24950  Biso   1.000  C
  H3       1.0000 0.64220  0.15960  0.21300  Biso   1.000  H
  C7       1.0000 0.72618  0.16380  0.16040  Biso   1.000  C
  C8       1.0000 0.74579  0.90960  0.41370  Biso   1.000  C
  C9       1.0000 0.59268  0.07820  0.33810  Biso   1.000  C
  C10      1.0000 0.56365  0.00530  0.36110  Biso   1.000  C
  H4       1.0000 0.57420  0.94440  0.36010  Biso   1.000  H
  C11      1.0000 0.52010  0.02330  0.38470  Biso   1.000  C
  H5       1.0000 0.50110  0.97390  0.39720  Biso   1.000  H
  C12      1.0000 0.50317  0.11510  0.39070  Biso   1.000  C
  C13      1.0000 0.46053  0.13570  0.42460  Biso   1.000  C
  H6       1.0000 0.44150  0.08750  0.44040  Biso   1.000  H
  C14      1.0000 0.44686  0.22570  0.43450  Biso   1.000  C
  C15      1.0000 0.47470  0.29880  0.40760  Biso   1.000  C
  H7       1.0000 0.46480  0.35990  0.41220  Biso   1.000  H
  C16      1.0000 0.51640  0.28080  0.37470  Biso   1.000  C
  H8       1.0000 0.53450  0.32960  0.35710  Biso   1.000  H
  C17      1.0000 0.53190  0.18810  0.36720  Biso   1.000  C
  C18      1.0000 0.57613  0.16720  0.33970  Biso   1.000  C
  H9       1.0000 0.59450  0.21550  0.32210  Biso   1.000  H
  C19      1.0000 0.40250  0.24770  0.47480  Biso   1.000  C
  O1       1.0000 0.69975  0.22600  0.12030  Biso   1.000  O
  O2       1.0000 0.76719  0.14790  0.14620  Biso   1.000  O
  O3       1.0000 0.78901  0.92260  0.43230  Biso   1.000  O
  O4       1.0000 0.72680  0.83840  0.44460  Biso   1.000  O
  O5       1.0000 0.38655  0.32930  0.46590  Biso   1.000  O
  O6       1.0000 0.38259  0.18590  0.51720  Biso   1.000  O
  Tb2      1.0000 0.81708  0.79329  0.53688  Biso   1.000  Tb
  C20      1.0000 0.20690  0.60420  0.23610  Biso   1.000  C
  C21      1.0000 0.23460  0.53790  0.29040  Biso   1.000  C
  H10      1.0000 0.26600  0.53150  0.28300  Biso   1.000  H
  C22      1.0000 0.21557  0.48130  0.35550  Biso   1.000  C
  C23      1.0000 0.16891  0.49180  0.36860  Biso   1.000  C
  H11      1.0000 0.15640  0.45310  0.41230  Biso   1.000  H
  C24      1.0000 0.14053  0.56000  0.31670  Biso   1.000  C
  C25      1.0000 0.16053  0.61490  0.24950  Biso   1.000  C
  H12      1.0000 0.14220  0.65960  0.21300  Biso   1.000  H
  C26      1.0000 0.22618  0.66380  0.16040  Biso   1.000  C
  C27      1.0000 0.24579  0.40960  0.41370  Biso   1.000  C
  C28      1.0000 0.09268  0.57820  0.33810  Biso   1.000  C
  C29      1.0000 0.06365  0.50530  0.36110  Biso   1.000  C
  H13      1.0000 0.07420  0.44440  0.36010  Biso   1.000  H
  C30      1.0000 0.02010  0.52330  0.38470  Biso   1.000  C
  H14      1.0000 0.00110  0.47390  0.39720  Biso   1.000  H
  C31      1.0000 0.00317  0.61510  0.39070  Biso   1.000  C
  C32      1.0000 0.96053  0.63570  0.42460  Biso   1.000  C
  H15      1.0000 0.94150  0.58750  0.44040  Biso   1.000  H
  C33      1.0000 0.94686  0.72570  0.43450  Biso   1.000  C
  C34      1.0000 0.97470  0.79880  0.40760  Biso   1.000  C
  H16      1.0000 0.96480  0.85990  0.41220  Biso   1.000  H
  C35      1.0000 0.01640  0.78080  0.37470  Biso   1.000  C
  H17      1.0000 0.03450  0.82960  0.35710  Biso   1.000  H
  C36      1.0000 0.03190  0.68810  0.36720  Biso   1.000  C
  C37      1.0000 0.07613  0.66720  0.33970  Biso   1.000  C
  H18      1.0000 0.09450  0.71550  0.32210  Biso   1.000  H
  C38      1.0000 0.90250  0.74770  0.47480  Biso   1.000  C
  O7       1.0000 0.19975  0.72600  0.12030  Biso   1.000  O
  O8       1.0000 0.26719  0.64790  0.14620  Biso   1.000  O
  O9       1.0000 0.28901  0.42260  0.43230  Biso   1.000  O
  O10      1.0000 0.22680  0.33840  0.44460  Biso   1.000  O
  O11      1.0000 0.88655  0.82930  0.46590  Biso   1.000  O
  O12      1.0000 0.88259  0.68590  0.51720  Biso   1.000  O
  Tb3      1.0000 0.68292  0.29329  0.96312  Biso   1.000  Tb
  C39      1.0000 0.29310  0.10420  0.26390  Biso   1.000  C
  C40      1.0000 0.26540  0.03790  0.20960  Biso   1.000  C
  H19      1.0000 0.23400  0.03150  0.21700  Biso   1.000  H
  C41      1.0000 0.28443  0.98130  0.14450  Biso   1.000  C
  C42      1.0000 0.33109  0.99180  0.13140  Biso   1.000  C
  H20      1.0000 0.34360  0.95310  0.08770  Biso   1.000  H
  C43      1.0000 0.35947  0.06000  0.18330  Biso   1.000  C
  C44      1.0000 0.33947  0.11490  0.25050  Biso   1.000  C
  H21      1.0000 0.35780  0.15960  0.28700  Biso   1.000  H
  C45      1.0000 0.27382  0.16380  0.33960  Biso   1.000  C
  C46      1.0000 0.25421  0.90960  0.08630  Biso   1.000  C
  C47      1.0000 0.40732  0.07820  0.16190  Biso   1.000  C
  C48      1.0000 0.43635  0.00530  0.13890  Biso   1.000  C
  H22      1.0000 0.42580  0.94440  0.13990  Biso   1.000  H
  C49      1.0000 0.47990  0.02330  0.11530  Biso   1.000  C
  H23      1.0000 0.49890  0.97390  0.10280  Biso   1.000  H
  C50      1.0000 0.49683  0.11510  0.10930  Biso   1.000  C
  C51      1.0000 0.53947  0.13570  0.07540  Biso   1.000  C
  H24      1.0000 0.55850  0.08750  0.05960  Biso   1.000  H
  C52      1.0000 0.55314  0.22570  0.06550  Biso   1.000  C
  C53      1.0000 0.52530  0.29880  0.09240  Biso   1.000  C
  H25      1.0000 0.53520  0.35990  0.08780  Biso   1.000  H
  C54      1.0000 0.48360  0.28080  0.12530  Biso   1.000  C
  H26      1.0000 0.46550  0.32960  0.14290  Biso   1.000  H
  C55      1.0000 0.46810  0.18810  0.13280  Biso   1.000  C
  C56      1.0000 0.42387  0.16720  0.16030  Biso   1.000  C
  H27      1.0000 0.40550  0.21550  0.17790  Biso   1.000  H
  C57      1.0000 0.59750  0.24770  0.02520  Biso   1.000  C
  O13      1.0000 0.30025  0.22600  0.37970  Biso   1.000  O
  O14      1.0000 0.23281  0.14790  0.35380  Biso   1.000  O
  O15      1.0000 0.21099  0.92260  0.06770  Biso   1.000  O
  O16      1.0000 0.27320  0.83840  0.05540  Biso   1.000  O
  O17      1.0000 0.61345  0.32930  0.03410  Biso   1.000  O
  O18      1.0000 0.61741  0.18590  0.98280  Biso   1.000  O
  Tb4      1.0000 0.18292  0.79329  0.96312  Biso   1.000  Tb
  C58      1.0000 0.79310  0.60420  0.26390  Biso   1.000  C
  C59      1.0000 0.76540  0.53790  0.20960  Biso   1.000  C
  H28      1.0000 0.73400  0.53150  0.21700  Biso   1.000  H
  C60      1.0000 0.78443  0.48130  0.14450  Biso   1.000  C
  C61      1.0000 0.83109  0.49180  0.13140  Biso   1.000  C
  H29      1.0000 0.84360  0.45310  0.08770  Biso   1.000  H
  C62      1.0000 0.85947  0.56000  0.18330  Biso   1.000  C
  C63      1.0000 0.83947  0.61490  0.25050  Biso   1.000  C
  H30      1.0000 0.85780  0.65960  0.28700  Biso   1.000  H
  C64      1.0000 0.77382  0.66380  0.33960  Biso   1.000  C
  C65      1.0000 0.75421  0.40960  0.08630  Biso   1.000  C
  C66      1.0000 0.90732  0.57820  0.16190  Biso   1.000  C
  C67      1.0000 0.93635  0.50530  0.13890  Biso   1.000  C
  H31      1.0000 0.92580  0.44440  0.13990  Biso   1.000  H
  C68      1.0000 0.97990  0.52330  0.11530  Biso   1.000  C
  H32      1.0000 0.99890  0.47390  0.10280  Biso   1.000  H
  C69      1.0000 0.99683  0.61510  0.10930  Biso   1.000  C
  C70      1.0000 0.03947  0.63570  0.07540  Biso   1.000  C
  H33      1.0000 0.05850  0.58750  0.05960  Biso   1.000  H
  C71      1.0000 0.05314  0.72570  0.06550  Biso   1.000  C
  C72      1.0000 0.02530  0.79880  0.09240  Biso   1.000  C
  H34      1.0000 0.03520  0.85990  0.08780  Biso   1.000  H
  C73      1.0000 0.98360  0.78080  0.12530  Biso   1.000  C
  H35      1.0000 0.96550  0.82960  0.14290  Biso   1.000  H
  C74      1.0000 0.96810  0.68810  0.13280  Biso   1.000  C
  C75      1.0000 0.92387  0.66720  0.16030  Biso   1.000  C
  H36      1.0000 0.90550  0.71550  0.17790  Biso   1.000  H
  C76      1.0000 0.09750  0.74770  0.02520  Biso   1.000  C
  O19      1.0000 0.80025  0.72600  0.37970  Biso   1.000  O
  O20      1.0000 0.73281  0.64790  0.35380  Biso   1.000  O
  O21      1.0000 0.71099  0.42260  0.06770  Biso   1.000  O
  O22      1.0000 0.77320  0.33840  0.05540  Biso   1.000  O
  O23      1.0000 0.11345  0.82930  0.03410  Biso   1.000  O
  O24      1.0000 0.11741  0.68590  0.98280  Biso   1.000  O
  Tb5      1.0000 0.68292  0.70671  0.46312  Biso   1.000  Tb
  C77      1.0000 0.29310  0.89580  0.76390  Biso   1.000  C
  C78      1.0000 0.26540  0.96210  0.70960  Biso   1.000  C
  H37      1.0000 0.23400  0.96850  0.71700  Biso   1.000  H
  C79      1.0000 0.28443  0.01870  0.64450  Biso   1.000  C
  C80      1.0000 0.33109  0.00820  0.63140  Biso   1.000  C
  H38      1.0000 0.34360  0.04690  0.58770  Biso   1.000  H
  C81      1.0000 0.35947  0.94000  0.68330  Biso   1.000  C
  C82      1.0000 0.33947  0.88510  0.75050  Biso   1.000  C
  H39      1.0000 0.35780  0.84040  0.78700  Biso   1.000  H
  C83      1.0000 0.27382  0.83620  0.83960  Biso   1.000  C
  C84      1.0000 0.25421  0.09040  0.58630  Biso   1.000  C
  C85      1.0000 0.40732  0.92180  0.66190  Biso   1.000  C
  C86      1.0000 0.43635  0.99470  0.63890  Biso   1.000  C
  H40      1.0000 0.42580  0.05560  0.63990  Biso   1.000  H
  C87      1.0000 0.47990  0.97670  0.61530  Biso   1.000  C
  H41      1.0000 0.49890  0.02610  0.60280  Biso   1.000  H
  C88      1.0000 0.49683  0.88490  0.60930  Biso   1.000  C
  C89      1.0000 0.53947  0.86430  0.57540  Biso   1.000  C
  H42      1.0000 0.55850  0.91250  0.55960  Biso   1.000  H
  C90      1.0000 0.55314  0.77430  0.56550  Biso   1.000  C
  C91      1.0000 0.52530  0.70120  0.59240  Biso   1.000  C
  H43      1.0000 0.53520  0.64010  0.58780  Biso   1.000  H
  C92      1.0000 0.48360  0.71920  0.62530  Biso   1.000  C
  H44      1.0000 0.46550  0.67040  0.64290  Biso   1.000  H
  C93      1.0000 0.46810  0.81190  0.63280  Biso   1.000  C
  C94      1.0000 0.42387  0.83280  0.66030  Biso   1.000  C
  H45      1.0000 0.40550  0.78450  0.67790  Biso   1.000  H
  C95      1.0000 0.59750  0.75230  0.52520  Biso   1.000  C
  O25      1.0000 0.30025  0.77400  0.87970  Biso   1.000  O
  O26      1.0000 0.23281  0.85210  0.85380  Biso   1.000  O
  O27      1.0000 0.21099  0.07740  0.56770  Biso   1.000  O
  O28      1.0000 0.27320  0.16160  0.55540  Biso   1.000  O
  O29      1.0000 0.61345  0.67070  0.53410  Biso   1.000  O
  O30      1.0000 0.61741  0.81410  0.48280  Biso   1.000  O
  Tb6      1.0000 0.18292  0.20671  0.46312  Biso   1.000  Tb
  C96      1.0000 0.79310  0.39580  0.76390  Biso   1.000  C
  C97      1.0000 0.76540  0.46210  0.70960  Biso   1.000  C
  H46      1.0000 0.73400  0.46850  0.71700  Biso   1.000  H
  C98      1.0000 0.78443  0.51870  0.64450  Biso   1.000  C
  C99      1.0000 0.83109  0.50820  0.63140  Biso   1.000  C
  H47      1.0000 0.84360  0.54690  0.58770  Biso   1.000  H
  C100     1.0000 0.85947  0.44000  0.68330  Biso   1.000  C
  C101     1.0000 0.83947  0.38510  0.75050  Biso   1.000  C
  H48      1.0000 0.85780  0.34040  0.78700  Biso   1.000  H
  C102     1.0000 0.77382  0.33620  0.83960  Biso   1.000  C
  C103     1.0000 0.75421  0.59040  0.58630  Biso   1.000  C
  C104     1.0000 0.90732  0.42180  0.66190  Biso   1.000  C
  C105     1.0000 0.93635  0.49470  0.63890  Biso   1.000  C
  H49      1.0000 0.92580  0.55560  0.63990  Biso   1.000  H
  C106     1.0000 0.97990  0.47670  0.61530  Biso   1.000  C
  H50      1.0000 0.99890  0.52610  0.60280  Biso   1.000  H
  C107     1.0000 0.99683  0.38490  0.60930  Biso   1.000  C
  C108     1.0000 0.03947  0.36430  0.57540  Biso   1.000  C
  H51      1.0000 0.05850  0.41250  0.55960  Biso   1.000  H
  C109     1.0000 0.05314  0.27430  0.56550  Biso   1.000  C
  C110     1.0000 0.02530  0.20120  0.59240  Biso   1.000  C
  H52      1.0000 0.03520  0.14010  0.58780  Biso   1.000  H
  C111     1.0000 0.98360  0.21920  0.62530  Biso   1.000  C
  H53      1.0000 0.96550  0.17040  0.64290  Biso   1.000  H
  C112     1.0000 0.96810  0.31190  0.63280  Biso   1.000  C
  C113     1.0000 0.92387  0.33280  0.66030  Biso   1.000  C
  H54      1.0000 0.90550  0.28450  0.67790  Biso   1.000  H
  C114     1.0000 0.09750  0.25230  0.52520  Biso   1.000  C
  O31      1.0000 0.80025  0.27400  0.87970  Biso   1.000  O
  O32      1.0000 0.73281  0.35210  0.85380  Biso   1.000  O
  O33      1.0000 0.71099  0.57740  0.56770  Biso   1.000  O
  O34      1.0000 0.77320  0.66160  0.55540  Biso   1.000  O
  O35      1.0000 0.11345  0.17070  0.53410  Biso   1.000  O
  O36      1.0000 0.11741  0.31410  0.48280  Biso   1.000  O
  Tb7      1.0000 0.31708  0.70671  0.03688  Biso   1.000  Tb
  C115     1.0000 0.70690  0.89580  0.73610  Biso   1.000  C
  C116     1.0000 0.73460  0.96210  0.79040  Biso   1.000  C
  H55      1.0000 0.76600  0.96850  0.78300  Biso   1.000  H
  C117     1.0000 0.71557  0.01870  0.85550  Biso   1.000  C
  C118     1.0000 0.66891  0.00820  0.86860  Biso   1.000  C
  H56      1.0000 0.65640  0.04690  0.91230  Biso   1.000  H
  C119     1.0000 0.64053  0.94000  0.81670  Biso   1.000  C
  C120     1.0000 0.66053  0.88510  0.74950  Biso   1.000  C
  H57      1.0000 0.64220  0.84040  0.71300  Biso   1.000  H
  C121     1.0000 0.72618  0.83620  0.66040  Biso   1.000  C
  C122     1.0000 0.74579  0.09040  0.91370  Biso   1.000  C
  C123     1.0000 0.59268  0.92180  0.83810  Biso   1.000  C
  C124     1.0000 0.56365  0.99470  0.86110  Biso   1.000  C
  H58      1.0000 0.57420  0.05560  0.86010  Biso   1.000  H
  C125     1.0000 0.52010  0.97670  0.88470  Biso   1.000  C
  H59      1.0000 0.50110  0.02610  0.89720  Biso   1.000  H
  C126     1.0000 0.50317  0.88490  0.89070  Biso   1.000  C
  C127     1.0000 0.46053  0.86430  0.92460  Biso   1.000  C
  H60      1.0000 0.44150  0.91250  0.94040  Biso   1.000  H
  C128     1.0000 0.44686  0.77430  0.93450  Biso   1.000  C
  C129     1.0000 0.47470  0.70120  0.90760  Biso   1.000  C
  H61      1.0000 0.46480  0.64010  0.91220  Biso   1.000  H
  C130     1.0000 0.51640  0.71920  0.87470  Biso   1.000  C
  H62      1.0000 0.53450  0.67040  0.85710  Biso   1.000  H
  C131     1.0000 0.53190  0.81190  0.86720  Biso   1.000  C
  C132     1.0000 0.57613  0.83280  0.83970  Biso   1.000  C
  H63      1.0000 0.59450  0.78450  0.82210  Biso   1.000  H
  C133     1.0000 0.40250  0.75230  0.97480  Biso   1.000  C
  O37      1.0000 0.69975  0.77400  0.62030  Biso   1.000  O
  O38      1.0000 0.76719  0.85210  0.64620  Biso   1.000  O
  O39      1.0000 0.78901  0.07740  0.93230  Biso   1.000  O
  O40      1.0000 0.72680  0.16160  0.94460  Biso   1.000  O
  O41      1.0000 0.38655  0.67070  0.96590  Biso   1.000  O
  O42      1.0000 0.38259  0.81410  0.01720  Biso   1.000  O
  Tb8      1.0000 0.81708  0.20671  0.03688  Biso   1.000  Tb
  C134     1.0000 0.20690  0.39580  0.73610  Biso   1.000  C
  C135     1.0000 0.23460  0.46210  0.79040  Biso   1.000  C
  H64      1.0000 0.26600  0.46850  0.78300  Biso   1.000  H
  C136     1.0000 0.21557  0.51870  0.85550  Biso   1.000  C
  C137     1.0000 0.16891  0.50820  0.86860  Biso   1.000  C
  H65      1.0000 0.15640  0.54690  0.91230  Biso   1.000  H
  C138     1.0000 0.14053  0.44000  0.81670  Biso   1.000  C
  C139     1.0000 0.16053  0.38510  0.74950  Biso   1.000  C
  H66      1.0000 0.14220  0.34040  0.71300  Biso   1.000  H
  C140     1.0000 0.22618  0.33620  0.66040  Biso   1.000  C
  C141     1.0000 0.24579  0.59040  0.91370  Biso   1.000  C
  C142     1.0000 0.09268  0.42180  0.83810  Biso   1.000  C
  C143     1.0000 0.06365  0.49470  0.86110  Biso   1.000  C
  H67      1.0000 0.07420  0.55560  0.86010  Biso   1.000  H
  C144     1.0000 0.02010  0.47670  0.88470  Biso   1.000  C
  H68      1.0000 0.00110  0.52610  0.89720  Biso   1.000  H
  C145     1.0000 0.00317  0.38490  0.89070  Biso   1.000  C
  C146     1.0000 0.96053  0.36430  0.92460  Biso   1.000  C
  H69      1.0000 0.94150  0.41250  0.94040  Biso   1.000  H
  C147     1.0000 0.94686  0.27430  0.93450  Biso   1.000  C
  C148     1.0000 0.97470  0.20120  0.90760  Biso   1.000  C
  H70      1.0000 0.96480  0.14010  0.91220  Biso   1.000  H
  C149     1.0000 0.01640  0.21920  0.87470  Biso   1.000  C
  H71      1.0000 0.03450  0.17040  0.85710  Biso   1.000  H
  C150     1.0000 0.03190  0.31190  0.86720  Biso   1.000  C
  C151     1.0000 0.07613  0.33280  0.83970  Biso   1.000  C
  H72      1.0000 0.09450  0.28450  0.82210  Biso   1.000  H
  C152     1.0000 0.90250  0.25230  0.97480  Biso   1.000  C
  O43      1.0000 0.19975  0.27400  0.62030  Biso   1.000  O
  O44      1.0000 0.26719  0.35210  0.64620  Biso   1.000  O
  O45      1.0000 0.28901  0.57740  0.93230  Biso   1.000  O
  O46      1.0000 0.22680  0.66160  0.94460  Biso   1.000  O
  O47      1.0000 0.88655  0.17070  0.96590  Biso   1.000  O
  O48      1.0000 0.88259  0.31410  0.01720  Biso   1.000  O
