data_NAKNUK_clean
_audit_creation_date              2014-07-02
_audit_creation_method            'Materials Studio'
_symmetry_space_group_name_H-M    'P1'
_symmetry_Int_Tables_number       1
_symmetry_cell_setting            triclinic
loop_
_symmetry_equiv_pos_as_xyz
  x,y,z
_cell_length_a                    9.8939
_cell_length_b                    18.4662
_cell_length_c                    18.5290
_cell_angle_alpha                 90.0000
_cell_angle_beta                  90.0000
_cell_angle_gamma                 90.0000
loop_
_atom_site_label
_atom_site_type_symbol
_atom_site_fract_x
_atom_site_fract_y
_atom_site_fract_z
_atom_site_U_iso_or_equiv
_atom_site_adp_type
_atom_site_occupancy
Tb1    Tb    0.80144   0.12101   0.23050   0.01267  Uiso   1.00
Tb2    Tb    0.30144   0.87899   0.76950   0.01267  Uiso   1.00
Tb3    Tb    0.80144   0.62101   0.26950   0.01267  Uiso   1.00
Tb4    Tb    0.30144   0.37899   0.73050   0.01267  Uiso   1.00
Na1    Na    0.09718   0.15729   0.91611   0.01267  Uiso   1.00
Na2    Na    0.59718   0.84271   0.08389   0.01267  Uiso   1.00
Na3    Na    0.09718   0.65729   0.58389   0.01267  Uiso   1.00
Na4    Na    0.59718   0.34271   0.41611   0.01267  Uiso   1.00
H1     H     0.02090   0.42060   0.13050   0.01267  Uiso   1.00
H2     H     0.95880   0.40550   0.24900   0.01267  Uiso   1.00
H3     H     0.87730   0.29530   0.28620   0.01267  Uiso   1.00
H4     H     0.10680   0.31140   0.01100   0.01267  Uiso   1.00
H5     H     0.95430   0.30890   0.98810   0.01267  Uiso   1.00
H6     H     0.02110   0.38280   0.00960   0.01267  Uiso   1.00
H7     H     0.36870   0.97670   0.21870   0.01267  Uiso   1.00
H8     H     0.22850   0.96340   0.12170   0.01267  Uiso   1.00
H9     H     0.01610   0.01610   0.12480   0.01267  Uiso   1.00
H10    H     0.32320   0.00770   0.37890   0.01267  Uiso   1.00
H11    H     0.43100   0.04120   0.32660   0.01267  Uiso   1.00
H12    H     0.32570   0.09150   0.36510   0.01267  Uiso   1.00
H13    H     0.60830   0.89930   0.46090   0.01267  Uiso   1.00
H14    H     0.70850   0.00460   0.49810   0.01267  Uiso   1.00
H15    H     0.78430   0.08670   0.41220   0.01267  Uiso   1.00
H16    H     0.61650   0.82030   0.29930   0.01267  Uiso   1.00
H17    H     0.54210   0.81800   0.37400   0.01267  Uiso   1.00
H18    H     0.47470   0.85720   0.30810   0.01267  Uiso   1.00
H19    H     0.21570   0.19520   0.13370   0.01267  Uiso   1.00
H20    H     0.35140   0.12750   0.05830   0.01267  Uiso   1.00
H21    H     0.56660   0.09660   0.09650   0.01267  Uiso   1.00
H22    H     0.16850   0.25200   0.24210   0.01267  Uiso   1.00
H23    H     0.25090   0.22660   0.30980   0.01267  Uiso   1.00
H24    H     0.29250   0.29750   0.26880   0.01267  Uiso   1.00
H25    H     0.52090   0.57940   0.86950   0.01267  Uiso   1.00
H26    H     0.45880   0.59450   0.75100   0.01267  Uiso   1.00
H27    H     0.37730   0.70470   0.71380   0.01267  Uiso   1.00
H28    H     0.60680   0.68860   0.98900   0.01267  Uiso   1.00
H29    H     0.45430   0.69110   0.01190   0.01267  Uiso   1.00
H30    H     0.52110   0.61720   0.99040   0.01267  Uiso   1.00
H31    H     0.86870   0.02330   0.78130   0.01267  Uiso   1.00
H32    H     0.72850   0.03660   0.87830   0.01267  Uiso   1.00
H33    H     0.51610   0.98390   0.87520   0.01267  Uiso   1.00
H34    H     0.82320   0.99230   0.62110   0.01267  Uiso   1.00
H35    H     0.93100   0.95880   0.67340   0.01267  Uiso   1.00
H36    H     0.82570   0.90850   0.63490   0.01267  Uiso   1.00
H37    H     0.10830   0.10070   0.53910   0.01267  Uiso   1.00
H38    H     0.20850   0.99540   0.50190   0.01267  Uiso   1.00
H39    H     0.28430   0.91330   0.58780   0.01267  Uiso   1.00
H40    H     0.11650   0.17970   0.70070   0.01267  Uiso   1.00
H41    H     0.04210   0.18200   0.62600   0.01267  Uiso   1.00
H42    H     0.97470   0.14280   0.69190   0.01267  Uiso   1.00
H43    H     0.71570   0.80480   0.86630   0.01267  Uiso   1.00
H44    H     0.85140   0.87250   0.94170   0.01267  Uiso   1.00
H45    H     0.06660   0.90340   0.90350   0.01267  Uiso   1.00
H46    H     0.66850   0.74800   0.75790   0.01267  Uiso   1.00
H47    H     0.75090   0.77340   0.69020   0.01267  Uiso   1.00
H48    H     0.79250   0.70250   0.73120   0.01267  Uiso   1.00
H49    H     0.02090   0.92060   0.36950   0.01267  Uiso   1.00
H50    H     0.95880   0.90550   0.25100   0.01267  Uiso   1.00
H51    H     0.87730   0.79530   0.21380   0.01267  Uiso   1.00
H52    H     0.10680   0.81140   0.48900   0.01267  Uiso   1.00
H53    H     0.95430   0.80890   0.51190   0.01267  Uiso   1.00
H54    H     0.02110   0.88280   0.49040   0.01267  Uiso   1.00
H55    H     0.36870   0.47670   0.28130   0.01267  Uiso   1.00
H56    H     0.22850   0.46340   0.37830   0.01267  Uiso   1.00
H57    H     0.01610   0.51610   0.37520   0.01267  Uiso   1.00
H58    H     0.32320   0.50770   0.12110   0.01267  Uiso   1.00
H59    H     0.43100   0.54120   0.17340   0.01267  Uiso   1.00
H60    H     0.32570   0.59150   0.13490   0.01267  Uiso   1.00
H61    H     0.60830   0.39930   0.03910   0.01267  Uiso   1.00
H62    H     0.70850   0.50460   0.00190   0.01267  Uiso   1.00
H63    H     0.78430   0.58670   0.08780   0.01267  Uiso   1.00
H64    H     0.61650   0.32030   0.20070   0.01267  Uiso   1.00
H65    H     0.54210   0.31800   0.12600   0.01267  Uiso   1.00
H66    H     0.47470   0.35720   0.19190   0.01267  Uiso   1.00
H67    H     0.21570   0.69520   0.36630   0.01267  Uiso   1.00
H68    H     0.35140   0.62750   0.44170   0.01267  Uiso   1.00
H69    H     0.56660   0.59660   0.40350   0.01267  Uiso   1.00
H70    H     0.16850   0.75200   0.25790   0.01267  Uiso   1.00
H71    H     0.25090   0.72660   0.19020   0.01267  Uiso   1.00
H72    H     0.29250   0.79750   0.23120   0.01267  Uiso   1.00
H73    H     0.52090   0.07940   0.63050   0.01267  Uiso   1.00
H74    H     0.45880   0.09450   0.74900   0.01267  Uiso   1.00
H75    H     0.37730   0.20470   0.78620   0.01267  Uiso   1.00
H76    H     0.60680   0.18860   0.51100   0.01267  Uiso   1.00
H77    H     0.45430   0.19110   0.48810   0.01267  Uiso   1.00
H78    H     0.52110   0.11720   0.50960   0.01267  Uiso   1.00
H79    H     0.86870   0.52330   0.71870   0.01267  Uiso   1.00
H80    H     0.72850   0.53660   0.62170   0.01267  Uiso   1.00
H81    H     0.51610   0.48390   0.62480   0.01267  Uiso   1.00
H82    H     0.82320   0.49230   0.87890   0.01267  Uiso   1.00
H83    H     0.93100   0.45880   0.82660   0.01267  Uiso   1.00
H84    H     0.82570   0.40850   0.86510   0.01267  Uiso   1.00
H85    H     0.10830   0.60070   0.96090   0.01267  Uiso   1.00
H86    H     0.20850   0.49540   0.99810   0.01267  Uiso   1.00
H87    H     0.28430   0.41330   0.91220   0.01267  Uiso   1.00
H88    H     0.11650   0.67970   0.79930   0.01267  Uiso   1.00
H89    H     0.04210   0.68200   0.87400   0.01267  Uiso   1.00
H90    H     0.97470   0.64280   0.80810   0.01267  Uiso   1.00
H91    H     0.71570   0.30480   0.63370   0.01267  Uiso   1.00
H92    H     0.85140   0.37250   0.55830   0.01267  Uiso   1.00
H93    H     0.06660   0.40340   0.59650   0.01267  Uiso   1.00
H94    H     0.66850   0.24800   0.74210   0.01267  Uiso   1.00
H95    H     0.75090   0.27340   0.80980   0.01267  Uiso   1.00
H96    H     0.79250   0.20250   0.76880   0.01267  Uiso   1.00
C1     C     0.93020   0.25353   0.12393   0.01267  Uiso   1.00
C2     C     0.97860   0.31937   0.09694   0.01267  Uiso   1.00
C3     C     0.98840   0.37591   0.14600   0.01267  Uiso   1.00
C4     C     0.95130   0.36732   0.21640   0.01267  Uiso   1.00
C5     C     0.90280   0.30123   0.23826   0.01267  Uiso   1.00
C6     C     0.91840   0.18399   0.08016   0.01267  Uiso   1.00
C7     C     0.01890   0.33180   0.01940   0.01267  Uiso   1.00
C8     C     0.11360   0.06556   0.27945   0.01267  Uiso   1.00
C9     C     0.24420   0.03540   0.28159   0.01267  Uiso   1.00
C10    C     0.28300   0.99740   0.22011   0.01267  Uiso   1.00
C11    C     0.20050   0.98937   0.16200   0.01267  Uiso   1.00
C12    C     0.07330   0.02101   0.16434   0.01267  Uiso   1.00
C13    C     0.05240   0.10893   0.34009   0.01267  Uiso   1.00
C14    C     0.33960   0.04480   0.34360   0.01267  Uiso   1.00
C15    C     0.67640   0.96739   0.30461   0.01267  Uiso   1.00
C16    C     0.62620   0.91578   0.35301   0.01267  Uiso   1.00
C17    C     0.64010   0.93206   0.42674   0.01267  Uiso   1.00
C18    C     0.69910   0.99460   0.44917   0.01267  Uiso   1.00
C19    C     0.74510   0.04336   0.39735   0.01267  Uiso   1.00
C20    C     0.67250   0.95870   0.22324   0.01267  Uiso   1.00
C21    C     0.55890   0.84670   0.33171   0.01267  Uiso   1.00
C22    C     0.48160   0.18708   0.23357   0.01267  Uiso   1.00
C23    C     0.34880   0.20597   0.21526   0.01267  Uiso   1.00
C24    C     0.30270   0.18300   0.14828   0.01267  Uiso   1.00
C25    C     0.38290   0.14255   0.10310   0.01267  Uiso   1.00
C26    C     0.51200   0.12486   0.12606   0.01267  Uiso   1.00
C27    C     0.55240   0.21272   0.30201   0.01267  Uiso   1.00
C28    C     0.25690   0.24940   0.26330   0.01267  Uiso   1.00
C29    C     0.43020   0.74647   0.87607   0.01267  Uiso   1.00
C30    C     0.47860   0.68063   0.90306   0.01267  Uiso   1.00
C31    C     0.48840   0.62409   0.85400   0.01267  Uiso   1.00
C32    C     0.45130   0.63268   0.78360   0.01267  Uiso   1.00
C33    C     0.40280   0.69877   0.76174   0.01267  Uiso   1.00
C34    C     0.41840   0.81601   0.91984   0.01267  Uiso   1.00
C35    C     0.51890   0.66820   0.98060   0.01267  Uiso   1.00
C36    C     0.61360   0.93444   0.72055   0.01267  Uiso   1.00
C37    C     0.74420   0.96460   0.71841   0.01267  Uiso   1.00
C38    C     0.78300   0.00260   0.77989   0.01267  Uiso   1.00
C39    C     0.70050   0.01063   0.83800   0.01267  Uiso   1.00
C40    C     0.57330   0.97899   0.83566   0.01267  Uiso   1.00
C41    C     0.55240   0.89107   0.65991   0.01267  Uiso   1.00
C42    C     0.83960   0.95520   0.65640   0.01267  Uiso   1.00
C43    C     0.17640   0.03261   0.69539   0.01267  Uiso   1.00
C44    C     0.12620   0.08422   0.64699   0.01267  Uiso   1.00
C45    C     0.14010   0.06794   0.57326   0.01267  Uiso   1.00
C46    C     0.19910   0.00540   0.55083   0.01267  Uiso   1.00
C47    C     0.24510   0.95664   0.60265   0.01267  Uiso   1.00
C48    C     0.17250   0.04130   0.77676   0.01267  Uiso   1.00
C49    C     0.05890   0.15330   0.66829   0.01267  Uiso   1.00
C50    C     0.98160   0.81292   0.76643   0.01267  Uiso   1.00
C51    C     0.84880   0.79403   0.78474   0.01267  Uiso   1.00
C52    C     0.80270   0.81700   0.85172   0.01267  Uiso   1.00
C53    C     0.88290   0.85745   0.89690   0.01267  Uiso   1.00
C54    C     0.01200   0.87514   0.87394   0.01267  Uiso   1.00
C55    C     0.05240   0.78728   0.69799   0.01267  Uiso   1.00
C56    C     0.75690   0.75060   0.73670   0.01267  Uiso   1.00
C57    C     0.93020   0.75353   0.37607   0.01267  Uiso   1.00
C58    C     0.97860   0.81937   0.40306   0.01267  Uiso   1.00
C59    C     0.98840   0.87591   0.35400   0.01267  Uiso   1.00
C60    C     0.95130   0.86732   0.28360   0.01267  Uiso   1.00
C61    C     0.90280   0.80123   0.26174   0.01267  Uiso   1.00
C62    C     0.91840   0.68399   0.41984   0.01267  Uiso   1.00
C63    C     0.01890   0.83180   0.48060   0.01267  Uiso   1.00
C64    C     0.11360   0.56556   0.22055   0.01267  Uiso   1.00
C65    C     0.24420   0.53540   0.21841   0.01267  Uiso   1.00
C66    C     0.28300   0.49740   0.27989   0.01267  Uiso   1.00
C67    C     0.20050   0.48937   0.33800   0.01267  Uiso   1.00
C68    C     0.07330   0.52101   0.33566   0.01267  Uiso   1.00
C69    C     0.05240   0.60893   0.15991   0.01267  Uiso   1.00
C70    C     0.33960   0.54480   0.15640   0.01267  Uiso   1.00
C71    C     0.67640   0.46739   0.19539   0.01267  Uiso   1.00
C72    C     0.62620   0.41578   0.14699   0.01267  Uiso   1.00
C73    C     0.64010   0.43206   0.07326   0.01267  Uiso   1.00
C74    C     0.69910   0.49460   0.05083   0.01267  Uiso   1.00
C75    C     0.74510   0.54336   0.10265   0.01267  Uiso   1.00
C76    C     0.67250   0.45870   0.27676   0.01267  Uiso   1.00
C77    C     0.55890   0.34670   0.16829   0.01267  Uiso   1.00
C78    C     0.48160   0.68708   0.26643   0.01267  Uiso   1.00
C79    C     0.34880   0.70597   0.28474   0.01267  Uiso   1.00
C80    C     0.30270   0.68300   0.35172   0.01267  Uiso   1.00
C81    C     0.38290   0.64255   0.39690   0.01267  Uiso   1.00
C82    C     0.51200   0.62486   0.37394   0.01267  Uiso   1.00
C83    C     0.55240   0.71272   0.19799   0.01267  Uiso   1.00
C84    C     0.25690   0.74940   0.23670   0.01267  Uiso   1.00
C85    C     0.43020   0.24647   0.62393   0.01267  Uiso   1.00
C86    C     0.47860   0.18063   0.59694   0.01267  Uiso   1.00
C87    C     0.48840   0.12409   0.64600   0.01267  Uiso   1.00
C88    C     0.45130   0.13268   0.71640   0.01267  Uiso   1.00
C89    C     0.40280   0.19877   0.73826   0.01267  Uiso   1.00
C90    C     0.41840   0.31601   0.58016   0.01267  Uiso   1.00
C91    C     0.51890   0.16820   0.51940   0.01267  Uiso   1.00
C92    C     0.61360   0.43444   0.77945   0.01267  Uiso   1.00
C93    C     0.74420   0.46460   0.78159   0.01267  Uiso   1.00
C94    C     0.78300   0.50260   0.72011   0.01267  Uiso   1.00
C95    C     0.70050   0.51063   0.66200   0.01267  Uiso   1.00
C96    C     0.57330   0.47899   0.66434   0.01267  Uiso   1.00
C97    C     0.55240   0.39107   0.84009   0.01267  Uiso   1.00
C98    C     0.83960   0.45520   0.84360   0.01267  Uiso   1.00
C99    C     0.17640   0.53261   0.80461   0.01267  Uiso   1.00
C100   C     0.12620   0.58422   0.85301   0.01267  Uiso   1.00
C101   C     0.14010   0.56794   0.92674   0.01267  Uiso   1.00
C102   C     0.19910   0.50540   0.94917   0.01267  Uiso   1.00
C103   C     0.24510   0.45664   0.89735   0.01267  Uiso   1.00
C104   C     0.17250   0.54130   0.72324   0.01267  Uiso   1.00
C105   C     0.05890   0.65330   0.83171   0.01267  Uiso   1.00
C106   C     0.98160   0.31292   0.73357   0.01267  Uiso   1.00
C107   C     0.84880   0.29403   0.71526   0.01267  Uiso   1.00
C108   C     0.80270   0.31700   0.64828   0.01267  Uiso   1.00
C109   C     0.88290   0.35745   0.60310   0.01267  Uiso   1.00
C110   C     0.01200   0.37514   0.62606   0.01267  Uiso   1.00
C111   C     0.05240   0.28728   0.80201   0.01267  Uiso   1.00
C112   C     0.75690   0.25060   0.76330   0.01267  Uiso   1.00
N1     N     0.89100   0.24516   0.19326   0.01267  Uiso   1.00
N2     N     0.03070   0.05821   0.22157   0.01267  Uiso   1.00
N3     N     0.73430   0.02938   0.32645   0.01267  Uiso   1.00
N4     N     0.56010   0.14743   0.18975   0.01267  Uiso   1.00
N5     N     0.39100   0.75484   0.80674   0.01267  Uiso   1.00
N6     N     0.53070   0.94179   0.77843   0.01267  Uiso   1.00
N7     N     0.23430   0.97062   0.67355   0.01267  Uiso   1.00
N8     N     0.06010   0.85257   0.81025   0.01267  Uiso   1.00
N9     N     0.89100   0.74516   0.30674   0.01267  Uiso   1.00
N10    N     0.03070   0.55821   0.27843   0.01267  Uiso   1.00
N11    N     0.73430   0.52938   0.17355   0.01267  Uiso   1.00
N12    N     0.56010   0.64743   0.31025   0.01267  Uiso   1.00
N13    N     0.39100   0.25484   0.69326   0.01267  Uiso   1.00
N14    N     0.53070   0.44179   0.72157   0.01267  Uiso   1.00
N15    N     0.23430   0.47062   0.82645   0.01267  Uiso   1.00
N16    N     0.06010   0.35257   0.68975   0.01267  Uiso   1.00
O1     O     0.84840   0.13348   0.10871   0.01267  Uiso   1.00
O2     O     0.97590   0.17933   0.02129   0.01267  Uiso   1.00
O3     O     0.94850   0.14655   0.32338   0.01267  Uiso   1.00
O4     O     0.10120   0.10538   0.40079   0.01267  Uiso   1.00
O5     O     0.73190   0.00884   0.18713   0.01267  Uiso   1.00
O6     O     0.61540   0.90635   0.19580   0.01267  Uiso   1.00
O7     O     0.67570   0.19188   0.30738   0.01267  Uiso   1.00
O8     O     0.49370   0.25033   0.34623   0.01267  Uiso   1.00
O9     O     0.34840   0.86652   0.89129   0.01267  Uiso   1.00
O10    O     0.47590   0.82067   0.97871   0.01267  Uiso   1.00
O11    O     0.44850   0.85345   0.67662   0.01267  Uiso   1.00
O12    O     0.60120   0.89462   0.59921   0.01267  Uiso   1.00
O13    O     0.23190   0.99116   0.81287   0.01267  Uiso   1.00
O14    O     0.11540   0.09365   0.80420   0.01267  Uiso   1.00
O15    O     0.17570   0.80812   0.69262   0.01267  Uiso   1.00
O16    O     0.99370   0.74967   0.65377   0.01267  Uiso   1.00
O17    O     0.84840   0.63348   0.39129   0.01267  Uiso   1.00
O18    O     0.97590   0.67933   0.47871   0.01267  Uiso   1.00
O19    O     0.94850   0.64655   0.17662   0.01267  Uiso   1.00
O20    O     0.10120   0.60538   0.09921   0.01267  Uiso   1.00
O21    O     0.73190   0.50884   0.31287   0.01267  Uiso   1.00
O22    O     0.61540   0.40635   0.30420   0.01267  Uiso   1.00
O23    O     0.67570   0.69188   0.19262   0.01267  Uiso   1.00
O24    O     0.49370   0.75033   0.15377   0.01267  Uiso   1.00
O25    O     0.34840   0.36652   0.60871   0.01267  Uiso   1.00
O26    O     0.47590   0.32067   0.52129   0.01267  Uiso   1.00
O27    O     0.44850   0.35345   0.82338   0.01267  Uiso   1.00
O28    O     0.60120   0.39462   0.90079   0.01267  Uiso   1.00
O29    O     0.23190   0.49116   0.68713   0.01267  Uiso   1.00
O30    O     0.11540   0.59365   0.69580   0.01267  Uiso   1.00
O31    O     0.17570   0.30812   0.80738   0.01267  Uiso   1.00
O32    O     0.99370   0.24967   0.84623   0.01267  Uiso   1.00
