data_NALYEG_clean
_audit_creation_date              2014-07-02
_audit_creation_method            'Materials Studio'
_symmetry_space_group_name_H-M    'P1'
_symmetry_Int_Tables_number       1
_symmetry_cell_setting            triclinic
loop_
_symmetry_equiv_pos_as_xyz
  x,y,z
_cell_length_a                    9.7736
_cell_length_b                    18.3539
_cell_length_c                    18.3539
_cell_angle_alpha                 120.0000
_cell_angle_beta                  90.0000
_cell_angle_gamma                 90.0000
loop_
_atom_site_label
_atom_site_type_symbol
_atom_site_fract_x
_atom_site_fract_y
_atom_site_fract_z
_atom_site_U_iso_or_equiv
_atom_site_adp_type
_atom_site_occupancy
U1     U     0.75000   0.64292   0.44095   0.01267  Uiso   1.00
U2     U     0.75000   0.79803   0.35708   0.01267  Uiso   1.00
U3     U     0.75000   0.55905   0.20197   0.01267  Uiso   1.00
U4     U     0.25000   0.35708   0.55905   0.01267  Uiso   1.00
U5     U     0.25000   0.20197   0.64292   0.01267  Uiso   1.00
U6     U     0.25000   0.44095   0.79803   0.01267  Uiso   1.00
H1     H     0.04150   0.91590   0.51550   0.01267  Uiso   1.00
H2     H     0.04150   0.59960   0.08410   0.01267  Uiso   1.00
H3     H     0.04150   0.48450   0.40040   0.01267  Uiso   1.00
H4     H     0.54150   0.08410   0.48450   0.01267  Uiso   1.00
H5     H     0.54150   0.40040   0.91590   0.01267  Uiso   1.00
H6     H     0.54150   0.51550   0.59960   0.01267  Uiso   1.00
H7     H     0.95850   0.08410   0.48450   0.01267  Uiso   1.00
H8     H     0.95850   0.40040   0.91590   0.01267  Uiso   1.00
H9     H     0.95850   0.51550   0.59960   0.01267  Uiso   1.00
H10    H     0.45850   0.91590   0.51550   0.01267  Uiso   1.00
H11    H     0.45850   0.59960   0.08410   0.01267  Uiso   1.00
H12    H     0.45850   0.48450   0.40040   0.01267  Uiso   1.00
H13    H     0.25000   0.70700   0.46330   0.01267  Uiso   1.00
H14    H     0.25000   0.75630   0.29300   0.01267  Uiso   1.00
H15    H     0.25000   0.53670   0.24370   0.01267  Uiso   1.00
H16    H     0.75000   0.29300   0.53670   0.01267  Uiso   1.00
H17    H     0.75000   0.24370   0.70700   0.01267  Uiso   1.00
H18    H     0.75000   0.46330   0.75630   0.01267  Uiso   1.00
C1     C     0.12700   0.80470   0.48710   0.01267  Uiso   1.00
C2     C     0.12430   0.88890   0.51070   0.01267  Uiso   1.00
C3     C     0.99360   0.76020   0.47190   0.01267  Uiso   1.00
C4     C     0.12700   0.68240   0.19530   0.01267  Uiso   1.00
C5     C     0.12430   0.62180   0.11110   0.01267  Uiso   1.00
C6     C     0.99360   0.71170   0.23980   0.01267  Uiso   1.00
C7     C     0.12700   0.51290   0.31760   0.01267  Uiso   1.00
C8     C     0.12430   0.48930   0.37820   0.01267  Uiso   1.00
C9     C     0.99360   0.52810   0.28830   0.01267  Uiso   1.00
C10    C     0.62700   0.19530   0.51290   0.01267  Uiso   1.00
C11    C     0.62430   0.11110   0.48930   0.01267  Uiso   1.00
C12    C     0.49360   0.23980   0.52810   0.01267  Uiso   1.00
C13    C     0.62700   0.31760   0.80470   0.01267  Uiso   1.00
C14    C     0.62430   0.37820   0.88890   0.01267  Uiso   1.00
C15    C     0.49360   0.28830   0.76020   0.01267  Uiso   1.00
C16    C     0.62700   0.48710   0.68240   0.01267  Uiso   1.00
C17    C     0.62430   0.51070   0.62180   0.01267  Uiso   1.00
C18    C     0.49360   0.47190   0.71170   0.01267  Uiso   1.00
C19    C     0.87300   0.19530   0.51290   0.01267  Uiso   1.00
C20    C     0.87570   0.11110   0.48930   0.01267  Uiso   1.00
C21    C     0.00640   0.23980   0.52810   0.01267  Uiso   1.00
C22    C     0.87300   0.31760   0.80470   0.01267  Uiso   1.00
C23    C     0.87570   0.37820   0.88890   0.01267  Uiso   1.00
C24    C     0.00640   0.28830   0.76020   0.01267  Uiso   1.00
C25    C     0.87300   0.48710   0.68240   0.01267  Uiso   1.00
C26    C     0.87570   0.51070   0.62180   0.01267  Uiso   1.00
C27    C     0.00640   0.47190   0.71170   0.01267  Uiso   1.00
C28    C     0.37300   0.80470   0.48710   0.01267  Uiso   1.00
C29    C     0.37570   0.88890   0.51070   0.01267  Uiso   1.00
C30    C     0.50640   0.76020   0.47190   0.01267  Uiso   1.00
C31    C     0.37300   0.68240   0.19530   0.01267  Uiso   1.00
C32    C     0.37570   0.62180   0.11110   0.01267  Uiso   1.00
C33    C     0.50640   0.71170   0.23980   0.01267  Uiso   1.00
C34    C     0.37300   0.51290   0.31760   0.01267  Uiso   1.00
C35    C     0.37570   0.48930   0.37820   0.01267  Uiso   1.00
C36    C     0.50640   0.52810   0.28830   0.01267  Uiso   1.00
C37    C     0.25000   0.93370   0.52760   0.01267  Uiso   1.00
C38    C     0.25000   0.76310   0.47700   0.01267  Uiso   1.00
C39    C     0.25000   0.02560   0.55820   0.01267  Uiso   1.00
C40    C     0.25000   0.59390   0.06630   0.01267  Uiso   1.00
C41    C     0.25000   0.71390   0.23690   0.01267  Uiso   1.00
C42    C     0.25000   0.53260   0.97440   0.01267  Uiso   1.00
C43    C     0.25000   0.47240   0.40610   0.01267  Uiso   1.00
C44    C     0.25000   0.52300   0.28610   0.01267  Uiso   1.00
C45    C     0.25000   0.44180   0.46740   0.01267  Uiso   1.00
C46    C     0.75000   0.06630   0.47240   0.01267  Uiso   1.00
C47    C     0.75000   0.23690   0.52300   0.01267  Uiso   1.00
C48    C     0.75000   0.97440   0.44180   0.01267  Uiso   1.00
C49    C     0.75000   0.40610   0.93370   0.01267  Uiso   1.00
C50    C     0.75000   0.28610   0.76310   0.01267  Uiso   1.00
C51    C     0.75000   0.46740   0.02560   0.01267  Uiso   1.00
C52    C     0.75000   0.52760   0.59390   0.01267  Uiso   1.00
C53    C     0.75000   0.47700   0.71390   0.01267  Uiso   1.00
C54    C     0.75000   0.55820   0.53260   0.01267  Uiso   1.00
O1     O     0.99130   0.68800   0.46180   0.01267  Uiso   1.00
O2     O     0.36200   0.06500   0.57100   0.01267  Uiso   1.00
O3     O     0.88400   0.79620   0.46700   0.01267  Uiso   1.00
O4     O     0.99130   0.77380   0.31200   0.01267  Uiso   1.00
O5     O     0.36200   0.50600   0.93500   0.01267  Uiso   1.00
O6     O     0.88400   0.67080   0.20380   0.01267  Uiso   1.00
O7     O     0.99130   0.53820   0.22620   0.01267  Uiso   1.00
O8     O     0.36200   0.42900   0.49400   0.01267  Uiso   1.00
O9     O     0.88400   0.53300   0.32920   0.01267  Uiso   1.00
O10    O     0.49130   0.31200   0.53820   0.01267  Uiso   1.00
O11    O     0.86200   0.93500   0.42900   0.01267  Uiso   1.00
O12    O     0.38400   0.20380   0.53300   0.01267  Uiso   1.00
O13    O     0.49130   0.22620   0.68800   0.01267  Uiso   1.00
O14    O     0.86200   0.49400   0.06500   0.01267  Uiso   1.00
O15    O     0.38400   0.32920   0.79620   0.01267  Uiso   1.00
O16    O     0.49130   0.46180   0.77380   0.01267  Uiso   1.00
O17    O     0.86200   0.57100   0.50600   0.01267  Uiso   1.00
O18    O     0.38400   0.46700   0.67080   0.01267  Uiso   1.00
O19    O     0.00870   0.31200   0.53820   0.01267  Uiso   1.00
O20    O     0.63800   0.93500   0.42900   0.01267  Uiso   1.00
O21    O     0.11600   0.20380   0.53300   0.01267  Uiso   1.00
O22    O     0.00870   0.22620   0.68800   0.01267  Uiso   1.00
O23    O     0.63800   0.49400   0.06500   0.01267  Uiso   1.00
O24    O     0.11600   0.32920   0.79620   0.01267  Uiso   1.00
O25    O     0.00870   0.46180   0.77380   0.01267  Uiso   1.00
O26    O     0.63800   0.57100   0.50600   0.01267  Uiso   1.00
O27    O     0.11600   0.46700   0.67080   0.01267  Uiso   1.00
O28    O     0.50870   0.68800   0.46180   0.01267  Uiso   1.00
O29    O     0.13800   0.06500   0.57100   0.01267  Uiso   1.00
O30    O     0.61600   0.79620   0.46700   0.01267  Uiso   1.00
O31    O     0.50870   0.77380   0.31200   0.01267  Uiso   1.00
O32    O     0.13800   0.50600   0.93500   0.01267  Uiso   1.00
O33    O     0.61600   0.67080   0.20380   0.01267  Uiso   1.00
O34    O     0.50870   0.53820   0.22620   0.01267  Uiso   1.00
O35    O     0.13800   0.42900   0.49400   0.01267  Uiso   1.00
O36    O     0.61600   0.53300   0.32920   0.01267  Uiso   1.00
O37    O     0.75000   0.66667   0.33334   0.01267  Uiso   1.00
O38    O     0.25000   0.33333   0.66666   0.01267  Uiso   1.00
