data_NANMEW_clean
_audit_creation_date              2014-07-02
_audit_creation_method            'Materials Studio'
_symmetry_space_group_name_H-M    'P1'
_symmetry_Int_Tables_number       1
_symmetry_cell_setting            triclinic
loop_
_symmetry_equiv_pos_as_xyz
  x,y,z
_cell_length_a                    15.1000
_cell_length_b                    15.6770
_cell_length_c                    15.6770
_cell_angle_alpha                 120.0000
_cell_angle_beta                  90.0000
_cell_angle_gamma                 90.0000
loop_
_atom_site_label
_atom_site_type_symbol
_atom_site_fract_x
_atom_site_fract_y
_atom_site_fract_z
_atom_site_U_iso_or_equiv
_atom_site_adp_type
_atom_site_occupancy
La1    La    0.75000   0.33333   0.66666   0.01267  Uiso   1.00
La2    La    0.75000   0.66667   0.33334   0.01267  Uiso   1.00
La3    La    0.25000   0.66667   0.33334   0.01267  Uiso   1.00
La4    La    0.25000   0.33333   0.66666   0.01267  Uiso   1.00
Mg1    Mg    0.00000   0.50000   0.00000   0.01267  Uiso   1.00
Mg2    Mg    0.00000   0.50000   0.50000   0.01267  Uiso   1.00
Mg3    Mg    0.00000   1.00000   0.50000   0.01267  Uiso   1.00
Mg4    Mg    0.50000   0.50000   0.00000   0.01267  Uiso   1.00
Mg5    Mg    0.50000   1.00000   0.50000   0.01267  Uiso   1.00
Mg6    Mg    0.50000   0.50000   0.50000   0.01267  Uiso   1.00
H1     H     0.84400   0.23500   0.94660   0.01267  Uiso   1.00
H2     H     0.84400   0.71160   0.76500   0.01267  Uiso   1.00
H3     H     0.84400   0.05340   0.28840   0.01267  Uiso   1.00
H4     H     0.84400   0.76500   0.05340   0.01267  Uiso   1.00
H5     H     0.84400   0.28840   0.23500   0.01267  Uiso   1.00
H6     H     0.84400   0.94660   0.71160   0.01267  Uiso   1.00
H7     H     0.65600   0.28840   0.05340   0.01267  Uiso   1.00
H8     H     0.65600   0.94660   0.23500   0.01267  Uiso   1.00
H9     H     0.65600   0.76500   0.71160   0.01267  Uiso   1.00
H10    H     0.65600   0.71160   0.94660   0.01267  Uiso   1.00
H11    H     0.65600   0.05340   0.76500   0.01267  Uiso   1.00
H12    H     0.65600   0.23500   0.28840   0.01267  Uiso   1.00
H13    H     0.15600   0.76500   0.05340   0.01267  Uiso   1.00
H14    H     0.15600   0.28840   0.23500   0.01267  Uiso   1.00
H15    H     0.15600   0.94660   0.71160   0.01267  Uiso   1.00
H16    H     0.15600   0.23500   0.94660   0.01267  Uiso   1.00
H17    H     0.15600   0.71160   0.76500   0.01267  Uiso   1.00
H18    H     0.15600   0.05340   0.28840   0.01267  Uiso   1.00
H19    H     0.34400   0.71160   0.94660   0.01267  Uiso   1.00
H20    H     0.34400   0.05340   0.76500   0.01267  Uiso   1.00
H21    H     0.34400   0.23500   0.28840   0.01267  Uiso   1.00
H22    H     0.34400   0.28840   0.05340   0.01267  Uiso   1.00
H23    H     0.34400   0.94660   0.23500   0.01267  Uiso   1.00
H24    H     0.34400   0.76500   0.71160   0.01267  Uiso   1.00
H25    H     0.75000   0.10100   0.89900   0.01267  Uiso   1.00
H26    H     0.75000   0.79800   0.89900   0.01267  Uiso   1.00
H27    H     0.75000   0.10100   0.20200   0.01267  Uiso   1.00
H28    H     0.75000   0.89900   0.10100   0.01267  Uiso   1.00
H29    H     0.75000   0.20200   0.10100   0.01267  Uiso   1.00
H30    H     0.75000   0.89900   0.79800   0.01267  Uiso   1.00
H31    H     0.25000   0.89900   0.10100   0.01267  Uiso   1.00
H32    H     0.25000   0.20200   0.10100   0.01267  Uiso   1.00
H33    H     0.25000   0.89900   0.79800   0.01267  Uiso   1.00
H34    H     0.25000   0.10100   0.89900   0.01267  Uiso   1.00
H35    H     0.25000   0.79800   0.89900   0.01267  Uiso   1.00
H36    H     0.25000   0.10100   0.20200   0.01267  Uiso   1.00
C1     C     0.80574   0.21511   0.89348   0.01267  Uiso   1.00
C2     C     0.80306   0.26469   0.84108   0.01267  Uiso   1.00
C3     C     0.86094   0.35256   0.86598   0.01267  Uiso   1.00
C4     C     0.80574   0.67837   0.78489   0.01267  Uiso   1.00
C5     C     0.80306   0.57639   0.73531   0.01267  Uiso   1.00
C6     C     0.86094   0.51342   0.64744   0.01267  Uiso   1.00
C7     C     0.80574   0.10652   0.32163   0.01267  Uiso   1.00
C8     C     0.80306   0.15892   0.42361   0.01267  Uiso   1.00
C9     C     0.86094   0.13402   0.48658   0.01267  Uiso   1.00
C10    C     0.80574   0.78489   0.10652   0.01267  Uiso   1.00
C11    C     0.80306   0.73531   0.15892   0.01267  Uiso   1.00
C12    C     0.86094   0.64744   0.13402   0.01267  Uiso   1.00
C13    C     0.80574   0.32163   0.21511   0.01267  Uiso   1.00
C14    C     0.80306   0.42361   0.26469   0.01267  Uiso   1.00
C15    C     0.86094   0.48658   0.35256   0.01267  Uiso   1.00
C16    C     0.80574   0.89348   0.67837   0.01267  Uiso   1.00
C17    C     0.80306   0.84108   0.57639   0.01267  Uiso   1.00
C18    C     0.86094   0.86598   0.51342   0.01267  Uiso   1.00
C19    C     0.69426   0.32163   0.10652   0.01267  Uiso   1.00
C20    C     0.69694   0.42361   0.15892   0.01267  Uiso   1.00
C21    C     0.63906   0.48658   0.13402   0.01267  Uiso   1.00
C22    C     0.69426   0.89348   0.21511   0.01267  Uiso   1.00
C23    C     0.69694   0.84108   0.26469   0.01267  Uiso   1.00
C24    C     0.63906   0.86598   0.35256   0.01267  Uiso   1.00
C25    C     0.69426   0.78489   0.67837   0.01267  Uiso   1.00
C26    C     0.69694   0.73531   0.57639   0.01267  Uiso   1.00
C27    C     0.63906   0.64744   0.51342   0.01267  Uiso   1.00
C28    C     0.69426   0.67837   0.89348   0.01267  Uiso   1.00
C29    C     0.69694   0.57639   0.84108   0.01267  Uiso   1.00
C30    C     0.63906   0.51342   0.86598   0.01267  Uiso   1.00
C31    C     0.69426   0.10652   0.78489   0.01267  Uiso   1.00
C32    C     0.69694   0.15892   0.73531   0.01267  Uiso   1.00
C33    C     0.63906   0.13402   0.64744   0.01267  Uiso   1.00
C34    C     0.69426   0.21511   0.32163   0.01267  Uiso   1.00
C35    C     0.69694   0.26469   0.42361   0.01267  Uiso   1.00
C36    C     0.63906   0.35256   0.48658   0.01267  Uiso   1.00
C37    C     0.19426   0.78489   0.10652   0.01267  Uiso   1.00
C38    C     0.19694   0.73531   0.15892   0.01267  Uiso   1.00
C39    C     0.13906   0.64744   0.13402   0.01267  Uiso   1.00
C40    C     0.19426   0.32163   0.21511   0.01267  Uiso   1.00
C41    C     0.19694   0.42361   0.26469   0.01267  Uiso   1.00
C42    C     0.13906   0.48658   0.35256   0.01267  Uiso   1.00
C43    C     0.19426   0.89348   0.67837   0.01267  Uiso   1.00
C44    C     0.19694   0.84108   0.57639   0.01267  Uiso   1.00
C45    C     0.13906   0.86598   0.51342   0.01267  Uiso   1.00
C46    C     0.19426   0.21511   0.89348   0.01267  Uiso   1.00
C47    C     0.19694   0.26469   0.84108   0.01267  Uiso   1.00
C48    C     0.13906   0.35256   0.86598   0.01267  Uiso   1.00
C49    C     0.19426   0.67837   0.78489   0.01267  Uiso   1.00
C50    C     0.19694   0.57639   0.73531   0.01267  Uiso   1.00
C51    C     0.13906   0.51342   0.64744   0.01267  Uiso   1.00
C52    C     0.19426   0.10652   0.32163   0.01267  Uiso   1.00
C53    C     0.19694   0.15892   0.42361   0.01267  Uiso   1.00
C54    C     0.13906   0.13402   0.48658   0.01267  Uiso   1.00
C55    C     0.30574   0.67837   0.89348   0.01267  Uiso   1.00
C56    C     0.30306   0.57639   0.84108   0.01267  Uiso   1.00
C57    C     0.36094   0.51342   0.86598   0.01267  Uiso   1.00
C58    C     0.30574   0.10652   0.78489   0.01267  Uiso   1.00
C59    C     0.30306   0.15892   0.73531   0.01267  Uiso   1.00
C60    C     0.36094   0.13402   0.64744   0.01267  Uiso   1.00
C61    C     0.30574   0.21511   0.32163   0.01267  Uiso   1.00
C62    C     0.30306   0.26469   0.42361   0.01267  Uiso   1.00
C63    C     0.36094   0.35256   0.48658   0.01267  Uiso   1.00
C64    C     0.30574   0.32163   0.10652   0.01267  Uiso   1.00
C65    C     0.30306   0.42361   0.15892   0.01267  Uiso   1.00
C66    C     0.36094   0.48658   0.13402   0.01267  Uiso   1.00
C67    C     0.30574   0.89348   0.21511   0.01267  Uiso   1.00
C68    C     0.30306   0.84108   0.26469   0.01267  Uiso   1.00
C69    C     0.36094   0.86598   0.35256   0.01267  Uiso   1.00
C70    C     0.30574   0.78489   0.67837   0.01267  Uiso   1.00
C71    C     0.30306   0.73531   0.57639   0.01267  Uiso   1.00
C72    C     0.36094   0.64744   0.51342   0.01267  Uiso   1.00
C73    C     0.75000   0.13525   0.86475   0.01267  Uiso   1.00
C74    C     0.75000   0.72950   0.86475   0.01267  Uiso   1.00
C75    C     0.75000   0.13525   0.27050   0.01267  Uiso   1.00
C76    C     0.75000   0.86475   0.13525   0.01267  Uiso   1.00
C77    C     0.75000   0.27050   0.13525   0.01267  Uiso   1.00
C78    C     0.75000   0.86475   0.72950   0.01267  Uiso   1.00
C79    C     0.25000   0.86475   0.13525   0.01267  Uiso   1.00
C80    C     0.25000   0.27050   0.13525   0.01267  Uiso   1.00
C81    C     0.25000   0.86475   0.72950   0.01267  Uiso   1.00
C82    C     0.25000   0.13525   0.86475   0.01267  Uiso   1.00
C83    C     0.25000   0.72950   0.86475   0.01267  Uiso   1.00
C84    C     0.25000   0.13525   0.27050   0.01267  Uiso   1.00
N1     N     0.75000   0.23653   0.76348   0.01267  Uiso   1.00
N2     N     0.75000   0.52695   0.76348   0.01267  Uiso   1.00
N3     N     0.75000   0.23653   0.47306   0.01267  Uiso   1.00
N4     N     0.75000   0.76347   0.23652   0.01267  Uiso   1.00
N5     N     0.75000   0.47305   0.23652   0.01267  Uiso   1.00
N6     N     0.75000   0.76347   0.52694   0.01267  Uiso   1.00
N7     N     0.25000   0.76347   0.23652   0.01267  Uiso   1.00
N8     N     0.25000   0.47305   0.23652   0.01267  Uiso   1.00
N9     N     0.25000   0.76347   0.52694   0.01267  Uiso   1.00
N10    N     0.25000   0.23653   0.76348   0.01267  Uiso   1.00
N11    N     0.25000   0.52695   0.76348   0.01267  Uiso   1.00
N12    N     0.25000   0.23653   0.47306   0.01267  Uiso   1.00
O1     O     0.90539   0.38843   0.94261   0.01267  Uiso   1.00
O2     O     0.85938   0.38344   0.80493   0.01267  Uiso   1.00
O3     O     0.90539   0.55418   0.61157   0.01267  Uiso   1.00
O4     O     0.85938   0.42149   0.61656   0.01267  Uiso   1.00
O5     O     0.90539   0.05739   0.44582   0.01267  Uiso   1.00
O6     O     0.85938   0.19507   0.57851   0.01267  Uiso   1.00
O7     O     0.90539   0.61157   0.05739   0.01267  Uiso   1.00
O8     O     0.85938   0.61656   0.19507   0.01267  Uiso   1.00
O9     O     0.90539   0.44582   0.38843   0.01267  Uiso   1.00
O10    O     0.85938   0.57851   0.38344   0.01267  Uiso   1.00
O11    O     0.90539   0.94261   0.55418   0.01267  Uiso   1.00
O12    O     0.85938   0.80493   0.42149   0.01267  Uiso   1.00
O13    O     0.59461   0.44582   0.05739   0.01267  Uiso   1.00
O14    O     0.64062   0.57851   0.19507   0.01267  Uiso   1.00
O15    O     0.59461   0.94261   0.38843   0.01267  Uiso   1.00
O16    O     0.64062   0.80493   0.38344   0.01267  Uiso   1.00
O17    O     0.59461   0.61157   0.55418   0.01267  Uiso   1.00
O18    O     0.64062   0.61656   0.42149   0.01267  Uiso   1.00
O19    O     0.59461   0.55418   0.94261   0.01267  Uiso   1.00
O20    O     0.64062   0.42149   0.80493   0.01267  Uiso   1.00
O21    O     0.59461   0.05739   0.61157   0.01267  Uiso   1.00
O22    O     0.64062   0.19507   0.61656   0.01267  Uiso   1.00
O23    O     0.59461   0.38843   0.44582   0.01267  Uiso   1.00
O24    O     0.64062   0.38344   0.57851   0.01267  Uiso   1.00
O25    O     0.09461   0.61157   0.05739   0.01267  Uiso   1.00
O26    O     0.14062   0.61656   0.19507   0.01267  Uiso   1.00
O27    O     0.09461   0.44582   0.38843   0.01267  Uiso   1.00
O28    O     0.14062   0.57851   0.38344   0.01267  Uiso   1.00
O29    O     0.09461   0.94261   0.55418   0.01267  Uiso   1.00
O30    O     0.14062   0.80493   0.42149   0.01267  Uiso   1.00
O31    O     0.09461   0.38843   0.94261   0.01267  Uiso   1.00
O32    O     0.14062   0.38344   0.80493   0.01267  Uiso   1.00
O33    O     0.09461   0.55418   0.61157   0.01267  Uiso   1.00
O34    O     0.14062   0.42149   0.61656   0.01267  Uiso   1.00
O35    O     0.09461   0.05739   0.44582   0.01267  Uiso   1.00
O36    O     0.14062   0.19507   0.57851   0.01267  Uiso   1.00
O37    O     0.40539   0.55418   0.94261   0.01267  Uiso   1.00
O38    O     0.35938   0.42149   0.80493   0.01267  Uiso   1.00
O39    O     0.40539   0.05739   0.61157   0.01267  Uiso   1.00
O40    O     0.35938   0.19507   0.61656   0.01267  Uiso   1.00
O41    O     0.40539   0.38843   0.44582   0.01267  Uiso   1.00
O42    O     0.35938   0.38344   0.57851   0.01267  Uiso   1.00
O43    O     0.40539   0.44582   0.05739   0.01267  Uiso   1.00
O44    O     0.35938   0.57851   0.19507   0.01267  Uiso   1.00
O45    O     0.40539   0.94261   0.38843   0.01267  Uiso   1.00
O46    O     0.35938   0.80493   0.38344   0.01267  Uiso   1.00
O47    O     0.40539   0.61157   0.55418   0.01267  Uiso   1.00
O48    O     0.35938   0.61656   0.42149   0.01267  Uiso   1.00
