data_image0
_cell_length_a       9.3086
_cell_length_b       21.1829
_cell_length_c       21.456
_cell_angle_alpha    90
_cell_angle_beta     90
_cell_angle_gamma    90

_symmetry_space_group_name_H-M    "P 1"
_symmetry_int_tables_number       1

loop_
  _symmetry_equiv_pos_as_xyz
  'x, y, z'

loop_
  _atom_site_label
  _atom_site_occupancy
  _atom_site_fract_x
  _atom_site_fract_y
  _atom_site_fract_z
  _atom_site_thermal_displace_type
  _atom_site_B_iso_or_equiv
  _atom_site_type_symbol
  Zn1      1.0000 0.92275  0.50286  0.14663  Biso   1.000  Zn
  C1       1.0000 0.63660  0.54860  0.10220  Biso   1.000  C
  H1       1.0000 0.60656  0.55974  0.14206  Biso   1.000  H
  C2       1.0000 0.75590  0.51410  0.02580  Biso   1.000  C
  H2       1.0000 0.82962  0.49534  0.00314  Biso   1.000  H
  C3       1.0000 0.75090  0.56260  0.74910  Biso   1.000  C
  H3       1.0000 0.81592  0.52969  0.75415  Biso   1.000  H
  C4       1.0000 0.58230  0.62110  0.71810  Biso   1.000  C
  H4       1.0000 0.50472  0.63557  0.69476  Biso   1.000  H
  C5       1.0000 0.56060  0.71390  0.22740  Biso   1.000  C
  H5       1.0000 0.53231  0.67424  0.21348  Biso   1.000  H
  C6       1.0000 0.57860  0.79680  0.27550  Biso   1.000  C
  H6       1.0000 0.56081  0.82838  0.30459  Biso   1.000  H
  C7       1.0000 0.42930  0.58965  0.04120  Biso   1.000  C
  C8       1.0000 0.40250  0.61810  0.98400  Biso   1.000  C
  H7       1.0000 0.47154  0.61704  0.95268  Biso   1.000  H
  C9       1.0000 0.27280  0.64780  0.97400  Biso   1.000  C
  H8       1.0000 0.25518  0.66735  0.93589  Biso   1.000  H
  C10      1.0000 0.16770  0.64900  0.02040  Biso   1.000  C
  C11      1.0000 0.19760  0.62170  0.07740  Biso   1.000  C
  H9       1.0000 0.12943  0.62323  0.10909  Biso   1.000  H
  C12      1.0000 0.32720  0.59220  0.08790  Biso   1.000  C
  H10      1.0000 0.34608  0.57392  0.12651  Biso   1.000  H
  C13      1.0000 0.82910  0.63080  0.83780  Biso   1.000  C
  C14      1.0000 0.82910  0.69300  0.85830  Biso   1.000  C
  H11      1.0000 0.78398  0.72425  0.83506  Biso   1.000  H
  C15      1.0000 0.89650  0.70760  0.91320  Biso   1.000  C
  H12      1.0000 0.89398  0.74883  0.92814  Biso   1.000  H
  C16      1.0000 0.96900  0.66100  0.94680  Biso   1.000  C
  C17      1.0000 0.97320  0.59980  0.92410  Biso   1.000  C
  H13      1.0000 0.02453  0.56895  0.94538  Biso   1.000  H
  C18      1.0000 0.90170  0.58460  0.87030  Biso   1.000  C
  H14      1.0000 0.90219  0.54328  0.85573  Biso   1.000  H
  C19      1.0000 0.75830  0.73220  0.15080  Biso   1.000  C
  C20      1.0000 0.90070  0.75040  0.15190  Biso   1.000  C
  H15      1.0000 0.93681  0.77370  0.18510  Biso   1.000  H
  C21      1.0000 0.98840  0.73340  0.10290  Biso   1.000  C
  H16      1.0000 0.08321  0.74725  0.10255  Biso   1.000  H
  C22      1.0000 0.93890  0.69623  0.05390  Biso   1.000  C
  C23      1.0000 0.79330  0.68010  0.05340  Biso   1.000  C
  H17      1.0000 0.75625  0.65662  0.02042  Biso   1.000  H
  C24      1.0000 0.70410  0.69870  0.10140  Biso   1.000  C
  H18      1.0000 0.60703  0.68839  0.10032  Biso   1.000  H
  C25      1.0000 0.13530  0.45430  0.06090  Biso   1.000  C
  C26      1.0000 0.09830  0.09940  0.26990  Biso   1.000  C
  C27      1.0000 0.28370  0.42450  0.05580  Biso   1.000  C
  C28      1.0000 0.37900  0.42750  0.10510  Biso   1.000  C
  H19      1.0000 0.35133  0.44711  0.14200  Biso   1.000  H
  C29      1.0000 0.51650  0.40140  0.10010  Biso   1.000  C
  H20      1.0000 0.57923  0.40322  0.13382  Biso   1.000  H
  C30      1.0000 0.55950  0.37270  0.04480  Biso   1.000  C
  C31      1.0000 0.46520  0.37210  0.99480  Biso   1.000  C
  H21      1.0000 0.49346  0.35442  0.95705  Biso   1.000  H
  C32      1.0000 0.32790  0.39800  0.00080  Biso   1.000  C
  H22      1.0000 0.26551  0.39711  0.96697  Biso   1.000  H
  C33      1.0000 0.04450  0.14760  0.22410  Biso   1.000  C
  C34      1.0000 0.14030  0.17990  0.18570  Biso   1.000  C
  H23      1.0000 0.23826  0.17210  0.18933  Biso   1.000  H
  C35      1.0000 0.09240  0.22320  0.14240  Biso   1.000  C
  H24      1.0000 0.15868  0.24457  0.11777  Biso   1.000  H
  C36      1.0000 0.94570  0.23550  0.13500  Biso   1.000  C
  C37      1.0000 0.85100  0.20440  0.17470  Biso   1.000  C
  H25      1.0000 0.75304  0.21230  0.17130  Biso   1.000  H
  C38      1.0000 0.89900  0.16180  0.21910  Biso   1.000  C
  H26      1.0000 0.83352  0.14257  0.24582  Biso   1.000  H
  C39      1.0000 0.89360  0.27830  0.08480  Biso   1.000  C
  C40      1.0000 0.97440  0.28720  0.03070  Biso   1.000  C
  H27      1.0000 0.06499  0.26901  0.02754  Biso   1.000  H
  C41      1.0000 0.92120  0.32300  0.98160  Biso   1.000  C
  H28      1.0000 0.97544  0.32793  0.94554  Biso   1.000  H
  C42      1.0000 0.78780  0.35120  0.98620  Biso   1.000  C
  H29      1.0000 0.75324  0.37563  0.95345  Biso   1.000  H
  C43      1.0000 0.70560  0.34340  0.03930  Biso   1.000  C
  C44      1.0000 0.76020  0.30760  0.08810  Biso   1.000  C
  H30      1.0000 0.70566  0.30298  0.12416  Biso   1.000  H
  N1       1.0000 0.76060  0.52110  0.08810  Biso   1.000  N
  N2       1.0000 0.56250  0.55773  0.04996  Biso   1.000  N
  N3       1.0000 0.63790  0.53596  0.99974  Biso   1.000  N
  N4       1.0000 0.64790  0.56457  0.70676  Biso   1.000  N
  N5       1.0000 0.74780  0.61464  0.78323  Biso   1.000  N
  N6       1.0000 0.63740  0.65332  0.76423  Biso   1.000  N
  N7       1.0000 0.50220  0.74320  0.27500  Biso   1.000  N
  N8       1.0000 0.66640  0.74810  0.20124  Biso   1.000  N
  N9       1.0000 0.68100  0.80300  0.23250  Biso   1.000  N
  N10      1.0000 0.03180  0.67610  0.00628  Biso   1.000  N
  O1       1.0000 0.09280  0.46123  0.11715  Biso   1.000  O
  O2       1.0000 0.07090  0.47045  0.01435  Biso   1.000  O
  O3       1.0000 0.00350  0.07453  0.30556  Biso   1.000  O
  O4       1.0000 0.22760  0.08516  0.27102  Biso   1.000  O
  Zn2      1.0000 0.57725  0.49714  0.64663  Biso   1.000  Zn
  C45      1.0000 0.86340  0.45140  0.60220  Biso   1.000  C
  H31      1.0000 0.89344  0.44026  0.64206  Biso   1.000  H
  C46      1.0000 0.74410  0.48590  0.52580  Biso   1.000  C
  H32      1.0000 0.67038  0.50466  0.50314  Biso   1.000  H
  C47      1.0000 0.74910  0.43740  0.24910  Biso   1.000  C
  H33      1.0000 0.68408  0.47031  0.25415  Biso   1.000  H
  C48      1.0000 0.91770  0.37890  0.21810  Biso   1.000  C
  H34      1.0000 0.99528  0.36443  0.19476  Biso   1.000  H
  C49      1.0000 0.93940  0.28610  0.72740  Biso   1.000  C
  H35      1.0000 0.96769  0.32576  0.71348  Biso   1.000  H
  C50      1.0000 0.92140  0.20320  0.77550  Biso   1.000  C
  H36      1.0000 0.93919  0.17162  0.80459  Biso   1.000  H
  C51      1.0000 0.07070  0.41035  0.54120  Biso   1.000  C
  C52      1.0000 0.09750  0.38190  0.48400  Biso   1.000  C
  H37      1.0000 0.02846  0.38296  0.45268  Biso   1.000  H
  C53      1.0000 0.22720  0.35220  0.47400  Biso   1.000  C
  H38      1.0000 0.24482  0.33265  0.43589  Biso   1.000  H
  C54      1.0000 0.33230  0.35100  0.52040  Biso   1.000  C
  C55      1.0000 0.30240  0.37830  0.57740  Biso   1.000  C
  H39      1.0000 0.37057  0.37677  0.60909  Biso   1.000  H
  C56      1.0000 0.17280  0.40780  0.58790  Biso   1.000  C
  H40      1.0000 0.15392  0.42608  0.62651  Biso   1.000  H
  C57      1.0000 0.67090  0.36920  0.33780  Biso   1.000  C
  C58      1.0000 0.67090  0.30700  0.35830  Biso   1.000  C
  H41      1.0000 0.71602  0.27575  0.33506  Biso   1.000  H
  C59      1.0000 0.60350  0.29240  0.41320  Biso   1.000  C
  H42      1.0000 0.60602  0.25117  0.42814  Biso   1.000  H
  C60      1.0000 0.53100  0.33900  0.44680  Biso   1.000  C
  C61      1.0000 0.52680  0.40020  0.42410  Biso   1.000  C
  H43      1.0000 0.47547  0.43105  0.44538  Biso   1.000  H
  C62      1.0000 0.59830  0.41540  0.37030  Biso   1.000  C
  H44      1.0000 0.59781  0.45672  0.35573  Biso   1.000  H
  C63      1.0000 0.74170  0.26780  0.65080  Biso   1.000  C
  C64      1.0000 0.59930  0.24960  0.65190  Biso   1.000  C
  H45      1.0000 0.56319  0.22630  0.68510  Biso   1.000  H
  C65      1.0000 0.51160  0.26660  0.60290  Biso   1.000  C
  H46      1.0000 0.41679  0.25275  0.60255  Biso   1.000  H
  C66      1.0000 0.56110  0.30377  0.55390  Biso   1.000  C
  C67      1.0000 0.70670  0.31990  0.55340  Biso   1.000  C
  H47      1.0000 0.74375  0.34338  0.52042  Biso   1.000  H
  C68      1.0000 0.79590  0.30130  0.60140  Biso   1.000  C
  H48      1.0000 0.89297  0.31161  0.60032  Biso   1.000  H
  C69      1.0000 0.36470  0.54570  0.56090  Biso   1.000  C
  C70      1.0000 0.40170  0.90060  0.76990  Biso   1.000  C
  C71      1.0000 0.21630  0.57550  0.55580  Biso   1.000  C
  C72      1.0000 0.12100  0.57250  0.60510  Biso   1.000  C
  H49      1.0000 0.14867  0.55289  0.64200  Biso   1.000  H
  C73      1.0000 0.98350  0.59860  0.60010  Biso   1.000  C
  H50      1.0000 0.92077  0.59678  0.63382  Biso   1.000  H
  C74      1.0000 0.94050  0.62730  0.54480  Biso   1.000  C
  C75      1.0000 0.03480  0.62790  0.49480  Biso   1.000  C
  H51      1.0000 0.00654  0.64558  0.45705  Biso   1.000  H
  C76      1.0000 0.17210  0.60200  0.50080  Biso   1.000  C
  H52      1.0000 0.23449  0.60289  0.46697  Biso   1.000  H
  C77      1.0000 0.45550  0.85240  0.72410  Biso   1.000  C
  C78      1.0000 0.35970  0.82010  0.68570  Biso   1.000  C
  H53      1.0000 0.26174  0.82790  0.68933  Biso   1.000  H
  C79      1.0000 0.40760  0.77680  0.64240  Biso   1.000  C
  H54      1.0000 0.34132  0.75543  0.61777  Biso   1.000  H
  C80      1.0000 0.55430  0.76450  0.63500  Biso   1.000  C
  C81      1.0000 0.64900  0.79560  0.67470  Biso   1.000  C
  H55      1.0000 0.74696  0.78770  0.67130  Biso   1.000  H
  C82      1.0000 0.60100  0.83820  0.71910  Biso   1.000  C
  H56      1.0000 0.66648  0.85743  0.74582  Biso   1.000  H
  C83      1.0000 0.60640  0.72170  0.58480  Biso   1.000  C
  C84      1.0000 0.52560  0.71280  0.53070  Biso   1.000  C
  H57      1.0000 0.43501  0.73099  0.52754  Biso   1.000  H
  C85      1.0000 0.57880  0.67700  0.48160  Biso   1.000  C
  H58      1.0000 0.52456  0.67207  0.44554  Biso   1.000  H
  C86      1.0000 0.71220  0.64880  0.48620  Biso   1.000  C
  H59      1.0000 0.74676  0.62437  0.45345  Biso   1.000  H
  C87      1.0000 0.79440  0.65660  0.53930  Biso   1.000  C
  C88      1.0000 0.73980  0.69240  0.58810  Biso   1.000  C
  H60      1.0000 0.79434  0.69702  0.62416  Biso   1.000  H
  N11      1.0000 0.73940  0.47890  0.58810  Biso   1.000  N
  N12      1.0000 0.93750  0.44227  0.54996  Biso   1.000  N
  N13      1.0000 0.86210  0.46404  0.49974  Biso   1.000  N
  N14      1.0000 0.85210  0.43543  0.20676  Biso   1.000  N
  N15      1.0000 0.75220  0.38536  0.28323  Biso   1.000  N
  N16      1.0000 0.86260  0.34668  0.26423  Biso   1.000  N
  N17      1.0000 0.99780  0.25680  0.77500  Biso   1.000  N
  N18      1.0000 0.83360  0.25190  0.70124  Biso   1.000  N
  N19      1.0000 0.81900  0.19700  0.73250  Biso   1.000  N
  N20      1.0000 0.46820  0.32390  0.50628  Biso   1.000  N
  O5       1.0000 0.40720  0.53877  0.61715  Biso   1.000  O
  O6       1.0000 0.42910  0.52955  0.51435  Biso   1.000  O
  O7       1.0000 0.49650  0.92547  0.80556  Biso   1.000  O
  O8       1.0000 0.27240  0.91484  0.77102  Biso   1.000  O
  Zn3      1.0000 0.07725  0.00286  0.35337  Biso   1.000  Zn
  C89      1.0000 0.36340  0.04860  0.39780  Biso   1.000  C
  H61      1.0000 0.39344  0.05974  0.35794  Biso   1.000  H
  C90      1.0000 0.24410  0.01410  0.47420  Biso   1.000  C
  H62      1.0000 0.17038  0.99534  0.49686  Biso   1.000  H
  C91      1.0000 0.24910  0.06260  0.75090  Biso   1.000  C
  H63      1.0000 0.18408  0.02969  0.74585  Biso   1.000  H
  C92      1.0000 0.41770  0.12110  0.78190  Biso   1.000  C
  H64      1.0000 0.49528  0.13557  0.80524  Biso   1.000  H
  C93      1.0000 0.43940  0.21390  0.27260  Biso   1.000  C
  H65      1.0000 0.46769  0.17424  0.28652  Biso   1.000  H
  C94      1.0000 0.42140  0.29680  0.22450  Biso   1.000  C
  H66      1.0000 0.43919  0.32838  0.19541  Biso   1.000  H
  C95      1.0000 0.57070  0.08965  0.45880  Biso   1.000  C
  C96      1.0000 0.59750  0.11810  0.51600  Biso   1.000  C
  H67      1.0000 0.52846  0.11704  0.54732  Biso   1.000  H
  C97      1.0000 0.72720  0.14780  0.52600  Biso   1.000  C
  H68      1.0000 0.74482  0.16735  0.56411  Biso   1.000  H
  C98      1.0000 0.83230  0.14900  0.47960  Biso   1.000  C
  C99      1.0000 0.80240  0.12170  0.42260  Biso   1.000  C
  H69      1.0000 0.87057  0.12323  0.39091  Biso   1.000  H
  C100     1.0000 0.67280  0.09220  0.41210  Biso   1.000  C
  H70      1.0000 0.65392  0.07392  0.37349  Biso   1.000  H
  C101     1.0000 0.17090  0.13080  0.66220  Biso   1.000  C
  C102     1.0000 0.17090  0.19300  0.64170  Biso   1.000  C
  H71      1.0000 0.21602  0.22425  0.66494  Biso   1.000  H
  C103     1.0000 0.10350  0.20760  0.58680  Biso   1.000  C
  H72      1.0000 0.10602  0.24883  0.57186  Biso   1.000  H
  C104     1.0000 0.03100  0.16100  0.55320  Biso   1.000  C
  C105     1.0000 0.02680  0.09980  0.57590  Biso   1.000  C
  H73      1.0000 0.97547  0.06895  0.55462  Biso   1.000  H
  C106     1.0000 0.09830  0.08460  0.62970  Biso   1.000  C
  H74      1.0000 0.09781  0.04328  0.64427  Biso   1.000  H
  C107     1.0000 0.24170  0.23220  0.34920  Biso   1.000  C
  C108     1.0000 0.09930  0.25040  0.34810  Biso   1.000  C
  H75      1.0000 0.06319  0.27370  0.31490  Biso   1.000  H
  C109     1.0000 0.01160  0.23340  0.39710  Biso   1.000  C
  H76      1.0000 0.91679  0.24725  0.39745  Biso   1.000  H
  C110     1.0000 0.06110  0.19623  0.44610  Biso   1.000  C
  C111     1.0000 0.20670  0.18010  0.44660  Biso   1.000  C
  H77      1.0000 0.24375  0.15662  0.47958  Biso   1.000  H
  C112     1.0000 0.29590  0.19870  0.39860  Biso   1.000  C
  H78      1.0000 0.39297  0.18839  0.39968  Biso   1.000  H
  C113     1.0000 0.86470  0.95430  0.43910  Biso   1.000  C
  C114     1.0000 0.90170  0.59940  0.23010  Biso   1.000  C
  C115     1.0000 0.71630  0.92450  0.44420  Biso   1.000  C
  C116     1.0000 0.62100  0.92750  0.39490  Biso   1.000  C
  H79      1.0000 0.64867  0.94711  0.35800  Biso   1.000  H
  C117     1.0000 0.48350  0.90140  0.39990  Biso   1.000  C
  H80      1.0000 0.42077  0.90322  0.36618  Biso   1.000  H
  C118     1.0000 0.44050  0.87270  0.45520  Biso   1.000  C
  C119     1.0000 0.53480  0.87210  0.50520  Biso   1.000  C
  H81      1.0000 0.50654  0.85442  0.54295  Biso   1.000  H
  C120     1.0000 0.67210  0.89800  0.49920  Biso   1.000  C
  H82      1.0000 0.73449  0.89711  0.53303  Biso   1.000  H
  C121     1.0000 0.95550  0.64760  0.27590  Biso   1.000  C
  C122     1.0000 0.85970  0.67990  0.31430  Biso   1.000  C
  H83      1.0000 0.76174  0.67210  0.31067  Biso   1.000  H
  C123     1.0000 0.90760  0.72320  0.35760  Biso   1.000  C
  H84      1.0000 0.84132  0.74457  0.38223  Biso   1.000  H
  C124     1.0000 0.05430  0.73550  0.36500  Biso   1.000  C
  C125     1.0000 0.14900  0.70440  0.32530  Biso   1.000  C
  H85      1.0000 0.24696  0.71230  0.32870  Biso   1.000  H
  C126     1.0000 0.10100  0.66180  0.28090  Biso   1.000  C
  H86      1.0000 0.16648  0.64257  0.25418  Biso   1.000  H
  C127     1.0000 0.10640  0.77830  0.41520  Biso   1.000  C
  C128     1.0000 0.02560  0.78720  0.46930  Biso   1.000  C
  H87      1.0000 0.93501  0.76901  0.47246  Biso   1.000  H
  C129     1.0000 0.07880  0.82300  0.51840  Biso   1.000  C
  H88      1.0000 0.02456  0.82793  0.55446  Biso   1.000  H
  C130     1.0000 0.21220  0.85120  0.51380  Biso   1.000  C
  H89      1.0000 0.24676  0.87563  0.54655  Biso   1.000  H
  C131     1.0000 0.29440  0.84340  0.46070  Biso   1.000  C
  C132     1.0000 0.23980  0.80760  0.41190  Biso   1.000  C
  H90      1.0000 0.29434  0.80298  0.37584  Biso   1.000  H
  N21      1.0000 0.23940  0.02110  0.41190  Biso   1.000  N
  N22      1.0000 0.43750  0.05773  0.45004  Biso   1.000  N
  N23      1.0000 0.36210  0.03596  0.50026  Biso   1.000  N
  N24      1.0000 0.35210  0.06457  0.79324  Biso   1.000  N
  N25      1.0000 0.25220  0.11464  0.71677  Biso   1.000  N
  N26      1.0000 0.36260  0.15332  0.73577  Biso   1.000  N
  N27      1.0000 0.49780  0.24320  0.22500  Biso   1.000  N
  N28      1.0000 0.33360  0.24810  0.29876  Biso   1.000  N
  N29      1.0000 0.31900  0.30300  0.26750  Biso   1.000  N
  N30      1.0000 0.96820  0.17610  0.49372  Biso   1.000  N
  O9       1.0000 0.90720  0.96123  0.38285  Biso   1.000  O
  O10      1.0000 0.92910  0.97045  0.48565  Biso   1.000  O
  O11      1.0000 0.99650  0.57453  0.19444  Biso   1.000  O
  O12      1.0000 0.77240  0.58516  0.22898  Biso   1.000  O
  Zn4      1.0000 0.42275  0.99714  0.85337  Biso   1.000  Zn
  C133     1.0000 0.13660  0.95140  0.89780  Biso   1.000  C
  H91      1.0000 0.10656  0.94026  0.85794  Biso   1.000  H
  C134     1.0000 0.25590  0.98590  0.97420  Biso   1.000  C
  H92      1.0000 0.32962  0.00466  0.99686  Biso   1.000  H
  C135     1.0000 0.25090  0.93740  0.25090  Biso   1.000  C
  H93      1.0000 0.31592  0.97031  0.24585  Biso   1.000  H
  C136     1.0000 0.08230  0.87890  0.28190  Biso   1.000  C
  H94      1.0000 0.00472  0.86443  0.30524  Biso   1.000  H
  C137     1.0000 0.06060  0.78610  0.77260  Biso   1.000  C
  H95      1.0000 0.03231  0.82576  0.78652  Biso   1.000  H
  C138     1.0000 0.07860  0.70320  0.72450  Biso   1.000  C
  H96      1.0000 0.06081  0.67162  0.69541  Biso   1.000  H
  C139     1.0000 0.92930  0.91035  0.95880  Biso   1.000  C
  C140     1.0000 0.90250  0.88190  0.01600  Biso   1.000  C
  H97      1.0000 0.97154  0.88296  0.04732  Biso   1.000  H
  C141     1.0000 0.77280  0.85220  0.02600  Biso   1.000  C
  H98      1.0000 0.75518  0.83265  0.06411  Biso   1.000  H
  C142     1.0000 0.66770  0.85100  0.97960  Biso   1.000  C
  C143     1.0000 0.69760  0.87830  0.92260  Biso   1.000  C
  H99      1.0000 0.62943  0.87677  0.89091  Biso   1.000  H
  C144     1.0000 0.82720  0.90780  0.91210  Biso   1.000  C
  H100     1.0000 0.84608  0.92608  0.87349  Biso   1.000  H
  C145     1.0000 0.32910  0.86920  0.16220  Biso   1.000  C
  C146     1.0000 0.32910  0.80700  0.14170  Biso   1.000  C
  H101     1.0000 0.28398  0.77575  0.16494  Biso   1.000  H
  C147     1.0000 0.39650  0.79240  0.08680  Biso   1.000  C
  H102     1.0000 0.39398  0.75117  0.07186  Biso   1.000  H
  C148     1.0000 0.46900  0.83900  0.05320  Biso   1.000  C
  C149     1.0000 0.47320  0.90020  0.07590  Biso   1.000  C
  H103     1.0000 0.52453  0.93105  0.05462  Biso   1.000  H
  C150     1.0000 0.40170  0.91540  0.12970  Biso   1.000  C
  H104     1.0000 0.40219  0.95672  0.14427  Biso   1.000  H
  C151     1.0000 0.25830  0.76780  0.84920  Biso   1.000  C
  C152     1.0000 0.40070  0.74960  0.84810  Biso   1.000  C
  H105     1.0000 0.43681  0.72630  0.81490  Biso   1.000  H
  C153     1.0000 0.48840  0.76660  0.89710  Biso   1.000  C
  H106     1.0000 0.58321  0.75275  0.89745  Biso   1.000  H
  C154     1.0000 0.43890  0.80377  0.94610  Biso   1.000  C
  C155     1.0000 0.29330  0.81990  0.94660  Biso   1.000  C
  H107     1.0000 0.25625  0.84338  0.97958  Biso   1.000  H
  C156     1.0000 0.20410  0.80130  0.89860  Biso   1.000  C
  H108     1.0000 0.10703  0.81161  0.89968  Biso   1.000  H
  C157     1.0000 0.63530  0.04570  0.93910  Biso   1.000  C
  C158     1.0000 0.59830  0.40060  0.73010  Biso   1.000  C
  C159     1.0000 0.78370  0.07550  0.94420  Biso   1.000  C
  C160     1.0000 0.87900  0.07250  0.89490  Biso   1.000  C
  H109     1.0000 0.85133  0.05289  0.85800  Biso   1.000  H
  C161     1.0000 0.01650  0.09860  0.89990  Biso   1.000  C
  H110     1.0000 0.07923  0.09678  0.86618  Biso   1.000  H
  C162     1.0000 0.05950  0.12730  0.95520  Biso   1.000  C
  C163     1.0000 0.96520  0.12790  0.00520  Biso   1.000  C
  H111     1.0000 0.99346  0.14558  0.04295  Biso   1.000  H
  C164     1.0000 0.82790  0.10200  0.99920  Biso   1.000  C
  H112     1.0000 0.76551  0.10289  0.03303  Biso   1.000  H
  C165     1.0000 0.54450  0.35240  0.77590  Biso   1.000  C
  C166     1.0000 0.64030  0.32010  0.81430  Biso   1.000  C
  H113     1.0000 0.73826  0.32790  0.81067  Biso   1.000  H
  C167     1.0000 0.59240  0.27680  0.85760  Biso   1.000  C
  H114     1.0000 0.65868  0.25543  0.88223  Biso   1.000  H
  C168     1.0000 0.44570  0.26450  0.86500  Biso   1.000  C
  C169     1.0000 0.35100  0.29560  0.82530  Biso   1.000  C
  H115     1.0000 0.25304  0.28770  0.82870  Biso   1.000  H
  C170     1.0000 0.39900  0.33820  0.78090  Biso   1.000  C
  H116     1.0000 0.33352  0.35743  0.75418  Biso   1.000  H
  C171     1.0000 0.39360  0.22170  0.91520  Biso   1.000  C
  C172     1.0000 0.47440  0.21280  0.96930  Biso   1.000  C
  H117     1.0000 0.56499  0.23099  0.97246  Biso   1.000  H
  C173     1.0000 0.42120  0.17700  0.01840  Biso   1.000  C
  H118     1.0000 0.47544  0.17207  0.05446  Biso   1.000  H
  C174     1.0000 0.28780  0.14880  0.01380  Biso   1.000  C
  H119     1.0000 0.25324  0.12437  0.04655  Biso   1.000  H
  C175     1.0000 0.20560  0.15660  0.96070  Biso   1.000  C
  C176     1.0000 0.26020  0.19240  0.91190  Biso   1.000  C
  H120     1.0000 0.20566  0.19702  0.87584  Biso   1.000  H
  N31      1.0000 0.26060  0.97890  0.91190  Biso   1.000  N
  N32      1.0000 0.06250  0.94227  0.95004  Biso   1.000  N
  N33      1.0000 0.13790  0.96404  0.00026  Biso   1.000  N
  N34      1.0000 0.14790  0.93543  0.29324  Biso   1.000  N
  N35      1.0000 0.24780  0.88536  0.21677  Biso   1.000  N
  N36      1.0000 0.13740  0.84668  0.23577  Biso   1.000  N
  N37      1.0000 0.00220  0.75680  0.72500  Biso   1.000  N
  N38      1.0000 0.16640  0.75190  0.79876  Biso   1.000  N
  N39      1.0000 0.18100  0.69700  0.76750  Biso   1.000  N
  N40      1.0000 0.53180  0.82390  0.99372  Biso   1.000  N
  O13      1.0000 0.59280  0.03877  0.88285  Biso   1.000  O
  O14      1.0000 0.57090  0.02955  0.98565  Biso   1.000  O
  O15      1.0000 0.50350  0.42547  0.69444  Biso   1.000  O
  O16      1.0000 0.72760  0.41484  0.72898  Biso   1.000  O
