data_image0
_cell_length_a       23.714
_cell_length_b       23.714
_cell_length_c       16.575
_cell_angle_alpha    90
_cell_angle_beta     90
_cell_angle_gamma    90

_symmetry_space_group_name_H-M    "P 1"
_symmetry_int_tables_number       1

loop_
  _symmetry_equiv_pos_as_xyz
  'x, y, z'

loop_
  _atom_site_label
  _atom_site_occupancy
  _atom_site_fract_x
  _atom_site_fract_y
  _atom_site_fract_z
  _atom_site_thermal_displace_type
  _atom_site_B_iso_or_equiv
  _atom_site_type_symbol
  Ce1      1.0000 0.37054  0.64558  0.08940  Biso   1.000  Ce
  O1       1.0000 0.33690  0.55710  0.02890  Biso   1.000  O
  O2       1.0000 0.31790  0.63670  0.96440  Biso   1.000  O
  O3       1.0000 0.20270  0.62820  0.71130  Biso   1.000  O
  O4       1.0000 0.19090  0.54690  0.64990  Biso   1.000  O
  O5       1.0000 0.15990  0.40300  0.86060  Biso   1.000  O
  O6       1.0000 0.35210  0.39360  0.83990  Biso   1.000  O
  C1       1.0000 0.31580  0.58260  0.96970  Biso   1.000  C
  C2       1.0000 0.28640  0.54970  0.90440  Biso   1.000  C
  C3       1.0000 0.26290  0.57710  0.84080  Biso   1.000  C
  H1       1.0000 0.26450  0.61710  0.83800  Biso   1.000  H
  C4       1.0000 0.20810  0.57520  0.71030  Biso   1.000  C
  C5       1.0000 0.23600  0.54610  0.77840  Biso   1.000  C
  C6       1.0000 0.23370  0.48920  0.78310  Biso   1.000  C
  H2       1.0000 0.21460  0.46850  0.74230  Biso   1.000  H
  C7       1.0000 0.25950  0.46000  0.84840  Biso   1.000  C
  C8       1.0000 0.28550  0.49020  0.90940  Biso   1.000  C
  H3       1.0000 0.30230  0.47130  0.95380  Biso   1.000  H
  C9       1.0000 0.20200  0.37310  0.85680  Biso   1.000  C
  C10      1.0000 0.20130  0.31060  0.85700  Biso   1.000  C
  C11      1.0000 0.25130  0.28010  0.85670  Biso   1.000  C
  C12      1.0000 0.30370  0.30720  0.85540  Biso   1.000  C
  C13      1.0000 0.30850  0.36950  0.85040  Biso   1.000  C
  C14      1.0000 0.35340  0.27520  0.85630  Biso   1.000  C
  H4       1.0000 0.38900  0.29370  0.85540  Biso   1.000  H
  C15      1.0000 0.35100  0.21460  0.85860  Biso   1.000  C
  H5       1.0000 0.38440  0.19270  0.86110  Biso   1.000  H
  N1       1.0000 0.25700  0.39870  0.85350  Biso   1.000  N
  Ce2      1.0000 0.12946  0.85442  0.08940  Biso   1.000  Ce
  O7       1.0000 0.16310  0.94290  0.02890  Biso   1.000  O
  O8       1.0000 0.18210  0.86330  0.96440  Biso   1.000  O
  O9       1.0000 0.29730  0.87180  0.71130  Biso   1.000  O
  O10      1.0000 0.30910  0.95310  0.64990  Biso   1.000  O
  O11      1.0000 0.34010  0.09700  0.86060  Biso   1.000  O
  O12      1.0000 0.14790  0.10640  0.83990  Biso   1.000  O
  C16      1.0000 0.18420  0.91740  0.96970  Biso   1.000  C
  C17      1.0000 0.21360  0.95030  0.90440  Biso   1.000  C
  C18      1.0000 0.23710  0.92290  0.84080  Biso   1.000  C
  H6       1.0000 0.23550  0.88290  0.83800  Biso   1.000  H
  C19      1.0000 0.29190  0.92480  0.71030  Biso   1.000  C
  C20      1.0000 0.26400  0.95390  0.77840  Biso   1.000  C
  C21      1.0000 0.26630  0.01080  0.78310  Biso   1.000  C
  H7       1.0000 0.28540  0.03150  0.74230  Biso   1.000  H
  C22      1.0000 0.24050  0.04000  0.84840  Biso   1.000  C
  C23      1.0000 0.21450  0.00980  0.90940  Biso   1.000  C
  H8       1.0000 0.19770  0.02870  0.95380  Biso   1.000  H
  C24      1.0000 0.29800  0.12690  0.85680  Biso   1.000  C
  C25      1.0000 0.29870  0.18940  0.85700  Biso   1.000  C
  C26      1.0000 0.24870  0.21990  0.85670  Biso   1.000  C
  C27      1.0000 0.19630  0.19280  0.85540  Biso   1.000  C
  C28      1.0000 0.19150  0.13050  0.85040  Biso   1.000  C
  C29      1.0000 0.14660  0.22480  0.85630  Biso   1.000  C
  H9       1.0000 0.11100  0.20630  0.85540  Biso   1.000  H
  C30      1.0000 0.14900  0.28540  0.85860  Biso   1.000  C
  H10      1.0000 0.11560  0.30730  0.86110  Biso   1.000  H
  N2       1.0000 0.24300  0.10130  0.85350  Biso   1.000  N
  Ce3      1.0000 0.35442  0.87054  0.58940  Biso   1.000  Ce
  O13      1.0000 0.44290  0.83690  0.52890  Biso   1.000  O
  O14      1.0000 0.36330  0.81790  0.46440  Biso   1.000  O
  O15      1.0000 0.37180  0.70270  0.21130  Biso   1.000  O
  O16      1.0000 0.45310  0.69090  0.14990  Biso   1.000  O
  O17      1.0000 0.59700  0.65990  0.36060  Biso   1.000  O
  O18      1.0000 0.60640  0.85210  0.33990  Biso   1.000  O
  C31      1.0000 0.41740  0.81580  0.46970  Biso   1.000  C
  C32      1.0000 0.45030  0.78640  0.40440  Biso   1.000  C
  C33      1.0000 0.42290  0.76290  0.34080  Biso   1.000  C
  H11      1.0000 0.38290  0.76450  0.33800  Biso   1.000  H
  C34      1.0000 0.42480  0.70810  0.21030  Biso   1.000  C
  C35      1.0000 0.45390  0.73600  0.27840  Biso   1.000  C
  C36      1.0000 0.51080  0.73370  0.28310  Biso   1.000  C
  H12      1.0000 0.53150  0.71460  0.24230  Biso   1.000  H
  C37      1.0000 0.54000  0.75950  0.34840  Biso   1.000  C
  C38      1.0000 0.50980  0.78550  0.40940  Biso   1.000  C
  H13      1.0000 0.52870  0.80230  0.45380  Biso   1.000  H
  C39      1.0000 0.62690  0.70200  0.35680  Biso   1.000  C
  C40      1.0000 0.68940  0.70130  0.35700  Biso   1.000  C
  C41      1.0000 0.71990  0.75130  0.35670  Biso   1.000  C
  C42      1.0000 0.69280  0.80370  0.35540  Biso   1.000  C
  C43      1.0000 0.63050  0.80850  0.35040  Biso   1.000  C
  C44      1.0000 0.72480  0.85340  0.35630  Biso   1.000  C
  H14      1.0000 0.70630  0.88900  0.35540  Biso   1.000  H
  C45      1.0000 0.78540  0.85100  0.35860  Biso   1.000  C
  H15      1.0000 0.80730  0.88440  0.36110  Biso   1.000  H
  N3       1.0000 0.60130  0.75700  0.35350  Biso   1.000  N
  Ce4      1.0000 0.14558  0.62946  0.58940  Biso   1.000  Ce
  O19      1.0000 0.05710  0.66310  0.52890  Biso   1.000  O
  O20      1.0000 0.13670  0.68210  0.46440  Biso   1.000  O
  O21      1.0000 0.12820  0.79730  0.21130  Biso   1.000  O
  O22      1.0000 0.04690  0.80910  0.14990  Biso   1.000  O
  O23      1.0000 0.90300  0.84010  0.36060  Biso   1.000  O
  O24      1.0000 0.89360  0.64790  0.33990  Biso   1.000  O
  C46      1.0000 0.08260  0.68420  0.46970  Biso   1.000  C
  C47      1.0000 0.04970  0.71360  0.40440  Biso   1.000  C
  C48      1.0000 0.07710  0.73710  0.34080  Biso   1.000  C
  H16      1.0000 0.11710  0.73550  0.33800  Biso   1.000  H
  C49      1.0000 0.07520  0.79190  0.21030  Biso   1.000  C
  C50      1.0000 0.04610  0.76400  0.27840  Biso   1.000  C
  C51      1.0000 0.98920  0.76630  0.28310  Biso   1.000  C
  H17      1.0000 0.96850  0.78540  0.24230  Biso   1.000  H
  C52      1.0000 0.96000  0.74050  0.34840  Biso   1.000  C
  C53      1.0000 0.99020  0.71450  0.40940  Biso   1.000  C
  H18      1.0000 0.97130  0.69770  0.45380  Biso   1.000  H
  C54      1.0000 0.87310  0.79800  0.35680  Biso   1.000  C
  C55      1.0000 0.81060  0.79870  0.35700  Biso   1.000  C
  C56      1.0000 0.78010  0.74870  0.35670  Biso   1.000  C
  C57      1.0000 0.80720  0.69630  0.35540  Biso   1.000  C
  C58      1.0000 0.86950  0.69150  0.35040  Biso   1.000  C
  C59      1.0000 0.77520  0.64660  0.35630  Biso   1.000  C
  H19      1.0000 0.79370  0.61100  0.35540  Biso   1.000  H
  C60      1.0000 0.71460  0.64900  0.35860  Biso   1.000  C
  H20      1.0000 0.69270  0.61560  0.36110  Biso   1.000  H
  N4       1.0000 0.89870  0.74300  0.35350  Biso   1.000  N
  Ce5      1.0000 0.62946  0.35442  0.91060  Biso   1.000  Ce
  O25      1.0000 0.66310  0.44290  0.97110  Biso   1.000  O
  O26      1.0000 0.68210  0.36330  0.03560  Biso   1.000  O
  O27      1.0000 0.79730  0.37180  0.28870  Biso   1.000  O
  O28      1.0000 0.80910  0.45310  0.35010  Biso   1.000  O
  O29      1.0000 0.84010  0.59700  0.13940  Biso   1.000  O
  O30      1.0000 0.64790  0.60640  0.16010  Biso   1.000  O
  C61      1.0000 0.68420  0.41740  0.03030  Biso   1.000  C
  C62      1.0000 0.71360  0.45030  0.09560  Biso   1.000  C
  C63      1.0000 0.73710  0.42290  0.15920  Biso   1.000  C
  H21      1.0000 0.73550  0.38290  0.16200  Biso   1.000  H
  C64      1.0000 0.79190  0.42480  0.28970  Biso   1.000  C
  C65      1.0000 0.76400  0.45390  0.22160  Biso   1.000  C
  C66      1.0000 0.76630  0.51080  0.21690  Biso   1.000  C
  H22      1.0000 0.78540  0.53150  0.25770  Biso   1.000  H
  C67      1.0000 0.74050  0.54000  0.15160  Biso   1.000  C
  C68      1.0000 0.71450  0.50980  0.09060  Biso   1.000  C
  H23      1.0000 0.69770  0.52870  0.04620  Biso   1.000  H
  C69      1.0000 0.79800  0.62690  0.14320  Biso   1.000  C
  C70      1.0000 0.79870  0.68940  0.14300  Biso   1.000  C
  C71      1.0000 0.74870  0.71990  0.14330  Biso   1.000  C
  C72      1.0000 0.69630  0.69280  0.14460  Biso   1.000  C
  C73      1.0000 0.69150  0.63050  0.14960  Biso   1.000  C
  C74      1.0000 0.64660  0.72480  0.14370  Biso   1.000  C
  H24      1.0000 0.61100  0.70630  0.14460  Biso   1.000  H
  C75      1.0000 0.64900  0.78540  0.14140  Biso   1.000  C
  H25      1.0000 0.61560  0.80730  0.13890  Biso   1.000  H
  N5       1.0000 0.74300  0.60130  0.14650  Biso   1.000  N
  Ce6      1.0000 0.87054  0.14558  0.91060  Biso   1.000  Ce
  O31      1.0000 0.83690  0.05710  0.97110  Biso   1.000  O
  O32      1.0000 0.81790  0.13670  0.03560  Biso   1.000  O
  O33      1.0000 0.70270  0.12820  0.28870  Biso   1.000  O
  O34      1.0000 0.69090  0.04690  0.35010  Biso   1.000  O
  O35      1.0000 0.65990  0.90300  0.13940  Biso   1.000  O
  O36      1.0000 0.85210  0.89360  0.16010  Biso   1.000  O
  C76      1.0000 0.81580  0.08260  0.03030  Biso   1.000  C
  C77      1.0000 0.78640  0.04970  0.09560  Biso   1.000  C
  C78      1.0000 0.76290  0.07710  0.15920  Biso   1.000  C
  H26      1.0000 0.76450  0.11710  0.16200  Biso   1.000  H
  C79      1.0000 0.70810  0.07520  0.28970  Biso   1.000  C
  C80      1.0000 0.73600  0.04610  0.22160  Biso   1.000  C
  C81      1.0000 0.73370  0.98920  0.21690  Biso   1.000  C
  H27      1.0000 0.71460  0.96850  0.25770  Biso   1.000  H
  C82      1.0000 0.75950  0.96000  0.15160  Biso   1.000  C
  C83      1.0000 0.78550  0.99020  0.09060  Biso   1.000  C
  H28      1.0000 0.80230  0.97130  0.04620  Biso   1.000  H
  C84      1.0000 0.70200  0.87310  0.14320  Biso   1.000  C
  C85      1.0000 0.70130  0.81060  0.14300  Biso   1.000  C
  C86      1.0000 0.75130  0.78010  0.14330  Biso   1.000  C
  C87      1.0000 0.80370  0.80720  0.14460  Biso   1.000  C
  C88      1.0000 0.80850  0.86950  0.14960  Biso   1.000  C
  C89      1.0000 0.85340  0.77520  0.14370  Biso   1.000  C
  H29      1.0000 0.88900  0.79370  0.14460  Biso   1.000  H
  C90      1.0000 0.85100  0.71460  0.14140  Biso   1.000  C
  H30      1.0000 0.88440  0.69270  0.13890  Biso   1.000  H
  N6       1.0000 0.75700  0.89870  0.14650  Biso   1.000  N
  Ce7      1.0000 0.64558  0.12946  0.41060  Biso   1.000  Ce
  O37      1.0000 0.55710  0.16310  0.47110  Biso   1.000  O
  O38      1.0000 0.63670  0.18210  0.53560  Biso   1.000  O
  O39      1.0000 0.62820  0.29730  0.78870  Biso   1.000  O
  O40      1.0000 0.54690  0.30910  0.85010  Biso   1.000  O
  O41      1.0000 0.40300  0.34010  0.63940  Biso   1.000  O
  O42      1.0000 0.39360  0.14790  0.66010  Biso   1.000  O
  C91      1.0000 0.58260  0.18420  0.53030  Biso   1.000  C
  C92      1.0000 0.54970  0.21360  0.59560  Biso   1.000  C
  C93      1.0000 0.57710  0.23710  0.65920  Biso   1.000  C
  H31      1.0000 0.61710  0.23550  0.66200  Biso   1.000  H
  C94      1.0000 0.57520  0.29190  0.78970  Biso   1.000  C
  C95      1.0000 0.54610  0.26400  0.72160  Biso   1.000  C
  C96      1.0000 0.48920  0.26630  0.71690  Biso   1.000  C
  H32      1.0000 0.46850  0.28540  0.75770  Biso   1.000  H
  C97      1.0000 0.46000  0.24050  0.65160  Biso   1.000  C
  C98      1.0000 0.49020  0.21450  0.59060  Biso   1.000  C
  H33      1.0000 0.47130  0.19770  0.54620  Biso   1.000  H
  C99      1.0000 0.37310  0.29800  0.64320  Biso   1.000  C
  C100     1.0000 0.31060  0.29870  0.64300  Biso   1.000  C
  C101     1.0000 0.28010  0.24870  0.64330  Biso   1.000  C
  C102     1.0000 0.30720  0.19630  0.64460  Biso   1.000  C
  C103     1.0000 0.36950  0.19150  0.64960  Biso   1.000  C
  C104     1.0000 0.27520  0.14660  0.64370  Biso   1.000  C
  H34      1.0000 0.29370  0.11100  0.64460  Biso   1.000  H
  C105     1.0000 0.21460  0.14900  0.64140  Biso   1.000  C
  H35      1.0000 0.19270  0.11560  0.63890  Biso   1.000  H
  N7       1.0000 0.39870  0.24300  0.64650  Biso   1.000  N
  Ce8      1.0000 0.85442  0.37054  0.41060  Biso   1.000  Ce
  O43      1.0000 0.94290  0.33690  0.47110  Biso   1.000  O
  O44      1.0000 0.86330  0.31790  0.53560  Biso   1.000  O
  O45      1.0000 0.87180  0.20270  0.78870  Biso   1.000  O
  O46      1.0000 0.95310  0.19090  0.85010  Biso   1.000  O
  O47      1.0000 0.09700  0.15990  0.63940  Biso   1.000  O
  O48      1.0000 0.10640  0.35210  0.66010  Biso   1.000  O
  C106     1.0000 0.91740  0.31580  0.53030  Biso   1.000  C
  C107     1.0000 0.95030  0.28640  0.59560  Biso   1.000  C
  C108     1.0000 0.92290  0.26290  0.65920  Biso   1.000  C
  H36      1.0000 0.88290  0.26450  0.66200  Biso   1.000  H
  C109     1.0000 0.92480  0.20810  0.78970  Biso   1.000  C
  C110     1.0000 0.95390  0.23600  0.72160  Biso   1.000  C
  C111     1.0000 0.01080  0.23370  0.71690  Biso   1.000  C
  H37      1.0000 0.03150  0.21460  0.75770  Biso   1.000  H
  C112     1.0000 0.04000  0.25950  0.65160  Biso   1.000  C
  C113     1.0000 0.00980  0.28550  0.59060  Biso   1.000  C
  H38      1.0000 0.02870  0.30230  0.54620  Biso   1.000  H
  C114     1.0000 0.12690  0.20200  0.64320  Biso   1.000  C
  C115     1.0000 0.18940  0.20130  0.64300  Biso   1.000  C
  C116     1.0000 0.21990  0.25130  0.64330  Biso   1.000  C
  C117     1.0000 0.19280  0.30370  0.64460  Biso   1.000  C
  C118     1.0000 0.13050  0.30850  0.64960  Biso   1.000  C
  C119     1.0000 0.22480  0.35340  0.64370  Biso   1.000  C
  H39      1.0000 0.20630  0.38900  0.64460  Biso   1.000  H
  C120     1.0000 0.28540  0.35100  0.64140  Biso   1.000  C
  H40      1.0000 0.30730  0.38440  0.63890  Biso   1.000  H
  N8       1.0000 0.10130  0.25700  0.64650  Biso   1.000  N
