data_NANYUX01_charged
_audit_creation_date              2014-07-02
_audit_creation_method            'Materials Studio'
_symmetry_space_group_name_H-M    'P1'
_symmetry_Int_Tables_number       1
_symmetry_cell_setting            triclinic
loop_
_symmetry_equiv_pos_as_xyz
  x,y,z
_cell_length_a                    9.4469
_cell_length_b                    11.5176
_cell_length_c                    16.2456
_cell_angle_alpha                 90.0000
_cell_angle_beta                  90.0000
_cell_angle_gamma                 97.0270
loop_
_atom_site_label
_atom_site_type_symbol
_atom_site_fract_x
_atom_site_fract_y
_atom_site_fract_z
_atom_site_U_iso_or_equiv
_atom_site_adp_type
_atom_site_occupancy
Zn1    Zn    0.36352   0.54689   0.92028   0.01267  Uiso   1.00
Zn2    Zn    0.13648   0.95311   0.42028   0.01267  Uiso   1.00
Zn3    Zn    0.63648   0.45311   0.07972   0.01267  Uiso   1.00
Zn4    Zn    0.86352   0.04689   0.57972   0.01267  Uiso   1.00
H1     H     0.93570   0.16840   0.24820   0.01267  Uiso   1.00
H2     H     0.05860   0.38950   0.06430   0.01267  Uiso   1.00
H3     H     0.34680   0.22130   0.18070   0.01267  Uiso   1.00
H4     H     0.56430   0.33160   0.74820   0.01267  Uiso   1.00
H5     H     0.44140   0.11050   0.56430   0.01267  Uiso   1.00
H6     H     0.15320   0.27870   0.68070   0.01267  Uiso   1.00
H7     H     0.06430   0.83160   0.75180   0.01267  Uiso   1.00
H8     H     0.94140   0.61050   0.93570   0.01267  Uiso   1.00
H9     H     0.65320   0.77870   0.81930   0.01267  Uiso   1.00
H10    H     0.43570   0.66840   0.25180   0.01267  Uiso   1.00
H11    H     0.55860   0.88950   0.43570   0.01267  Uiso   1.00
H12    H     0.84680   0.72130   0.31930   0.01267  Uiso   1.00
C1     C     0.00720   0.20560   0.21475   0.01267  Uiso   1.00
C2     C     0.14660   0.18250   0.22491   0.01267  Uiso   1.00
C3     C     0.97370   0.28340   0.15522   0.01267  Uiso   1.00
C4     C     0.82450   0.31310   0.14735   0.01267  Uiso   1.00
C5     C     0.22050   0.31560   0.11448   0.01267  Uiso   1.00
C6     C     0.08100   0.33770   0.10488   0.01267  Uiso   1.00
C7     C     0.18500   0.10230   0.29253   0.01267  Uiso   1.00
C8     C     0.25320   0.23720   0.17439   0.01267  Uiso   1.00
C9     C     0.33620   0.37910   0.06281   0.01267  Uiso   1.00
C10    C     0.49280   0.29440   0.71475   0.01267  Uiso   1.00
C11    C     0.35340   0.31750   0.72491   0.01267  Uiso   1.00
C12    C     0.52630   0.21660   0.65522   0.01267  Uiso   1.00
C13    C     0.67550   0.18690   0.64735   0.01267  Uiso   1.00
C14    C     0.27950   0.18440   0.61448   0.01267  Uiso   1.00
C15    C     0.41900   0.16230   0.60488   0.01267  Uiso   1.00
C16    C     0.31500   0.39770   0.79253   0.01267  Uiso   1.00
C17    C     0.24680   0.26280   0.67439   0.01267  Uiso   1.00
C18    C     0.16380   0.12090   0.56281   0.01267  Uiso   1.00
C19    C     0.99280   0.79440   0.78525   0.01267  Uiso   1.00
C20    C     0.85340   0.81750   0.77509   0.01267  Uiso   1.00
C21    C     0.02630   0.71660   0.84478   0.01267  Uiso   1.00
C22    C     0.17550   0.68690   0.85265   0.01267  Uiso   1.00
C23    C     0.77950   0.68440   0.88552   0.01267  Uiso   1.00
C24    C     0.91900   0.66230   0.89512   0.01267  Uiso   1.00
C25    C     0.81500   0.89770   0.70747   0.01267  Uiso   1.00
C26    C     0.74680   0.76280   0.82561   0.01267  Uiso   1.00
C27    C     0.66380   0.62090   0.93719   0.01267  Uiso   1.00
C28    C     0.50720   0.70560   0.28525   0.01267  Uiso   1.00
C29    C     0.64660   0.68250   0.27509   0.01267  Uiso   1.00
C30    C     0.47370   0.78340   0.34478   0.01267  Uiso   1.00
C31    C     0.32450   0.81310   0.35265   0.01267  Uiso   1.00
C32    C     0.72050   0.81560   0.38552   0.01267  Uiso   1.00
C33    C     0.58100   0.83770   0.39512   0.01267  Uiso   1.00
C34    C     0.68500   0.60230   0.20747   0.01267  Uiso   1.00
C35    C     0.75320   0.73720   0.32561   0.01267  Uiso   1.00
C36    C     0.83620   0.87910   0.43719   0.01267  Uiso   1.00
O1     O     0.30185   0.46017   0.02020   0.01267  Uiso   1.00
O2     O     0.45829   0.34747   0.06762   0.01267  Uiso   1.00
O3     O     0.30980   0.09460   0.30761   0.01267  Uiso   1.00
O4     O     0.08140   0.05086   0.33276   0.01267  Uiso   1.00
O5     O     0.73800   0.28760   0.20310   0.01267  Uiso   1.00
O6     O     0.79664   0.36418   0.08156   0.01267  Uiso   1.00
O7     O     0.19815   0.03983   0.52020   0.01267  Uiso   1.00
O8     O     0.04171   0.15253   0.56762   0.01267  Uiso   1.00
O9     O     0.19020   0.40540   0.80761   0.01267  Uiso   1.00
O10    O     0.41860   0.44914   0.83276   0.01267  Uiso   1.00
O11    O     0.76200   0.21240   0.70310   0.01267  Uiso   1.00
O12    O     0.70336   0.13582   0.58156   0.01267  Uiso   1.00
O13    O     0.69815   0.53983   0.97980   0.01267  Uiso   1.00
O14    O     0.54171   0.65253   0.93238   0.01267  Uiso   1.00
O15    O     0.69020   0.90540   0.69239   0.01267  Uiso   1.00
O16    O     0.91860   0.94914   0.66724   0.01267  Uiso   1.00
O17    O     0.26200   0.71240   0.79690   0.01267  Uiso   1.00
O18    O     0.20336   0.63582   0.91844   0.01267  Uiso   1.00
O19    O     0.80185   0.96017   0.47980   0.01267  Uiso   1.00
O20    O     0.95829   0.84747   0.43238   0.01267  Uiso   1.00
O21    O     0.80980   0.59460   0.19239   0.01267  Uiso   1.00
O22    O     0.58140   0.55086   0.16724   0.01267  Uiso   1.00
O23    O     0.23800   0.78760   0.29690   0.01267  Uiso   1.00
O24    O     0.29664   0.86418   0.41844   0.01267  Uiso   1.00
H13    H     0.66920   0.29060   0.30510   0.01267  Uiso   1.00
H14    H     0.71100   0.33510   0.38560   0.01267  Uiso   1.00
H15    H     0.54760   0.42910   0.34220   0.01267  Uiso   1.00
H16    H     0.48740   0.35090   0.41630   0.01267  Uiso   1.00
H17    H     0.44920   0.31160   0.32570   0.01267  Uiso   1.00
H18    H     0.73670   0.15640   0.38280   0.01267  Uiso   1.00
H19    H     0.57850   0.12550   0.35350   0.01267  Uiso   1.00
H20    H     0.61090   0.17340   0.44270   0.01267  Uiso   1.00
C37    C     0.52220   0.35020   0.36080   0.01267  Uiso   1.00
C38    C     0.64190   0.17790   0.38640   0.01267  Uiso   1.00
N1     N     0.64150   0.29070   0.35810   0.01267  Uiso   1.00
H21    H     0.83080   0.20940   0.80510   0.01267  Uiso   1.00
H22    H     0.78900   0.16490   0.88560   0.01267  Uiso   1.00
H23    H     0.95240   0.07090   0.84220   0.01267  Uiso   1.00
H24    H     0.01260   0.14910   0.91630   0.01267  Uiso   1.00
H25    H     0.05080   0.18840   0.82570   0.01267  Uiso   1.00
H26    H     0.76330   0.34360   0.88280   0.01267  Uiso   1.00
H27    H     0.92150   0.37450   0.85350   0.01267  Uiso   1.00
H28    H     0.88910   0.32660   0.94270   0.01267  Uiso   1.00
C39    C     0.97780   0.14980   0.86080   0.01267  Uiso   1.00
C40    C     0.85810   0.32210   0.88640   0.01267  Uiso   1.00
N2     N     0.85850   0.20930   0.85810   0.01267  Uiso   1.00
H29    H     0.33080   0.70940   0.69490   0.01267  Uiso   1.00
H30    H     0.28900   0.66490   0.61440   0.01267  Uiso   1.00
H31    H     0.45240   0.57090   0.65780   0.01267  Uiso   1.00
H32    H     0.51260   0.64910   0.58370   0.01267  Uiso   1.00
H33    H     0.55080   0.68840   0.67430   0.01267  Uiso   1.00
H34    H     0.26330   0.84360   0.61720   0.01267  Uiso   1.00
H35    H     0.42150   0.87450   0.64650   0.01267  Uiso   1.00
H36    H     0.38910   0.82660   0.55730   0.01267  Uiso   1.00
C41    C     0.47780   0.64980   0.63920   0.01267  Uiso   1.00
C42    C     0.35810   0.82210   0.61360   0.01267  Uiso   1.00
N3     N     0.35850   0.70930   0.64190   0.01267  Uiso   1.00
H37    H     0.16920   0.79060   0.19490   0.01267  Uiso   1.00
H38    H     0.21100   0.83510   0.11440   0.01267  Uiso   1.00
H39    H     0.04760   0.92910   0.15780   0.01267  Uiso   1.00
H40    H     0.98740   0.85090   0.08370   0.01267  Uiso   1.00
H41    H     0.94920   0.81160   0.17430   0.01267  Uiso   1.00
H42    H     0.23670   0.65640   0.11720   0.01267  Uiso   1.00
H43    H     0.07850   0.62550   0.14650   0.01267  Uiso   1.00
H44    H     0.11090   0.67340   0.05730   0.01267  Uiso   1.00
C43    C     0.02220   0.85020   0.13920   0.01267  Uiso   1.00
C44    C     0.14190   0.67790   0.11360   0.01267  Uiso   1.00
N4     N     0.14150   0.79070   0.14190   0.01267  Uiso   1.00
