data_image0
_cell_length_a       21.9285
_cell_length_b       21.9285
_cell_length_c       16.7265
_cell_angle_alpha    90
_cell_angle_beta     90
_cell_angle_gamma    90

_symmetry_space_group_name_H-M    "P 1"
_symmetry_int_tables_number       1

loop_
  _symmetry_equiv_pos_as_xyz
  'x, y, z'

loop_
  _atom_site_label
  _atom_site_occupancy
  _atom_site_fract_x
  _atom_site_fract_y
  _atom_site_fract_z
  _atom_site_thermal_displace_type
  _atom_site_B_iso_or_equiv
  _atom_site_type_symbol
  La1      1.0000 0.32215  0.35802  0.86356  Biso   1.000  La
  O1       1.0000 0.24850  0.38900  0.75550  Biso   1.000  O
  O2       1.0000 0.22130  0.43140  0.64010  Biso   1.000  O
  O3       1.0000 0.51530  0.42420  0.79870  Biso   1.000  O
  O4       1.0000 0.43340  0.38500  0.85670  Biso   1.000  O
  N1       1.0000 0.36290  0.41720  0.73600  Biso   1.000  N
  C1       1.0000 0.42160  0.43330  0.73100  Biso   1.000  C
  C2       1.0000 0.44420  0.46700  0.66820  Biso   1.000  C
  H1       1.0000 0.48530  0.47750  0.66640  Biso   1.000  H
  C3       1.0000 0.40540  0.48500  0.60810  Biso   1.000  C
  H2       1.0000 0.41970  0.50790  0.56530  Biso   1.000  H
  C4       1.0000 0.34430  0.46810  0.61270  Biso   1.000  C
  H3       1.0000 0.31700  0.47880  0.57240  Biso   1.000  H
  C5       1.0000 0.32520  0.43530  0.67790  Biso   1.000  C
  C6       1.0000 0.26000  0.41710  0.69060  Biso   1.000  C
  C7       1.0000 0.45960  0.41270  0.80010  Biso   1.000  C
  La2      1.0000 0.82215  0.85802  0.36356  Biso   1.000  La
  O5       1.0000 0.74850  0.88900  0.25550  Biso   1.000  O
  O6       1.0000 0.72130  0.93140  0.14010  Biso   1.000  O
  O7       1.0000 0.01530  0.92420  0.29870  Biso   1.000  O
  O8       1.0000 0.93340  0.88500  0.35670  Biso   1.000  O
  N2       1.0000 0.86290  0.91720  0.23600  Biso   1.000  N
  C8       1.0000 0.92160  0.93330  0.23100  Biso   1.000  C
  C9       1.0000 0.94420  0.96700  0.16820  Biso   1.000  C
  H4       1.0000 0.98530  0.97750  0.16640  Biso   1.000  H
  C10      1.0000 0.90540  0.98500  0.10810  Biso   1.000  C
  H5       1.0000 0.91970  0.00790  0.06530  Biso   1.000  H
  C11      1.0000 0.84430  0.96810  0.11270  Biso   1.000  C
  H6       1.0000 0.81700  0.97880  0.07240  Biso   1.000  H
  C12      1.0000 0.82520  0.93530  0.17790  Biso   1.000  C
  C13      1.0000 0.76000  0.91710  0.19060  Biso   1.000  C
  C14      1.0000 0.95960  0.91270  0.30010  Biso   1.000  C
  La3      1.0000 0.17785  0.64198  0.36356  Biso   1.000  La
  O9       1.0000 0.25150  0.61100  0.25550  Biso   1.000  O
  O10      1.0000 0.27870  0.56860  0.14010  Biso   1.000  O
  O11      1.0000 0.98470  0.57580  0.29870  Biso   1.000  O
  O12      1.0000 0.06660  0.61500  0.35670  Biso   1.000  O
  N3       1.0000 0.13710  0.58280  0.23600  Biso   1.000  N
  C15      1.0000 0.07840  0.56670  0.23100  Biso   1.000  C
  C16      1.0000 0.05580  0.53300  0.16820  Biso   1.000  C
  H7       1.0000 0.01470  0.52250  0.16640  Biso   1.000  H
  C17      1.0000 0.09460  0.51500  0.10810  Biso   1.000  C
  H8       1.0000 0.08030  0.49210  0.06530  Biso   1.000  H
  C18      1.0000 0.15570  0.53190  0.11270  Biso   1.000  C
  H9       1.0000 0.18300  0.52120  0.07240  Biso   1.000  H
  C19      1.0000 0.17480  0.56470  0.17790  Biso   1.000  C
  C20      1.0000 0.24000  0.58290  0.19060  Biso   1.000  C
  C21      1.0000 0.04040  0.58730  0.30010  Biso   1.000  C
  La4      1.0000 0.67785  0.14198  0.86356  Biso   1.000  La
  O13      1.0000 0.75150  0.11100  0.75550  Biso   1.000  O
  O14      1.0000 0.77870  0.06860  0.64010  Biso   1.000  O
  O15      1.0000 0.48470  0.07580  0.79870  Biso   1.000  O
  O16      1.0000 0.56660  0.11500  0.85670  Biso   1.000  O
  N4       1.0000 0.63710  0.08280  0.73600  Biso   1.000  N
  C22      1.0000 0.57840  0.06670  0.73100  Biso   1.000  C
  C23      1.0000 0.55580  0.03300  0.66820  Biso   1.000  C
  H10      1.0000 0.51470  0.02250  0.66640  Biso   1.000  H
  C24      1.0000 0.59460  0.01500  0.60810  Biso   1.000  C
  H11      1.0000 0.58030  0.99210  0.56530  Biso   1.000  H
  C25      1.0000 0.65570  0.03190  0.61270  Biso   1.000  C
  H12      1.0000 0.68300  0.02120  0.57240  Biso   1.000  H
  C26      1.0000 0.67480  0.06470  0.67790  Biso   1.000  C
  C27      1.0000 0.74000  0.08290  0.69060  Biso   1.000  C
  C28      1.0000 0.54040  0.08730  0.80010  Biso   1.000  C
  La5      1.0000 0.39198  0.57215  0.11356  Biso   1.000  La
  O17      1.0000 0.36100  0.49850  0.00550  Biso   1.000  O
  O18      1.0000 0.31860  0.47130  0.89010  Biso   1.000  O
  O19      1.0000 0.32580  0.76530  0.04870  Biso   1.000  O
  O20      1.0000 0.36500  0.68340  0.10670  Biso   1.000  O
  N5       1.0000 0.33280  0.61290  0.98600  Biso   1.000  N
  C29      1.0000 0.31670  0.67160  0.98100  Biso   1.000  C
  C30      1.0000 0.28300  0.69420  0.91820  Biso   1.000  C
  H13      1.0000 0.27250  0.73530  0.91640  Biso   1.000  H
  C31      1.0000 0.26500  0.65540  0.85810  Biso   1.000  C
  H14      1.0000 0.24210  0.66970  0.81530  Biso   1.000  H
  C32      1.0000 0.28190  0.59430  0.86270  Biso   1.000  C
  H15      1.0000 0.27120  0.56700  0.82240  Biso   1.000  H
  C33      1.0000 0.31470  0.57520  0.92790  Biso   1.000  C
  C34      1.0000 0.33290  0.51000  0.94060  Biso   1.000  C
  C35      1.0000 0.33730  0.70960  0.05010  Biso   1.000  C
  La6      1.0000 0.89198  0.07215  0.61356  Biso   1.000  La
  O21      1.0000 0.86100  0.99850  0.50550  Biso   1.000  O
  O22      1.0000 0.81860  0.97130  0.39010  Biso   1.000  O
  O23      1.0000 0.82580  0.26530  0.54870  Biso   1.000  O
  O24      1.0000 0.86500  0.18340  0.60670  Biso   1.000  O
  N6       1.0000 0.83280  0.11290  0.48600  Biso   1.000  N
  C36      1.0000 0.81670  0.17160  0.48100  Biso   1.000  C
  C37      1.0000 0.78300  0.19420  0.41820  Biso   1.000  C
  H16      1.0000 0.77250  0.23530  0.41640  Biso   1.000  H
  C38      1.0000 0.76500  0.15540  0.35810  Biso   1.000  C
  H17      1.0000 0.74210  0.16970  0.31530  Biso   1.000  H
  C39      1.0000 0.78190  0.09430  0.36270  Biso   1.000  C
  H18      1.0000 0.77120  0.06700  0.32240  Biso   1.000  H
  C40      1.0000 0.81470  0.07520  0.42790  Biso   1.000  C
  C41      1.0000 0.83290  0.01000  0.44060  Biso   1.000  C
  C42      1.0000 0.83730  0.20960  0.55010  Biso   1.000  C
  La7      1.0000 0.10802  0.42785  0.61356  Biso   1.000  La
  O25      1.0000 0.13900  0.50150  0.50550  Biso   1.000  O
  O26      1.0000 0.18140  0.52870  0.39010  Biso   1.000  O
  O27      1.0000 0.17420  0.23470  0.54870  Biso   1.000  O
  O28      1.0000 0.13500  0.31660  0.60670  Biso   1.000  O
  N7       1.0000 0.16720  0.38710  0.48600  Biso   1.000  N
  C43      1.0000 0.18330  0.32840  0.48100  Biso   1.000  C
  C44      1.0000 0.21700  0.30580  0.41820  Biso   1.000  C
  H19      1.0000 0.22750  0.26470  0.41640  Biso   1.000  H
  C45      1.0000 0.23500  0.34460  0.35810  Biso   1.000  C
  H20      1.0000 0.25790  0.33030  0.31530  Biso   1.000  H
  C46      1.0000 0.21810  0.40570  0.36270  Biso   1.000  C
  H21      1.0000 0.22880  0.43300  0.32240  Biso   1.000  H
  C47      1.0000 0.18530  0.42480  0.42790  Biso   1.000  C
  C48      1.0000 0.16710  0.49000  0.44060  Biso   1.000  C
  C49      1.0000 0.16270  0.29040  0.55010  Biso   1.000  C
  La8      1.0000 0.60802  0.92785  0.11356  Biso   1.000  La
  O29      1.0000 0.63900  0.00150  0.00550  Biso   1.000  O
  O30      1.0000 0.68140  0.02870  0.89010  Biso   1.000  O
  O31      1.0000 0.67420  0.73470  0.04870  Biso   1.000  O
  O32      1.0000 0.63500  0.81660  0.10670  Biso   1.000  O
  N8       1.0000 0.66720  0.88710  0.98600  Biso   1.000  N
  C50      1.0000 0.68330  0.82840  0.98100  Biso   1.000  C
  C51      1.0000 0.71700  0.80580  0.91820  Biso   1.000  C
  H22      1.0000 0.72750  0.76470  0.91640  Biso   1.000  H
  C52      1.0000 0.73500  0.84460  0.85810  Biso   1.000  C
  H23      1.0000 0.75790  0.83030  0.81530  Biso   1.000  H
  C53      1.0000 0.71810  0.90570  0.86270  Biso   1.000  C
  H24      1.0000 0.72880  0.93300  0.82240  Biso   1.000  H
  C54      1.0000 0.68530  0.92480  0.92790  Biso   1.000  C
  C55      1.0000 0.66710  0.99000  0.94060  Biso   1.000  C
  C56      1.0000 0.66270  0.79040  0.05010  Biso   1.000  C
  La9      1.0000 0.67785  0.64198  0.13644  Biso   1.000  La
  O33      1.0000 0.75150  0.61100  0.24450  Biso   1.000  O
  O34      1.0000 0.77870  0.56860  0.35990  Biso   1.000  O
  O35      1.0000 0.48470  0.57580  0.20130  Biso   1.000  O
  O36      1.0000 0.56660  0.61500  0.14330  Biso   1.000  O
  N9       1.0000 0.63710  0.58280  0.26400  Biso   1.000  N
  C57      1.0000 0.57840  0.56670  0.26900  Biso   1.000  C
  C58      1.0000 0.55580  0.53300  0.33180  Biso   1.000  C
  H25      1.0000 0.51470  0.52250  0.33360  Biso   1.000  H
  C59      1.0000 0.59460  0.51500  0.39190  Biso   1.000  C
  H26      1.0000 0.58030  0.49210  0.43470  Biso   1.000  H
  C60      1.0000 0.65570  0.53190  0.38730  Biso   1.000  C
  H27      1.0000 0.68300  0.52120  0.42760  Biso   1.000  H
  C61      1.0000 0.67480  0.56470  0.32210  Biso   1.000  C
  C62      1.0000 0.74000  0.58290  0.30940  Biso   1.000  C
  C63      1.0000 0.54040  0.58730  0.19990  Biso   1.000  C
  La10     1.0000 0.17785  0.14198  0.63644  Biso   1.000  La
  O37      1.0000 0.25150  0.11100  0.74450  Biso   1.000  O
  O38      1.0000 0.27870  0.06860  0.85990  Biso   1.000  O
  O39      1.0000 0.98470  0.07580  0.70130  Biso   1.000  O
  O40      1.0000 0.06660  0.11500  0.64330  Biso   1.000  O
  N10      1.0000 0.13710  0.08280  0.76400  Biso   1.000  N
  C64      1.0000 0.07840  0.06670  0.76900  Biso   1.000  C
  C65      1.0000 0.05580  0.03300  0.83180  Biso   1.000  C
  H28      1.0000 0.01470  0.02250  0.83360  Biso   1.000  H
  C66      1.0000 0.09460  0.01500  0.89190  Biso   1.000  C
  H29      1.0000 0.08030  0.99210  0.93470  Biso   1.000  H
  C67      1.0000 0.15570  0.03190  0.88730  Biso   1.000  C
  H30      1.0000 0.18300  0.02120  0.92760  Biso   1.000  H
  C68      1.0000 0.17480  0.06470  0.82210  Biso   1.000  C
  C69      1.0000 0.24000  0.08290  0.80940  Biso   1.000  C
  C70      1.0000 0.04040  0.08730  0.69990  Biso   1.000  C
  La11     1.0000 0.82215  0.35802  0.63644  Biso   1.000  La
  O41      1.0000 0.74850  0.38900  0.74450  Biso   1.000  O
  O42      1.0000 0.72130  0.43140  0.85990  Biso   1.000  O
  O43      1.0000 0.01530  0.42420  0.70130  Biso   1.000  O
  O44      1.0000 0.93340  0.38500  0.64330  Biso   1.000  O
  N11      1.0000 0.86290  0.41720  0.76400  Biso   1.000  N
  C71      1.0000 0.92160  0.43330  0.76900  Biso   1.000  C
  C72      1.0000 0.94420  0.46700  0.83180  Biso   1.000  C
  H31      1.0000 0.98530  0.47750  0.83360  Biso   1.000  H
  C73      1.0000 0.90540  0.48500  0.89190  Biso   1.000  C
  H32      1.0000 0.91970  0.50790  0.93470  Biso   1.000  H
  C74      1.0000 0.84430  0.46810  0.88730  Biso   1.000  C
  H33      1.0000 0.81700  0.47880  0.92760  Biso   1.000  H
  C75      1.0000 0.82520  0.43530  0.82210  Biso   1.000  C
  C76      1.0000 0.76000  0.41710  0.80940  Biso   1.000  C
  C77      1.0000 0.95960  0.41270  0.69990  Biso   1.000  C
  La12     1.0000 0.32215  0.85802  0.13644  Biso   1.000  La
  O45      1.0000 0.24850  0.88900  0.24450  Biso   1.000  O
  O46      1.0000 0.22130  0.93140  0.35990  Biso   1.000  O
  O47      1.0000 0.51530  0.92420  0.20130  Biso   1.000  O
  O48      1.0000 0.43340  0.88500  0.14330  Biso   1.000  O
  N12      1.0000 0.36290  0.91720  0.26400  Biso   1.000  N
  C78      1.0000 0.42160  0.93330  0.26900  Biso   1.000  C
  C79      1.0000 0.44420  0.96700  0.33180  Biso   1.000  C
  H34      1.0000 0.48530  0.97750  0.33360  Biso   1.000  H
  C80      1.0000 0.40540  0.98500  0.39190  Biso   1.000  C
  H35      1.0000 0.41970  0.00790  0.43470  Biso   1.000  H
  C81      1.0000 0.34430  0.96810  0.38730  Biso   1.000  C
  H36      1.0000 0.31700  0.97880  0.42760  Biso   1.000  H
  C82      1.0000 0.32520  0.93530  0.32210  Biso   1.000  C
  C83      1.0000 0.26000  0.91710  0.30940  Biso   1.000  C
  C84      1.0000 0.45960  0.91270  0.19990  Biso   1.000  C
  La13     1.0000 0.60802  0.42785  0.88644  Biso   1.000  La
  O49      1.0000 0.63900  0.50150  0.99450  Biso   1.000  O
  O50      1.0000 0.68140  0.52870  0.10990  Biso   1.000  O
  O51      1.0000 0.67420  0.23470  0.95130  Biso   1.000  O
  O52      1.0000 0.63500  0.31660  0.89330  Biso   1.000  O
  N13      1.0000 0.66720  0.38710  0.01400  Biso   1.000  N
  C85      1.0000 0.68330  0.32840  0.01900  Biso   1.000  C
  C86      1.0000 0.71700  0.30580  0.08180  Biso   1.000  C
  H37      1.0000 0.72750  0.26470  0.08360  Biso   1.000  H
  C87      1.0000 0.73500  0.34460  0.14190  Biso   1.000  C
  H38      1.0000 0.75790  0.33030  0.18470  Biso   1.000  H
  C88      1.0000 0.71810  0.40570  0.13730  Biso   1.000  C
  H39      1.0000 0.72880  0.43300  0.17760  Biso   1.000  H
  C89      1.0000 0.68530  0.42480  0.07210  Biso   1.000  C
  C90      1.0000 0.66710  0.49000  0.05940  Biso   1.000  C
  C91      1.0000 0.66270  0.29040  0.94990  Biso   1.000  C
  La14     1.0000 0.10802  0.92785  0.38644  Biso   1.000  La
  O53      1.0000 0.13900  0.00150  0.49450  Biso   1.000  O
  O54      1.0000 0.18140  0.02870  0.60990  Biso   1.000  O
  O55      1.0000 0.17420  0.73470  0.45130  Biso   1.000  O
  O56      1.0000 0.13500  0.81660  0.39330  Biso   1.000  O
  N14      1.0000 0.16720  0.88710  0.51400  Biso   1.000  N
  C92      1.0000 0.18330  0.82840  0.51900  Biso   1.000  C
  C93      1.0000 0.21700  0.80580  0.58180  Biso   1.000  C
  H40      1.0000 0.22750  0.76470  0.58360  Biso   1.000  H
  C94      1.0000 0.23500  0.84460  0.64190  Biso   1.000  C
  H41      1.0000 0.25790  0.83030  0.68470  Biso   1.000  H
  C95      1.0000 0.21810  0.90570  0.63730  Biso   1.000  C
  H42      1.0000 0.22880  0.93300  0.67760  Biso   1.000  H
  C96      1.0000 0.18530  0.92480  0.57210  Biso   1.000  C
  C97      1.0000 0.16710  0.99000  0.55940  Biso   1.000  C
  C98      1.0000 0.16270  0.79040  0.44990  Biso   1.000  C
  La15     1.0000 0.89198  0.57215  0.38644  Biso   1.000  La
  O57      1.0000 0.86100  0.49850  0.49450  Biso   1.000  O
  O58      1.0000 0.81860  0.47130  0.60990  Biso   1.000  O
  O59      1.0000 0.82580  0.76530  0.45130  Biso   1.000  O
  O60      1.0000 0.86500  0.68340  0.39330  Biso   1.000  O
  N15      1.0000 0.83280  0.61290  0.51400  Biso   1.000  N
  C99      1.0000 0.81670  0.67160  0.51900  Biso   1.000  C
  C100     1.0000 0.78300  0.69420  0.58180  Biso   1.000  C
  H43      1.0000 0.77250  0.73530  0.58360  Biso   1.000  H
  C101     1.0000 0.76500  0.65540  0.64190  Biso   1.000  C
  H44      1.0000 0.74210  0.66970  0.68470  Biso   1.000  H
  C102     1.0000 0.78190  0.59430  0.63730  Biso   1.000  C
  H45      1.0000 0.77120  0.56700  0.67760  Biso   1.000  H
  C103     1.0000 0.81470  0.57520  0.57210  Biso   1.000  C
  C104     1.0000 0.83290  0.51000  0.55940  Biso   1.000  C
  C105     1.0000 0.83730  0.70960  0.44990  Biso   1.000  C
  La16     1.0000 0.39198  0.07215  0.88644  Biso   1.000  La
  O61      1.0000 0.36100  0.99850  0.99450  Biso   1.000  O
  O62      1.0000 0.31860  0.97130  0.10990  Biso   1.000  O
  O63      1.0000 0.32580  0.26530  0.95130  Biso   1.000  O
  O64      1.0000 0.36500  0.18340  0.89330  Biso   1.000  O
  N16      1.0000 0.33280  0.11290  0.01400  Biso   1.000  N
  C106     1.0000 0.31670  0.17160  0.01900  Biso   1.000  C
  C107     1.0000 0.28300  0.19420  0.08180  Biso   1.000  C
  H46      1.0000 0.27250  0.23530  0.08360  Biso   1.000  H
  C108     1.0000 0.26500  0.15540  0.14190  Biso   1.000  C
  H47      1.0000 0.24210  0.16970  0.18470  Biso   1.000  H
  C109     1.0000 0.28190  0.09430  0.13730  Biso   1.000  C
  H48      1.0000 0.27120  0.06700  0.17760  Biso   1.000  H
  C110     1.0000 0.31470  0.07520  0.07210  Biso   1.000  C
  C111     1.0000 0.33290  0.01000  0.05940  Biso   1.000  C
  C112     1.0000 0.33730  0.20960  0.94990  Biso   1.000  C
