data_image0
_cell_length_a       21.751
_cell_length_b       21.751
_cell_length_c       16.1438
_cell_angle_alpha    90
_cell_angle_beta     90
_cell_angle_gamma    90

_symmetry_space_group_name_H-M    "P 1"
_symmetry_int_tables_number       1

loop_
  _symmetry_equiv_pos_as_xyz
  'x, y, z'

loop_
  _atom_site_label
  _atom_site_occupancy
  _atom_site_fract_x
  _atom_site_fract_y
  _atom_site_fract_z
  _atom_site_thermal_displace_type
  _atom_site_B_iso_or_equiv
  _atom_site_type_symbol
  Tm1      1.0000 0.11795  0.08566  0.12396  Biso   1.000  Tm
  O1       1.0000 0.22380  0.07340  0.15360  Biso   1.000  O
  O2       1.0000 0.25550  0.11120  0.27440  Biso   1.000  O
  O3       1.0000 0.44030  0.11590  0.36770  Biso   1.000  O
  O4       1.0000 0.52480  0.08220  0.30270  Biso   1.000  O
  N1       1.0000 0.36880  0.07990  0.24770  Biso   1.000  N
  C1       1.0000 0.26420  0.08460  0.20510  Biso   1.000  C
  C2       1.0000 0.32930  0.06340  0.18860  Biso   1.000  C
  C3       1.0000 0.34700  0.03080  0.12120  Biso   1.000  C
  H1       1.0000 0.31910  0.02010  0.08000  Biso   1.000  H
  C4       1.0000 0.40810  0.01400  0.11590  Biso   1.000  C
  H2       1.0000 0.42140  0.99050  0.07110  Biso   1.000  H
  C5       1.0000 0.44860  0.03080  0.17390  Biso   1.000  C
  H3       1.0000 0.48990  0.01970  0.16990  Biso   1.000  H
  C6       1.0000 0.42760  0.06460  0.23910  Biso   1.000  C
  C7       1.0000 0.46870  0.08940  0.30740  Biso   1.000  C
  Tm2      1.0000 0.61795  0.58566  0.62396  Biso   1.000  Tm
  O5       1.0000 0.72380  0.57340  0.65360  Biso   1.000  O
  O6       1.0000 0.75550  0.61120  0.77440  Biso   1.000  O
  O7       1.0000 0.94030  0.61590  0.86770  Biso   1.000  O
  O8       1.0000 0.02480  0.58220  0.80270  Biso   1.000  O
  N2       1.0000 0.86880  0.57990  0.74770  Biso   1.000  N
  C8       1.0000 0.76420  0.58460  0.70510  Biso   1.000  C
  C9       1.0000 0.82930  0.56340  0.68860  Biso   1.000  C
  C10      1.0000 0.84700  0.53080  0.62120  Biso   1.000  C
  H4       1.0000 0.81910  0.52010  0.58000  Biso   1.000  H
  C11      1.0000 0.90810  0.51400  0.61590  Biso   1.000  C
  H5       1.0000 0.92140  0.49050  0.57110  Biso   1.000  H
  C12      1.0000 0.94860  0.53080  0.67390  Biso   1.000  C
  H6       1.0000 0.98990  0.51970  0.66990  Biso   1.000  H
  C13      1.0000 0.92760  0.56460  0.73910  Biso   1.000  C
  C14      1.0000 0.96870  0.58940  0.80740  Biso   1.000  C
  Tm3      1.0000 0.38205  0.91434  0.62396  Biso   1.000  Tm
  O9       1.0000 0.27620  0.92660  0.65360  Biso   1.000  O
  O10      1.0000 0.24450  0.88880  0.77440  Biso   1.000  O
  O11      1.0000 0.05970  0.88410  0.86770  Biso   1.000  O
  O12      1.0000 0.97520  0.91780  0.80270  Biso   1.000  O
  N3       1.0000 0.13120  0.92010  0.74770  Biso   1.000  N
  C15      1.0000 0.23580  0.91540  0.70510  Biso   1.000  C
  C16      1.0000 0.17070  0.93660  0.68860  Biso   1.000  C
  C17      1.0000 0.15300  0.96920  0.62120  Biso   1.000  C
  H7       1.0000 0.18090  0.97990  0.58000  Biso   1.000  H
  C18      1.0000 0.09190  0.98600  0.61590  Biso   1.000  C
  H8       1.0000 0.07860  0.00950  0.57110  Biso   1.000  H
  C19      1.0000 0.05140  0.96920  0.67390  Biso   1.000  C
  H9       1.0000 0.01010  0.98030  0.66990  Biso   1.000  H
  C20      1.0000 0.07240  0.93540  0.73910  Biso   1.000  C
  C21      1.0000 0.03130  0.91060  0.80740  Biso   1.000  C
  Tm4      1.0000 0.88205  0.41434  0.12396  Biso   1.000  Tm
  O13      1.0000 0.77620  0.42660  0.15360  Biso   1.000  O
  O14      1.0000 0.74450  0.38880  0.27440  Biso   1.000  O
  O15      1.0000 0.55970  0.38410  0.36770  Biso   1.000  O
  O16      1.0000 0.47520  0.41780  0.30270  Biso   1.000  O
  N4       1.0000 0.63120  0.42010  0.24770  Biso   1.000  N
  C22      1.0000 0.73580  0.41540  0.20510  Biso   1.000  C
  C23      1.0000 0.67070  0.43660  0.18860  Biso   1.000  C
  C24      1.0000 0.65300  0.46920  0.12120  Biso   1.000  C
  H10      1.0000 0.68090  0.47990  0.08000  Biso   1.000  H
  C25      1.0000 0.59190  0.48600  0.11590  Biso   1.000  C
  H11      1.0000 0.57860  0.50950  0.07110  Biso   1.000  H
  C26      1.0000 0.55140  0.46920  0.17390  Biso   1.000  C
  H12      1.0000 0.51010  0.48030  0.16990  Biso   1.000  H
  C27      1.0000 0.57240  0.43540  0.23910  Biso   1.000  C
  C28      1.0000 0.53130  0.41060  0.30740  Biso   1.000  C
  Tm5      1.0000 0.66434  0.36795  0.37396  Biso   1.000  Tm
  O17      1.0000 0.67660  0.47380  0.40360  Biso   1.000  O
  O18      1.0000 0.63880  0.50550  0.52440  Biso   1.000  O
  O19      1.0000 0.63410  0.69030  0.61770  Biso   1.000  O
  O20      1.0000 0.66780  0.77480  0.55270  Biso   1.000  O
  N5       1.0000 0.67010  0.61880  0.49770  Biso   1.000  N
  C29      1.0000 0.66540  0.51420  0.45510  Biso   1.000  C
  C30      1.0000 0.68660  0.57930  0.43860  Biso   1.000  C
  C31      1.0000 0.71920  0.59700  0.37120  Biso   1.000  C
  H13      1.0000 0.72990  0.56910  0.33000  Biso   1.000  H
  C32      1.0000 0.73600  0.65810  0.36590  Biso   1.000  C
  H14      1.0000 0.75950  0.67140  0.32110  Biso   1.000  H
  C33      1.0000 0.71920  0.69860  0.42390  Biso   1.000  C
  H15      1.0000 0.73030  0.73990  0.41990  Biso   1.000  H
  C34      1.0000 0.68540  0.67760  0.48910  Biso   1.000  C
  C35      1.0000 0.66060  0.71870  0.55740  Biso   1.000  C
  Tm6      1.0000 0.16434  0.86795  0.87396  Biso   1.000  Tm
  O21      1.0000 0.17660  0.97380  0.90360  Biso   1.000  O
  O22      1.0000 0.13880  0.00550  0.02440  Biso   1.000  O
  O23      1.0000 0.13410  0.19030  0.11770  Biso   1.000  O
  O24      1.0000 0.16780  0.27480  0.05270  Biso   1.000  O
  N6       1.0000 0.17010  0.11880  0.99770  Biso   1.000  N
  C36      1.0000 0.16540  0.01420  0.95510  Biso   1.000  C
  C37      1.0000 0.18660  0.07930  0.93860  Biso   1.000  C
  C38      1.0000 0.21920  0.09700  0.87120  Biso   1.000  C
  H16      1.0000 0.22990  0.06910  0.83000  Biso   1.000  H
  C39      1.0000 0.23600  0.15810  0.86590  Biso   1.000  C
  H17      1.0000 0.25950  0.17140  0.82110  Biso   1.000  H
  C40      1.0000 0.21920  0.19860  0.92390  Biso   1.000  C
  H18      1.0000 0.23030  0.23990  0.91990  Biso   1.000  H
  C41      1.0000 0.18540  0.17760  0.98910  Biso   1.000  C
  C42      1.0000 0.16060  0.21870  0.05740  Biso   1.000  C
  Tm7      1.0000 0.83566  0.63205  0.87396  Biso   1.000  Tm
  O25      1.0000 0.82340  0.52620  0.90360  Biso   1.000  O
  O26      1.0000 0.86120  0.49450  0.02440  Biso   1.000  O
  O27      1.0000 0.86590  0.30970  0.11770  Biso   1.000  O
  O28      1.0000 0.83220  0.22520  0.05270  Biso   1.000  O
  N7       1.0000 0.82990  0.38120  0.99770  Biso   1.000  N
  C43      1.0000 0.83460  0.48580  0.95510  Biso   1.000  C
  C44      1.0000 0.81340  0.42070  0.93860  Biso   1.000  C
  C45      1.0000 0.78080  0.40300  0.87120  Biso   1.000  C
  H19      1.0000 0.77010  0.43090  0.83000  Biso   1.000  H
  C46      1.0000 0.76400  0.34190  0.86590  Biso   1.000  C
  H20      1.0000 0.74050  0.32860  0.82110  Biso   1.000  H
  C47      1.0000 0.78080  0.30140  0.92390  Biso   1.000  C
  H21      1.0000 0.76970  0.26010  0.91990  Biso   1.000  H
  C48      1.0000 0.81460  0.32240  0.98910  Biso   1.000  C
  C49      1.0000 0.83940  0.28130  0.05740  Biso   1.000  C
  Tm8      1.0000 0.33566  0.13205  0.37396  Biso   1.000  Tm
  O29      1.0000 0.32340  0.02620  0.40360  Biso   1.000  O
  O30      1.0000 0.36120  0.99450  0.52440  Biso   1.000  O
  O31      1.0000 0.36590  0.80970  0.61770  Biso   1.000  O
  O32      1.0000 0.33220  0.72520  0.55270  Biso   1.000  O
  N8       1.0000 0.32990  0.88120  0.49770  Biso   1.000  N
  C50      1.0000 0.33460  0.98580  0.45510  Biso   1.000  C
  C51      1.0000 0.31340  0.92070  0.43860  Biso   1.000  C
  C52      1.0000 0.28080  0.90300  0.37120  Biso   1.000  C
  H22      1.0000 0.27010  0.93090  0.33000  Biso   1.000  H
  C53      1.0000 0.26400  0.84190  0.36590  Biso   1.000  C
  H23      1.0000 0.24050  0.82860  0.32110  Biso   1.000  H
  C54      1.0000 0.28080  0.80140  0.42390  Biso   1.000  C
  H24      1.0000 0.26970  0.76010  0.41990  Biso   1.000  H
  C55      1.0000 0.31460  0.82240  0.48910  Biso   1.000  C
  C56      1.0000 0.33940  0.78130  0.55740  Biso   1.000  C
  Tm9      1.0000 0.88205  0.91434  0.87604  Biso   1.000  Tm
  O33      1.0000 0.77620  0.92660  0.84640  Biso   1.000  O
  O34      1.0000 0.74450  0.88880  0.72560  Biso   1.000  O
  O35      1.0000 0.55970  0.88410  0.63230  Biso   1.000  O
  O36      1.0000 0.47520  0.91780  0.69730  Biso   1.000  O
  N9       1.0000 0.63120  0.92010  0.75230  Biso   1.000  N
  C57      1.0000 0.73580  0.91540  0.79490  Biso   1.000  C
  C58      1.0000 0.67070  0.93660  0.81140  Biso   1.000  C
  C59      1.0000 0.65300  0.96920  0.87880  Biso   1.000  C
  H25      1.0000 0.68090  0.97990  0.92000  Biso   1.000  H
  C60      1.0000 0.59190  0.98600  0.88410  Biso   1.000  C
  H26      1.0000 0.57860  0.00950  0.92890  Biso   1.000  H
  C61      1.0000 0.55140  0.96920  0.82610  Biso   1.000  C
  H27      1.0000 0.51010  0.98030  0.83010  Biso   1.000  H
  C62      1.0000 0.57240  0.93540  0.76090  Biso   1.000  C
  C63      1.0000 0.53130  0.91060  0.69260  Biso   1.000  C
  Tm10     1.0000 0.38205  0.41434  0.37604  Biso   1.000  Tm
  O37      1.0000 0.27620  0.42660  0.34640  Biso   1.000  O
  O38      1.0000 0.24450  0.38880  0.22560  Biso   1.000  O
  O39      1.0000 0.05970  0.38410  0.13230  Biso   1.000  O
  O40      1.0000 0.97520  0.41780  0.19730  Biso   1.000  O
  N10      1.0000 0.13120  0.42010  0.25230  Biso   1.000  N
  C64      1.0000 0.23580  0.41540  0.29490  Biso   1.000  C
  C65      1.0000 0.17070  0.43660  0.31140  Biso   1.000  C
  C66      1.0000 0.15300  0.46920  0.37880  Biso   1.000  C
  H28      1.0000 0.18090  0.47990  0.42000  Biso   1.000  H
  C67      1.0000 0.09190  0.48600  0.38410  Biso   1.000  C
  H29      1.0000 0.07860  0.50950  0.42890  Biso   1.000  H
  C68      1.0000 0.05140  0.46920  0.32610  Biso   1.000  C
  H30      1.0000 0.01010  0.48030  0.33010  Biso   1.000  H
  C69      1.0000 0.07240  0.43540  0.26090  Biso   1.000  C
  C70      1.0000 0.03130  0.41060  0.19260  Biso   1.000  C
  Tm11     1.0000 0.61795  0.08566  0.37604  Biso   1.000  Tm
  O41      1.0000 0.72380  0.07340  0.34640  Biso   1.000  O
  O42      1.0000 0.75550  0.11120  0.22560  Biso   1.000  O
  O43      1.0000 0.94030  0.11590  0.13230  Biso   1.000  O
  O44      1.0000 0.02480  0.08220  0.19730  Biso   1.000  O
  N11      1.0000 0.86880  0.07990  0.25230  Biso   1.000  N
  C71      1.0000 0.76420  0.08460  0.29490  Biso   1.000  C
  C72      1.0000 0.82930  0.06340  0.31140  Biso   1.000  C
  C73      1.0000 0.84700  0.03080  0.37880  Biso   1.000  C
  H31      1.0000 0.81910  0.02010  0.42000  Biso   1.000  H
  C74      1.0000 0.90810  0.01400  0.38410  Biso   1.000  C
  H32      1.0000 0.92140  0.99050  0.42890  Biso   1.000  H
  C75      1.0000 0.94860  0.03080  0.32610  Biso   1.000  C
  H33      1.0000 0.98990  0.01970  0.33010  Biso   1.000  H
  C76      1.0000 0.92760  0.06460  0.26090  Biso   1.000  C
  C77      1.0000 0.96870  0.08940  0.19260  Biso   1.000  C
  Tm12     1.0000 0.11795  0.58566  0.87604  Biso   1.000  Tm
  O45      1.0000 0.22380  0.57340  0.84640  Biso   1.000  O
  O46      1.0000 0.25550  0.61120  0.72560  Biso   1.000  O
  O47      1.0000 0.44030  0.61590  0.63230  Biso   1.000  O
  O48      1.0000 0.52480  0.58220  0.69730  Biso   1.000  O
  N12      1.0000 0.36880  0.57990  0.75230  Biso   1.000  N
  C78      1.0000 0.26420  0.58460  0.79490  Biso   1.000  C
  C79      1.0000 0.32930  0.56340  0.81140  Biso   1.000  C
  C80      1.0000 0.34700  0.53080  0.87880  Biso   1.000  C
  H34      1.0000 0.31910  0.52010  0.92000  Biso   1.000  H
  C81      1.0000 0.40810  0.51400  0.88410  Biso   1.000  C
  H35      1.0000 0.42140  0.49050  0.92890  Biso   1.000  H
  C82      1.0000 0.44860  0.53080  0.82610  Biso   1.000  C
  H36      1.0000 0.48990  0.51970  0.83010  Biso   1.000  H
  C83      1.0000 0.42760  0.56460  0.76090  Biso   1.000  C
  C84      1.0000 0.46870  0.58940  0.69260  Biso   1.000  C
  Tm13     1.0000 0.33566  0.63205  0.62604  Biso   1.000  Tm
  O49      1.0000 0.32340  0.52620  0.59640  Biso   1.000  O
  O50      1.0000 0.36120  0.49450  0.47560  Biso   1.000  O
  O51      1.0000 0.36590  0.30970  0.38230  Biso   1.000  O
  O52      1.0000 0.33220  0.22520  0.44730  Biso   1.000  O
  N13      1.0000 0.32990  0.38120  0.50230  Biso   1.000  N
  C85      1.0000 0.33460  0.48580  0.54490  Biso   1.000  C
  C86      1.0000 0.31340  0.42070  0.56140  Biso   1.000  C
  C87      1.0000 0.28080  0.40300  0.62880  Biso   1.000  C
  H37      1.0000 0.27010  0.43090  0.67000  Biso   1.000  H
  C88      1.0000 0.26400  0.34190  0.63410  Biso   1.000  C
  H38      1.0000 0.24050  0.32860  0.67890  Biso   1.000  H
  C89      1.0000 0.28080  0.30140  0.57610  Biso   1.000  C
  H39      1.0000 0.26970  0.26010  0.58010  Biso   1.000  H
  C90      1.0000 0.31460  0.32240  0.51090  Biso   1.000  C
  C91      1.0000 0.33940  0.28130  0.44260  Biso   1.000  C
  Tm14     1.0000 0.83566  0.13205  0.12604  Biso   1.000  Tm
  O53      1.0000 0.82340  0.02620  0.09640  Biso   1.000  O
  O54      1.0000 0.86120  0.99450  0.97560  Biso   1.000  O
  O55      1.0000 0.86590  0.80970  0.88230  Biso   1.000  O
  O56      1.0000 0.83220  0.72520  0.94730  Biso   1.000  O
  N14      1.0000 0.82990  0.88120  0.00230  Biso   1.000  N
  C92      1.0000 0.83460  0.98580  0.04490  Biso   1.000  C
  C93      1.0000 0.81340  0.92070  0.06140  Biso   1.000  C
  C94      1.0000 0.78080  0.90300  0.12880  Biso   1.000  C
  H40      1.0000 0.77010  0.93090  0.17000  Biso   1.000  H
  C95      1.0000 0.76400  0.84190  0.13410  Biso   1.000  C
  H41      1.0000 0.74050  0.82860  0.17890  Biso   1.000  H
  C96      1.0000 0.78080  0.80140  0.07610  Biso   1.000  C
  H42      1.0000 0.76970  0.76010  0.08010  Biso   1.000  H
  C97      1.0000 0.81460  0.82240  0.01090  Biso   1.000  C
  C98      1.0000 0.83940  0.78130  0.94260  Biso   1.000  C
  Tm15     1.0000 0.16434  0.36795  0.12604  Biso   1.000  Tm
  O57      1.0000 0.17660  0.47380  0.09640  Biso   1.000  O
  O58      1.0000 0.13880  0.50550  0.97560  Biso   1.000  O
  O59      1.0000 0.13410  0.69030  0.88230  Biso   1.000  O
  O60      1.0000 0.16780  0.77480  0.94730  Biso   1.000  O
  N15      1.0000 0.17010  0.61880  0.00230  Biso   1.000  N
  C99      1.0000 0.16540  0.51420  0.04490  Biso   1.000  C
  C100     1.0000 0.18660  0.57930  0.06140  Biso   1.000  C
  C101     1.0000 0.21920  0.59700  0.12880  Biso   1.000  C
  H43      1.0000 0.22990  0.56910  0.17000  Biso   1.000  H
  C102     1.0000 0.23600  0.65810  0.13410  Biso   1.000  C
  H44      1.0000 0.25950  0.67140  0.17890  Biso   1.000  H
  C103     1.0000 0.21920  0.69860  0.07610  Biso   1.000  C
  H45      1.0000 0.23030  0.73990  0.08010  Biso   1.000  H
  C104     1.0000 0.18540  0.67760  0.01090  Biso   1.000  C
  C105     1.0000 0.16060  0.71870  0.94260  Biso   1.000  C
  Tm16     1.0000 0.66434  0.86795  0.62604  Biso   1.000  Tm
  O61      1.0000 0.67660  0.97380  0.59640  Biso   1.000  O
  O62      1.0000 0.63880  0.00550  0.47560  Biso   1.000  O
  O63      1.0000 0.63410  0.19030  0.38230  Biso   1.000  O
  O64      1.0000 0.66780  0.27480  0.44730  Biso   1.000  O
  N16      1.0000 0.67010  0.11880  0.50230  Biso   1.000  N
  C106     1.0000 0.66540  0.01420  0.54490  Biso   1.000  C
  C107     1.0000 0.68660  0.07930  0.56140  Biso   1.000  C
  C108     1.0000 0.71920  0.09700  0.62880  Biso   1.000  C
  H46      1.0000 0.72990  0.06910  0.67000  Biso   1.000  H
  C109     1.0000 0.73600  0.15810  0.63410  Biso   1.000  C
  H47      1.0000 0.75950  0.17140  0.67890  Biso   1.000  H
  C110     1.0000 0.71920  0.19860  0.57610  Biso   1.000  C
  H48      1.0000 0.73030  0.23990  0.58010  Biso   1.000  H
  C111     1.0000 0.68540  0.17760  0.51090  Biso   1.000  C
  C112     1.0000 0.66060  0.21870  0.44260  Biso   1.000  C
