data_image0
_cell_length_a       21.8154
_cell_length_b       21.8154
_cell_length_c       16.1967
_cell_angle_alpha    90
_cell_angle_beta     90
_cell_angle_gamma    90

_symmetry_space_group_name_H-M    "P 1"
_symmetry_int_tables_number       1

loop_
  _symmetry_equiv_pos_as_xyz
  'x, y, z'

loop_
  _atom_site_label
  _atom_site_occupancy
  _atom_site_fract_x
  _atom_site_fract_y
  _atom_site_fract_z
  _atom_site_thermal_displace_type
  _atom_site_B_iso_or_equiv
  _atom_site_type_symbol
  Y1       1.0000 0.33502  0.36759  0.87377  Biso   1.000  Y
  O1       1.0000 0.25470  0.38940  0.77450  Biso   1.000  O
  O2       1.0000 0.22380  0.42750  0.65380  Biso   1.000  O
  O3       1.0000 0.52410  0.41990  0.80410  Biso   1.000  O
  O4       1.0000 0.44190  0.38570  0.86720  Biso   1.000  O
  N1       1.0000 0.36860  0.42020  0.74740  Biso   1.000  N
  C1       1.0000 0.42720  0.43500  0.73880  Biso   1.000  C
  C2       1.0000 0.44920  0.46920  0.67120  Biso   1.000  C
  H1       1.0000 0.49040  0.47940  0.66590  Biso   1.000  H
  C3       1.0000 0.40640  0.48680  0.61330  Biso   1.000  C
  H2       1.0000 0.41870  0.51060  0.56870  Biso   1.000  H
  C4       1.0000 0.34500  0.46970  0.62020  Biso   1.000  C
  H3       1.0000 0.31630  0.48000  0.58000  Biso   1.000  H
  C5       1.0000 0.32920  0.43700  0.68890  Biso   1.000  C
  C6       1.0000 0.26460  0.41620  0.70450  Biso   1.000  C
  C7       1.0000 0.46750  0.41230  0.80770  Biso   1.000  C
  Y2       1.0000 0.83502  0.86759  0.37377  Biso   1.000  Y
  O5       1.0000 0.75470  0.88940  0.27450  Biso   1.000  O
  O6       1.0000 0.72380  0.92750  0.15380  Biso   1.000  O
  O7       1.0000 0.02410  0.91990  0.30410  Biso   1.000  O
  O8       1.0000 0.94190  0.88570  0.36720  Biso   1.000  O
  N2       1.0000 0.86860  0.92020  0.24740  Biso   1.000  N
  C8       1.0000 0.92720  0.93500  0.23880  Biso   1.000  C
  C9       1.0000 0.94920  0.96920  0.17120  Biso   1.000  C
  H4       1.0000 0.99040  0.97940  0.16590  Biso   1.000  H
  C10      1.0000 0.90640  0.98680  0.11330  Biso   1.000  C
  H5       1.0000 0.91870  0.01060  0.06870  Biso   1.000  H
  C11      1.0000 0.84500  0.96970  0.12020  Biso   1.000  C
  H6       1.0000 0.81630  0.98000  0.08000  Biso   1.000  H
  C12      1.0000 0.82920  0.93700  0.18890  Biso   1.000  C
  C13      1.0000 0.76460  0.91620  0.20450  Biso   1.000  C
  C14      1.0000 0.96750  0.91230  0.30770  Biso   1.000  C
  Y3       1.0000 0.16498  0.63241  0.37377  Biso   1.000  Y
  O9       1.0000 0.24530  0.61060  0.27450  Biso   1.000  O
  O10      1.0000 0.27620  0.57250  0.15380  Biso   1.000  O
  O11      1.0000 0.97590  0.58010  0.30410  Biso   1.000  O
  O12      1.0000 0.05810  0.61430  0.36720  Biso   1.000  O
  N3       1.0000 0.13140  0.57980  0.24740  Biso   1.000  N
  C15      1.0000 0.07280  0.56500  0.23880  Biso   1.000  C
  C16      1.0000 0.05080  0.53080  0.17120  Biso   1.000  C
  H7       1.0000 0.00960  0.52060  0.16590  Biso   1.000  H
  C17      1.0000 0.09360  0.51320  0.11330  Biso   1.000  C
  H8       1.0000 0.08130  0.48940  0.06870  Biso   1.000  H
  C18      1.0000 0.15500  0.53030  0.12020  Biso   1.000  C
  H9       1.0000 0.18370  0.52000  0.08000  Biso   1.000  H
  C19      1.0000 0.17080  0.56300  0.18890  Biso   1.000  C
  C20      1.0000 0.23540  0.58380  0.20450  Biso   1.000  C
  C21      1.0000 0.03250  0.58770  0.30770  Biso   1.000  C
  Y4       1.0000 0.66498  0.13241  0.87377  Biso   1.000  Y
  O13      1.0000 0.74530  0.11060  0.77450  Biso   1.000  O
  O14      1.0000 0.77620  0.07250  0.65380  Biso   1.000  O
  O15      1.0000 0.47590  0.08010  0.80410  Biso   1.000  O
  O16      1.0000 0.55810  0.11430  0.86720  Biso   1.000  O
  N4       1.0000 0.63140  0.07980  0.74740  Biso   1.000  N
  C22      1.0000 0.57280  0.06500  0.73880  Biso   1.000  C
  C23      1.0000 0.55080  0.03080  0.67120  Biso   1.000  C
  H10      1.0000 0.50960  0.02060  0.66590  Biso   1.000  H
  C24      1.0000 0.59360  0.01320  0.61330  Biso   1.000  C
  H11      1.0000 0.58130  0.98940  0.56870  Biso   1.000  H
  C25      1.0000 0.65500  0.03030  0.62020  Biso   1.000  C
  H12      1.0000 0.68370  0.02000  0.58000  Biso   1.000  H
  C26      1.0000 0.67080  0.06300  0.68890  Biso   1.000  C
  C27      1.0000 0.73540  0.08380  0.70450  Biso   1.000  C
  C28      1.0000 0.53250  0.08770  0.80770  Biso   1.000  C
  Y5       1.0000 0.38241  0.58502  0.12377  Biso   1.000  Y
  O17      1.0000 0.36060  0.50470  0.02450  Biso   1.000  O
  O18      1.0000 0.32250  0.47380  0.90380  Biso   1.000  O
  O19      1.0000 0.33010  0.77410  0.05410  Biso   1.000  O
  O20      1.0000 0.36430  0.69190  0.11720  Biso   1.000  O
  N5       1.0000 0.32980  0.61860  0.99740  Biso   1.000  N
  C29      1.0000 0.31500  0.67720  0.98880  Biso   1.000  C
  C30      1.0000 0.28080  0.69920  0.92120  Biso   1.000  C
  H13      1.0000 0.27060  0.74040  0.91590  Biso   1.000  H
  C31      1.0000 0.26320  0.65640  0.86330  Biso   1.000  C
  H14      1.0000 0.23940  0.66870  0.81870  Biso   1.000  H
  C32      1.0000 0.28030  0.59500  0.87020  Biso   1.000  C
  H15      1.0000 0.27000  0.56630  0.83000  Biso   1.000  H
  C33      1.0000 0.31300  0.57920  0.93890  Biso   1.000  C
  C34      1.0000 0.33380  0.51460  0.95450  Biso   1.000  C
  C35      1.0000 0.33770  0.71750  0.05770  Biso   1.000  C
  Y6       1.0000 0.88241  0.08502  0.62377  Biso   1.000  Y
  O21      1.0000 0.86060  0.00470  0.52450  Biso   1.000  O
  O22      1.0000 0.82250  0.97380  0.40380  Biso   1.000  O
  O23      1.0000 0.83010  0.27410  0.55410  Biso   1.000  O
  O24      1.0000 0.86430  0.19190  0.61720  Biso   1.000  O
  N6       1.0000 0.82980  0.11860  0.49740  Biso   1.000  N
  C36      1.0000 0.81500  0.17720  0.48880  Biso   1.000  C
  C37      1.0000 0.78080  0.19920  0.42120  Biso   1.000  C
  H16      1.0000 0.77060  0.24040  0.41590  Biso   1.000  H
  C38      1.0000 0.76320  0.15640  0.36330  Biso   1.000  C
  H17      1.0000 0.73940  0.16870  0.31870  Biso   1.000  H
  C39      1.0000 0.78030  0.09500  0.37020  Biso   1.000  C
  H18      1.0000 0.77000  0.06630  0.33000  Biso   1.000  H
  C40      1.0000 0.81300  0.07920  0.43890  Biso   1.000  C
  C41      1.0000 0.83380  0.01460  0.45450  Biso   1.000  C
  C42      1.0000 0.83770  0.21750  0.55770  Biso   1.000  C
  Y7       1.0000 0.11759  0.41498  0.62377  Biso   1.000  Y
  O25      1.0000 0.13940  0.49530  0.52450  Biso   1.000  O
  O26      1.0000 0.17750  0.52620  0.40380  Biso   1.000  O
  O27      1.0000 0.16990  0.22590  0.55410  Biso   1.000  O
  O28      1.0000 0.13570  0.30810  0.61720  Biso   1.000  O
  N7       1.0000 0.17020  0.38140  0.49740  Biso   1.000  N
  C43      1.0000 0.18500  0.32280  0.48880  Biso   1.000  C
  C44      1.0000 0.21920  0.30080  0.42120  Biso   1.000  C
  H19      1.0000 0.22940  0.25960  0.41590  Biso   1.000  H
  C45      1.0000 0.23680  0.34360  0.36330  Biso   1.000  C
  H20      1.0000 0.26060  0.33130  0.31870  Biso   1.000  H
  C46      1.0000 0.21970  0.40500  0.37020  Biso   1.000  C
  H21      1.0000 0.23000  0.43370  0.33000  Biso   1.000  H
  C47      1.0000 0.18700  0.42080  0.43890  Biso   1.000  C
  C48      1.0000 0.16620  0.48540  0.45450  Biso   1.000  C
  C49      1.0000 0.16230  0.28250  0.55770  Biso   1.000  C
  Y8       1.0000 0.61759  0.91498  0.12377  Biso   1.000  Y
  O29      1.0000 0.63940  0.99530  0.02450  Biso   1.000  O
  O30      1.0000 0.67750  0.02620  0.90380  Biso   1.000  O
  O31      1.0000 0.66990  0.72590  0.05410  Biso   1.000  O
  O32      1.0000 0.63570  0.80810  0.11720  Biso   1.000  O
  N8       1.0000 0.67020  0.88140  0.99740  Biso   1.000  N
  C50      1.0000 0.68500  0.82280  0.98880  Biso   1.000  C
  C51      1.0000 0.71920  0.80080  0.92120  Biso   1.000  C
  H22      1.0000 0.72940  0.75960  0.91590  Biso   1.000  H
  C52      1.0000 0.73680  0.84360  0.86330  Biso   1.000  C
  H23      1.0000 0.76060  0.83130  0.81870  Biso   1.000  H
  C53      1.0000 0.71970  0.90500  0.87020  Biso   1.000  C
  H24      1.0000 0.73000  0.93370  0.83000  Biso   1.000  H
  C54      1.0000 0.68700  0.92080  0.93890  Biso   1.000  C
  C55      1.0000 0.66620  0.98540  0.95450  Biso   1.000  C
  C56      1.0000 0.66230  0.78250  0.05770  Biso   1.000  C
  Y9       1.0000 0.66498  0.63241  0.12623  Biso   1.000  Y
  O33      1.0000 0.74530  0.61060  0.22550  Biso   1.000  O
  O34      1.0000 0.77620  0.57250  0.34620  Biso   1.000  O
  O35      1.0000 0.47590  0.58010  0.19590  Biso   1.000  O
  O36      1.0000 0.55810  0.61430  0.13280  Biso   1.000  O
  N9       1.0000 0.63140  0.57980  0.25260  Biso   1.000  N
  C57      1.0000 0.57280  0.56500  0.26120  Biso   1.000  C
  C58      1.0000 0.55080  0.53080  0.32880  Biso   1.000  C
  H25      1.0000 0.50960  0.52060  0.33410  Biso   1.000  H
  C59      1.0000 0.59360  0.51320  0.38670  Biso   1.000  C
  H26      1.0000 0.58130  0.48940  0.43130  Biso   1.000  H
  C60      1.0000 0.65500  0.53030  0.37980  Biso   1.000  C
  H27      1.0000 0.68370  0.52000  0.42000  Biso   1.000  H
  C61      1.0000 0.67080  0.56300  0.31110  Biso   1.000  C
  C62      1.0000 0.73540  0.58380  0.29550  Biso   1.000  C
  C63      1.0000 0.53250  0.58770  0.19230  Biso   1.000  C
  Y10      1.0000 0.16498  0.13241  0.62623  Biso   1.000  Y
  O37      1.0000 0.24530  0.11060  0.72550  Biso   1.000  O
  O38      1.0000 0.27620  0.07250  0.84620  Biso   1.000  O
  O39      1.0000 0.97590  0.08010  0.69590  Biso   1.000  O
  O40      1.0000 0.05810  0.11430  0.63280  Biso   1.000  O
  N10      1.0000 0.13140  0.07980  0.75260  Biso   1.000  N
  C64      1.0000 0.07280  0.06500  0.76120  Biso   1.000  C
  C65      1.0000 0.05080  0.03080  0.82880  Biso   1.000  C
  H28      1.0000 0.00960  0.02060  0.83410  Biso   1.000  H
  C66      1.0000 0.09360  0.01320  0.88670  Biso   1.000  C
  H29      1.0000 0.08130  0.98940  0.93130  Biso   1.000  H
  C67      1.0000 0.15500  0.03030  0.87980  Biso   1.000  C
  H30      1.0000 0.18370  0.02000  0.92000  Biso   1.000  H
  C68      1.0000 0.17080  0.06300  0.81110  Biso   1.000  C
  C69      1.0000 0.23540  0.08380  0.79550  Biso   1.000  C
  C70      1.0000 0.03250  0.08770  0.69230  Biso   1.000  C
  Y11      1.0000 0.83502  0.36759  0.62623  Biso   1.000  Y
  O41      1.0000 0.75470  0.38940  0.72550  Biso   1.000  O
  O42      1.0000 0.72380  0.42750  0.84620  Biso   1.000  O
  O43      1.0000 0.02410  0.41990  0.69590  Biso   1.000  O
  O44      1.0000 0.94190  0.38570  0.63280  Biso   1.000  O
  N11      1.0000 0.86860  0.42020  0.75260  Biso   1.000  N
  C71      1.0000 0.92720  0.43500  0.76120  Biso   1.000  C
  C72      1.0000 0.94920  0.46920  0.82880  Biso   1.000  C
  H31      1.0000 0.99040  0.47940  0.83410  Biso   1.000  H
  C73      1.0000 0.90640  0.48680  0.88670  Biso   1.000  C
  H32      1.0000 0.91870  0.51060  0.93130  Biso   1.000  H
  C74      1.0000 0.84500  0.46970  0.87980  Biso   1.000  C
  H33      1.0000 0.81630  0.48000  0.92000  Biso   1.000  H
  C75      1.0000 0.82920  0.43700  0.81110  Biso   1.000  C
  C76      1.0000 0.76460  0.41620  0.79550  Biso   1.000  C
  C77      1.0000 0.96750  0.41230  0.69230  Biso   1.000  C
  Y12      1.0000 0.33502  0.86759  0.12623  Biso   1.000  Y
  O45      1.0000 0.25470  0.88940  0.22550  Biso   1.000  O
  O46      1.0000 0.22380  0.92750  0.34620  Biso   1.000  O
  O47      1.0000 0.52410  0.91990  0.19590  Biso   1.000  O
  O48      1.0000 0.44190  0.88570  0.13280  Biso   1.000  O
  N12      1.0000 0.36860  0.92020  0.25260  Biso   1.000  N
  C78      1.0000 0.42720  0.93500  0.26120  Biso   1.000  C
  C79      1.0000 0.44920  0.96920  0.32880  Biso   1.000  C
  H34      1.0000 0.49040  0.97940  0.33410  Biso   1.000  H
  C80      1.0000 0.40640  0.98680  0.38670  Biso   1.000  C
  H35      1.0000 0.41870  0.01060  0.43130  Biso   1.000  H
  C81      1.0000 0.34500  0.96970  0.37980  Biso   1.000  C
  H36      1.0000 0.31630  0.98000  0.42000  Biso   1.000  H
  C82      1.0000 0.32920  0.93700  0.31110  Biso   1.000  C
  C83      1.0000 0.26460  0.91620  0.29550  Biso   1.000  C
  C84      1.0000 0.46750  0.91230  0.19230  Biso   1.000  C
  Y13      1.0000 0.61759  0.41498  0.87623  Biso   1.000  Y
  O49      1.0000 0.63940  0.49530  0.97550  Biso   1.000  O
  O50      1.0000 0.67750  0.52620  0.09620  Biso   1.000  O
  O51      1.0000 0.66990  0.22590  0.94590  Biso   1.000  O
  O52      1.0000 0.63570  0.30810  0.88280  Biso   1.000  O
  N13      1.0000 0.67020  0.38140  0.00260  Biso   1.000  N
  C85      1.0000 0.68500  0.32280  0.01120  Biso   1.000  C
  C86      1.0000 0.71920  0.30080  0.07880  Biso   1.000  C
  H37      1.0000 0.72940  0.25960  0.08410  Biso   1.000  H
  C87      1.0000 0.73680  0.34360  0.13670  Biso   1.000  C
  H38      1.0000 0.76060  0.33130  0.18130  Biso   1.000  H
  C88      1.0000 0.71970  0.40500  0.12980  Biso   1.000  C
  H39      1.0000 0.73000  0.43370  0.17000  Biso   1.000  H
  C89      1.0000 0.68700  0.42080  0.06110  Biso   1.000  C
  C90      1.0000 0.66620  0.48540  0.04550  Biso   1.000  C
  C91      1.0000 0.66230  0.28250  0.94230  Biso   1.000  C
  Y14      1.0000 0.11759  0.91498  0.37623  Biso   1.000  Y
  O53      1.0000 0.13940  0.99530  0.47550  Biso   1.000  O
  O54      1.0000 0.17750  0.02620  0.59620  Biso   1.000  O
  O55      1.0000 0.16990  0.72590  0.44590  Biso   1.000  O
  O56      1.0000 0.13570  0.80810  0.38280  Biso   1.000  O
  N14      1.0000 0.17020  0.88140  0.50260  Biso   1.000  N
  C92      1.0000 0.18500  0.82280  0.51120  Biso   1.000  C
  C93      1.0000 0.21920  0.80080  0.57880  Biso   1.000  C
  H40      1.0000 0.22940  0.75960  0.58410  Biso   1.000  H
  C94      1.0000 0.23680  0.84360  0.63670  Biso   1.000  C
  H41      1.0000 0.26060  0.83130  0.68130  Biso   1.000  H
  C95      1.0000 0.21970  0.90500  0.62980  Biso   1.000  C
  H42      1.0000 0.23000  0.93370  0.67000  Biso   1.000  H
  C96      1.0000 0.18700  0.92080  0.56110  Biso   1.000  C
  C97      1.0000 0.16620  0.98540  0.54550  Biso   1.000  C
  C98      1.0000 0.16230  0.78250  0.44230  Biso   1.000  C
  Y15      1.0000 0.88241  0.58502  0.37623  Biso   1.000  Y
  O57      1.0000 0.86060  0.50470  0.47550  Biso   1.000  O
  O58      1.0000 0.82250  0.47380  0.59620  Biso   1.000  O
  O59      1.0000 0.83010  0.77410  0.44590  Biso   1.000  O
  O60      1.0000 0.86430  0.69190  0.38280  Biso   1.000  O
  N15      1.0000 0.82980  0.61860  0.50260  Biso   1.000  N
  C99      1.0000 0.81500  0.67720  0.51120  Biso   1.000  C
  C100     1.0000 0.78080  0.69920  0.57880  Biso   1.000  C
  H43      1.0000 0.77060  0.74040  0.58410  Biso   1.000  H
  C101     1.0000 0.76320  0.65640  0.63670  Biso   1.000  C
  H44      1.0000 0.73940  0.66870  0.68130  Biso   1.000  H
  C102     1.0000 0.78030  0.59500  0.62980  Biso   1.000  C
  H45      1.0000 0.77000  0.56630  0.67000  Biso   1.000  H
  C103     1.0000 0.81300  0.57920  0.56110  Biso   1.000  C
  C104     1.0000 0.83380  0.51460  0.54550  Biso   1.000  C
  C105     1.0000 0.83770  0.71750  0.44230  Biso   1.000  C
  Y16      1.0000 0.38241  0.08502  0.87623  Biso   1.000  Y
  O61      1.0000 0.36060  0.00470  0.97550  Biso   1.000  O
  O62      1.0000 0.32250  0.97380  0.09620  Biso   1.000  O
  O63      1.0000 0.33010  0.27410  0.94590  Biso   1.000  O
  O64      1.0000 0.36430  0.19190  0.88280  Biso   1.000  O
  N16      1.0000 0.32980  0.11860  0.00260  Biso   1.000  N
  C106     1.0000 0.31500  0.17720  0.01120  Biso   1.000  C
  C107     1.0000 0.28080  0.19920  0.07880  Biso   1.000  C
  H46      1.0000 0.27060  0.24040  0.08410  Biso   1.000  H
  C108     1.0000 0.26320  0.15640  0.13670  Biso   1.000  C
  H47      1.0000 0.23940  0.16870  0.18130  Biso   1.000  H
  C109     1.0000 0.28030  0.09500  0.12980  Biso   1.000  C
  H48      1.0000 0.27000  0.06630  0.17000  Biso   1.000  H
  C110     1.0000 0.31300  0.07920  0.06110  Biso   1.000  C
  C111     1.0000 0.33380  0.01460  0.04550  Biso   1.000  C
  C112     1.0000 0.33770  0.21750  0.94230  Biso   1.000  C
