data_image0
_cell_length_a       21.9314
_cell_length_b       21.9314
_cell_length_c       16.7059
_cell_angle_alpha    90
_cell_angle_beta     90
_cell_angle_gamma    90

_symmetry_space_group_name_H-M    "P 1"
_symmetry_int_tables_number       1

loop_
  _symmetry_equiv_pos_as_xyz
  'x, y, z'

loop_
  _atom_site_label
  _atom_site_occupancy
  _atom_site_fract_x
  _atom_site_fract_y
  _atom_site_fract_z
  _atom_site_thermal_displace_type
  _atom_site_B_iso_or_equiv
  _atom_site_type_symbol
  Pr1      1.0000 0.60950  0.57456  0.61564  Biso   1.000  Pr
  O1       1.0000 0.64070  0.49910  0.51080  Biso   1.000  O
  O2       1.0000 0.63640  0.68430  0.60910  Biso   1.000  O
  O3       1.0000 0.67340  0.76670  0.54970  Biso   1.000  O
  O4       1.0000 0.68090  0.47170  0.39400  Biso   1.000  O
  C1       1.0000 0.68310  0.67170  0.48380  Biso   1.000  C
  C2       1.0000 0.71700  0.69520  0.42090  Biso   1.000  C
  H1       1.0000 0.72780  0.73610  0.41900  Biso   1.000  H
  C3       1.0000 0.73430  0.65460  0.36030  Biso   1.000  C
  H2       1.0000 0.75680  0.66840  0.31670  Biso   1.000  H
  C4       1.0000 0.71790  0.59430  0.36570  Biso   1.000  C
  H3       1.0000 0.72820  0.56680  0.32550  Biso   1.000  H
  C5       1.0000 0.68610  0.57550  0.43170  Biso   1.000  C
  C6       1.0000 0.66750  0.51030  0.44560  Biso   1.000  C
  C7       1.0000 0.66330  0.71100  0.55230  Biso   1.000  C
  N1       1.0000 0.66790  0.61380  0.48930  Biso   1.000  N
  Pr2      1.0000 0.10950  0.07456  0.11564  Biso   1.000  Pr
  O5       1.0000 0.14070  0.99910  0.01080  Biso   1.000  O
  O6       1.0000 0.13640  0.18430  0.10910  Biso   1.000  O
  O7       1.0000 0.17340  0.26670  0.04970  Biso   1.000  O
  O8       1.0000 0.18090  0.97170  0.89400  Biso   1.000  O
  C8       1.0000 0.18310  0.17170  0.98380  Biso   1.000  C
  C9       1.0000 0.21700  0.19520  0.92090  Biso   1.000  C
  H4       1.0000 0.22780  0.23610  0.91900  Biso   1.000  H
  C10      1.0000 0.23430  0.15460  0.86030  Biso   1.000  C
  H5       1.0000 0.25680  0.16840  0.81670  Biso   1.000  H
  C11      1.0000 0.21790  0.09430  0.86570  Biso   1.000  C
  H6       1.0000 0.22820  0.06680  0.82550  Biso   1.000  H
  C12      1.0000 0.18610  0.07550  0.93170  Biso   1.000  C
  C13      1.0000 0.16750  0.01030  0.94560  Biso   1.000  C
  C14      1.0000 0.16330  0.21100  0.05230  Biso   1.000  C
  N2       1.0000 0.16790  0.11380  0.98930  Biso   1.000  N
  Pr3      1.0000 0.89050  0.42544  0.11564  Biso   1.000  Pr
  O9       1.0000 0.85930  0.50090  0.01080  Biso   1.000  O
  O10      1.0000 0.86360  0.31570  0.10910  Biso   1.000  O
  O11      1.0000 0.82660  0.23330  0.04970  Biso   1.000  O
  O12      1.0000 0.81910  0.52830  0.89400  Biso   1.000  O
  C15      1.0000 0.81690  0.32830  0.98380  Biso   1.000  C
  C16      1.0000 0.78300  0.30480  0.92090  Biso   1.000  C
  H7       1.0000 0.77220  0.26390  0.91900  Biso   1.000  H
  C17      1.0000 0.76570  0.34540  0.86030  Biso   1.000  C
  H8       1.0000 0.74320  0.33160  0.81670  Biso   1.000  H
  C18      1.0000 0.78210  0.40570  0.86570  Biso   1.000  C
  H9       1.0000 0.77180  0.43320  0.82550  Biso   1.000  H
  C19      1.0000 0.81390  0.42450  0.93170  Biso   1.000  C
  C20      1.0000 0.83250  0.48970  0.94560  Biso   1.000  C
  C21      1.0000 0.83670  0.28900  0.05230  Biso   1.000  C
  N3       1.0000 0.83210  0.38620  0.98930  Biso   1.000  N
  Pr4      1.0000 0.39050  0.92544  0.61564  Biso   1.000  Pr
  O13      1.0000 0.35930  0.00090  0.51080  Biso   1.000  O
  O14      1.0000 0.36360  0.81570  0.60910  Biso   1.000  O
  O15      1.0000 0.32660  0.73330  0.54970  Biso   1.000  O
  O16      1.0000 0.31910  0.02830  0.39400  Biso   1.000  O
  C22      1.0000 0.31690  0.82830  0.48380  Biso   1.000  C
  C23      1.0000 0.28300  0.80480  0.42090  Biso   1.000  C
  H10      1.0000 0.27220  0.76390  0.41900  Biso   1.000  H
  C24      1.0000 0.26570  0.84540  0.36030  Biso   1.000  C
  H11      1.0000 0.24320  0.83160  0.31670  Biso   1.000  H
  C25      1.0000 0.28210  0.90570  0.36570  Biso   1.000  C
  H12      1.0000 0.27180  0.93320  0.32550  Biso   1.000  H
  C26      1.0000 0.31390  0.92450  0.43170  Biso   1.000  C
  C27      1.0000 0.33250  0.98970  0.44560  Biso   1.000  C
  C28      1.0000 0.33670  0.78900  0.55230  Biso   1.000  C
  N4       1.0000 0.33210  0.88620  0.48930  Biso   1.000  N
  Pr5      1.0000 0.17544  0.85950  0.86564  Biso   1.000  Pr
  O17      1.0000 0.25090  0.89070  0.76080  Biso   1.000  O
  O18      1.0000 0.06570  0.88640  0.85910  Biso   1.000  O
  O19      1.0000 0.98330  0.92340  0.79970  Biso   1.000  O
  O20      1.0000 0.27830  0.93090  0.64400  Biso   1.000  O
  C29      1.0000 0.07830  0.93310  0.73380  Biso   1.000  C
  C30      1.0000 0.05480  0.96700  0.67090  Biso   1.000  C
  H13      1.0000 0.01390  0.97780  0.66900  Biso   1.000  H
  C31      1.0000 0.09540  0.98430  0.61030  Biso   1.000  C
  H14      1.0000 0.08160  0.00680  0.56670  Biso   1.000  H
  C32      1.0000 0.15570  0.96790  0.61570  Biso   1.000  C
  H15      1.0000 0.18320  0.97820  0.57550  Biso   1.000  H
  C33      1.0000 0.17450  0.93610  0.68170  Biso   1.000  C
  C34      1.0000 0.23970  0.91750  0.69560  Biso   1.000  C
  C35      1.0000 0.03900  0.91330  0.80230  Biso   1.000  C
  N5       1.0000 0.13620  0.91790  0.73930  Biso   1.000  N
  Pr6      1.0000 0.67544  0.35950  0.36564  Biso   1.000  Pr
  O21      1.0000 0.75090  0.39070  0.26080  Biso   1.000  O
  O22      1.0000 0.56570  0.38640  0.35910  Biso   1.000  O
  O23      1.0000 0.48330  0.42340  0.29970  Biso   1.000  O
  O24      1.0000 0.77830  0.43090  0.14400  Biso   1.000  O
  C36      1.0000 0.57830  0.43310  0.23380  Biso   1.000  C
  C37      1.0000 0.55480  0.46700  0.17090  Biso   1.000  C
  H16      1.0000 0.51390  0.47780  0.16900  Biso   1.000  H
  C38      1.0000 0.59540  0.48430  0.11030  Biso   1.000  C
  H17      1.0000 0.58160  0.50680  0.06670  Biso   1.000  H
  C39      1.0000 0.65570  0.46790  0.11570  Biso   1.000  C
  H18      1.0000 0.68320  0.47820  0.07550  Biso   1.000  H
  C40      1.0000 0.67450  0.43610  0.18170  Biso   1.000  C
  C41      1.0000 0.73970  0.41750  0.19560  Biso   1.000  C
  C42      1.0000 0.53900  0.41330  0.30230  Biso   1.000  C
  N6       1.0000 0.63620  0.41790  0.23930  Biso   1.000  N
  Pr7      1.0000 0.32456  0.14050  0.36564  Biso   1.000  Pr
  O25      1.0000 0.24910  0.10930  0.26080  Biso   1.000  O
  O26      1.0000 0.43430  0.11360  0.35910  Biso   1.000  O
  O27      1.0000 0.51670  0.07660  0.29970  Biso   1.000  O
  O28      1.0000 0.22170  0.06910  0.14400  Biso   1.000  O
  C43      1.0000 0.42170  0.06690  0.23380  Biso   1.000  C
  C44      1.0000 0.44520  0.03300  0.17090  Biso   1.000  C
  H19      1.0000 0.48610  0.02220  0.16900  Biso   1.000  H
  C45      1.0000 0.40460  0.01570  0.11030  Biso   1.000  C
  H20      1.0000 0.41840  0.99320  0.06670  Biso   1.000  H
  C46      1.0000 0.34430  0.03210  0.11570  Biso   1.000  C
  H21      1.0000 0.31680  0.02180  0.07550  Biso   1.000  H
  C47      1.0000 0.32550  0.06390  0.18170  Biso   1.000  C
  C48      1.0000 0.26030  0.08250  0.19560  Biso   1.000  C
  C49      1.0000 0.46100  0.08670  0.30230  Biso   1.000  C
  N7       1.0000 0.36380  0.08210  0.23930  Biso   1.000  N
  Pr8      1.0000 0.82456  0.64050  0.86564  Biso   1.000  Pr
  O29      1.0000 0.74910  0.60930  0.76080  Biso   1.000  O
  O30      1.0000 0.93430  0.61360  0.85910  Biso   1.000  O
  O31      1.0000 0.01670  0.57660  0.79970  Biso   1.000  O
  O32      1.0000 0.72170  0.56910  0.64400  Biso   1.000  O
  C50      1.0000 0.92170  0.56690  0.73380  Biso   1.000  C
  C51      1.0000 0.94520  0.53300  0.67090  Biso   1.000  C
  H22      1.0000 0.98610  0.52220  0.66900  Biso   1.000  H
  C52      1.0000 0.90460  0.51570  0.61030  Biso   1.000  C
  H23      1.0000 0.91840  0.49320  0.56670  Biso   1.000  H
  C53      1.0000 0.84430  0.53210  0.61570  Biso   1.000  C
  H24      1.0000 0.81680  0.52180  0.57550  Biso   1.000  H
  C54      1.0000 0.82550  0.56390  0.68170  Biso   1.000  C
  C55      1.0000 0.76030  0.58250  0.69560  Biso   1.000  C
  C56      1.0000 0.96100  0.58670  0.80230  Biso   1.000  C
  N8       1.0000 0.86380  0.58210  0.73930  Biso   1.000  N
  Pr9      1.0000 0.39050  0.42544  0.38436  Biso   1.000  Pr
  O33      1.0000 0.35930  0.50090  0.48920  Biso   1.000  O
  O34      1.0000 0.36360  0.31570  0.39090  Biso   1.000  O
  O35      1.0000 0.32660  0.23330  0.45030  Biso   1.000  O
  O36      1.0000 0.31910  0.52830  0.60600  Biso   1.000  O
  C57      1.0000 0.31690  0.32830  0.51620  Biso   1.000  C
  C58      1.0000 0.28300  0.30480  0.57910  Biso   1.000  C
  H25      1.0000 0.27220  0.26390  0.58100  Biso   1.000  H
  C59      1.0000 0.26570  0.34540  0.63970  Biso   1.000  C
  H26      1.0000 0.24320  0.33160  0.68330  Biso   1.000  H
  C60      1.0000 0.28210  0.40570  0.63430  Biso   1.000  C
  H27      1.0000 0.27180  0.43320  0.67450  Biso   1.000  H
  C61      1.0000 0.31390  0.42450  0.56830  Biso   1.000  C
  C62      1.0000 0.33250  0.48970  0.55440  Biso   1.000  C
  C63      1.0000 0.33670  0.28900  0.44770  Biso   1.000  C
  N9       1.0000 0.33210  0.38620  0.51070  Biso   1.000  N
  Pr10     1.0000 0.89050  0.92544  0.88436  Biso   1.000  Pr
  O37      1.0000 0.85930  0.00090  0.98920  Biso   1.000  O
  O38      1.0000 0.86360  0.81570  0.89090  Biso   1.000  O
  O39      1.0000 0.82660  0.73330  0.95030  Biso   1.000  O
  O40      1.0000 0.81910  0.02830  0.10600  Biso   1.000  O
  C64      1.0000 0.81690  0.82830  0.01620  Biso   1.000  C
  C65      1.0000 0.78300  0.80480  0.07910  Biso   1.000  C
  H28      1.0000 0.77220  0.76390  0.08100  Biso   1.000  H
  C66      1.0000 0.76570  0.84540  0.13970  Biso   1.000  C
  H29      1.0000 0.74320  0.83160  0.18330  Biso   1.000  H
  C67      1.0000 0.78210  0.90570  0.13430  Biso   1.000  C
  H30      1.0000 0.77180  0.93320  0.17450  Biso   1.000  H
  C68      1.0000 0.81390  0.92450  0.06830  Biso   1.000  C
  C69      1.0000 0.83250  0.98970  0.05440  Biso   1.000  C
  C70      1.0000 0.83670  0.78900  0.94770  Biso   1.000  C
  N10      1.0000 0.83210  0.88620  0.01070  Biso   1.000  N
  Pr11     1.0000 0.10950  0.57456  0.88436  Biso   1.000  Pr
  O41      1.0000 0.14070  0.49910  0.98920  Biso   1.000  O
  O42      1.0000 0.13640  0.68430  0.89090  Biso   1.000  O
  O43      1.0000 0.17340  0.76670  0.95030  Biso   1.000  O
  O44      1.0000 0.18090  0.47170  0.10600  Biso   1.000  O
  C71      1.0000 0.18310  0.67170  0.01620  Biso   1.000  C
  C72      1.0000 0.21700  0.69520  0.07910  Biso   1.000  C
  H31      1.0000 0.22780  0.73610  0.08100  Biso   1.000  H
  C73      1.0000 0.23430  0.65460  0.13970  Biso   1.000  C
  H32      1.0000 0.25680  0.66840  0.18330  Biso   1.000  H
  C74      1.0000 0.21790  0.59430  0.13430  Biso   1.000  C
  H33      1.0000 0.22820  0.56680  0.17450  Biso   1.000  H
  C75      1.0000 0.18610  0.57550  0.06830  Biso   1.000  C
  C76      1.0000 0.16750  0.51030  0.05440  Biso   1.000  C
  C77      1.0000 0.16330  0.71100  0.94770  Biso   1.000  C
  N11      1.0000 0.16790  0.61380  0.01070  Biso   1.000  N
  Pr12     1.0000 0.60950  0.07456  0.38436  Biso   1.000  Pr
  O45      1.0000 0.64070  0.99910  0.48920  Biso   1.000  O
  O46      1.0000 0.63640  0.18430  0.39090  Biso   1.000  O
  O47      1.0000 0.67340  0.26670  0.45030  Biso   1.000  O
  O48      1.0000 0.68090  0.97170  0.60600  Biso   1.000  O
  C78      1.0000 0.68310  0.17170  0.51620  Biso   1.000  C
  C79      1.0000 0.71700  0.19520  0.57910  Biso   1.000  C
  H34      1.0000 0.72780  0.23610  0.58100  Biso   1.000  H
  C80      1.0000 0.73430  0.15460  0.63970  Biso   1.000  C
  H35      1.0000 0.75680  0.16840  0.68330  Biso   1.000  H
  C81      1.0000 0.71790  0.09430  0.63430  Biso   1.000  C
  H36      1.0000 0.72820  0.06680  0.67450  Biso   1.000  H
  C82      1.0000 0.68610  0.07550  0.56830  Biso   1.000  C
  C83      1.0000 0.66750  0.01030  0.55440  Biso   1.000  C
  C84      1.0000 0.66330  0.21100  0.44770  Biso   1.000  C
  N12      1.0000 0.66790  0.11380  0.51070  Biso   1.000  N
  Pr13     1.0000 0.82456  0.14050  0.13436  Biso   1.000  Pr
  O49      1.0000 0.74910  0.10930  0.23920  Biso   1.000  O
  O50      1.0000 0.93430  0.11360  0.14090  Biso   1.000  O
  O51      1.0000 0.01670  0.07660  0.20030  Biso   1.000  O
  O52      1.0000 0.72170  0.06910  0.35600  Biso   1.000  O
  C85      1.0000 0.92170  0.06690  0.26620  Biso   1.000  C
  C86      1.0000 0.94520  0.03300  0.32910  Biso   1.000  C
  H37      1.0000 0.98610  0.02220  0.33100  Biso   1.000  H
  C87      1.0000 0.90460  0.01570  0.38970  Biso   1.000  C
  H38      1.0000 0.91840  0.99320  0.43330  Biso   1.000  H
  C88      1.0000 0.84430  0.03210  0.38430  Biso   1.000  C
  H39      1.0000 0.81680  0.02180  0.42450  Biso   1.000  H
  C89      1.0000 0.82550  0.06390  0.31830  Biso   1.000  C
  C90      1.0000 0.76030  0.08250  0.30440  Biso   1.000  C
  C91      1.0000 0.96100  0.08670  0.19770  Biso   1.000  C
  N13      1.0000 0.86380  0.08210  0.26070  Biso   1.000  N
  Pr14     1.0000 0.32456  0.64050  0.63436  Biso   1.000  Pr
  O53      1.0000 0.24910  0.60930  0.73920  Biso   1.000  O
  O54      1.0000 0.43430  0.61360  0.64090  Biso   1.000  O
  O55      1.0000 0.51670  0.57660  0.70030  Biso   1.000  O
  O56      1.0000 0.22170  0.56910  0.85600  Biso   1.000  O
  C92      1.0000 0.42170  0.56690  0.76620  Biso   1.000  C
  C93      1.0000 0.44520  0.53300  0.82910  Biso   1.000  C
  H40      1.0000 0.48610  0.52220  0.83100  Biso   1.000  H
  C94      1.0000 0.40460  0.51570  0.88970  Biso   1.000  C
  H41      1.0000 0.41840  0.49320  0.93330  Biso   1.000  H
  C95      1.0000 0.34430  0.53210  0.88430  Biso   1.000  C
  H42      1.0000 0.31680  0.52180  0.92450  Biso   1.000  H
  C96      1.0000 0.32550  0.56390  0.81830  Biso   1.000  C
  C97      1.0000 0.26030  0.58250  0.80440  Biso   1.000  C
  C98      1.0000 0.46100  0.58670  0.69770  Biso   1.000  C
  N14      1.0000 0.36380  0.58210  0.76070  Biso   1.000  N
  Pr15     1.0000 0.67544  0.85950  0.63436  Biso   1.000  Pr
  O57      1.0000 0.75090  0.89070  0.73920  Biso   1.000  O
  O58      1.0000 0.56570  0.88640  0.64090  Biso   1.000  O
  O59      1.0000 0.48330  0.92340  0.70030  Biso   1.000  O
  O60      1.0000 0.77830  0.93090  0.85600  Biso   1.000  O
  C99      1.0000 0.57830  0.93310  0.76620  Biso   1.000  C
  C100     1.0000 0.55480  0.96700  0.82910  Biso   1.000  C
  H43      1.0000 0.51390  0.97780  0.83100  Biso   1.000  H
  C101     1.0000 0.59540  0.98430  0.88970  Biso   1.000  C
  H44      1.0000 0.58160  0.00680  0.93330  Biso   1.000  H
  C102     1.0000 0.65570  0.96790  0.88430  Biso   1.000  C
  H45      1.0000 0.68320  0.97820  0.92450  Biso   1.000  H
  C103     1.0000 0.67450  0.93610  0.81830  Biso   1.000  C
  C104     1.0000 0.73970  0.91750  0.80440  Biso   1.000  C
  C105     1.0000 0.53900  0.91330  0.69770  Biso   1.000  C
  N15      1.0000 0.63620  0.91790  0.76070  Biso   1.000  N
  Pr16     1.0000 0.17544  0.35950  0.13436  Biso   1.000  Pr
  O61      1.0000 0.25090  0.39070  0.23920  Biso   1.000  O
  O62      1.0000 0.06570  0.38640  0.14090  Biso   1.000  O
  O63      1.0000 0.98330  0.42340  0.20030  Biso   1.000  O
  O64      1.0000 0.27830  0.43090  0.35600  Biso   1.000  O
  C106     1.0000 0.07830  0.43310  0.26620  Biso   1.000  C
  C107     1.0000 0.05480  0.46700  0.32910  Biso   1.000  C
  H46      1.0000 0.01390  0.47780  0.33100  Biso   1.000  H
  C108     1.0000 0.09540  0.48430  0.38970  Biso   1.000  C
  H47      1.0000 0.08160  0.50680  0.43330  Biso   1.000  H
  C109     1.0000 0.15570  0.46790  0.38430  Biso   1.000  C
  H48      1.0000 0.18320  0.47820  0.42450  Biso   1.000  H
  C110     1.0000 0.17450  0.43610  0.31830  Biso   1.000  C
  C111     1.0000 0.23970  0.41750  0.30440  Biso   1.000  C
  C112     1.0000 0.03900  0.41330  0.19770  Biso   1.000  C
  N16      1.0000 0.13620  0.41790  0.26070  Biso   1.000  N
