data_image0
_cell_length_a       21.7777
_cell_length_b       21.7777
_cell_length_c       16.4167
_cell_angle_alpha    90
_cell_angle_beta     90
_cell_angle_gamma    90

_symmetry_space_group_name_H-M    "P 1"
_symmetry_int_tables_number       1

loop_
  _symmetry_equiv_pos_as_xyz
  'x, y, z'

loop_
  _atom_site_label
  _atom_site_occupancy
  _atom_site_fract_x
  _atom_site_fract_y
  _atom_site_fract_z
  _atom_site_thermal_displace_type
  _atom_site_B_iso_or_equiv
  _atom_site_type_symbol
  Eu1      1.0000 0.82908  0.63587  0.36874  Biso   1.000  Eu
  O1       1.0000 0.75170  0.61010  0.26660  Biso   1.000  O
  O2       1.0000 0.72240  0.56940  0.14800  Biso   1.000  O
  O3       1.0000 0.93610  0.61010  0.36620  Biso   1.000  O
  O4       1.0000 0.01970  0.57180  0.30540  Biso   1.000  O
  N1       1.0000 0.86590  0.57960  0.24320  Biso   1.000  N
  C1       1.0000 0.76130  0.58190  0.19900  Biso   1.000  C
  C2       1.0000 0.82720  0.56360  0.18460  Biso   1.000  C
  C3       1.0000 0.84640  0.53120  0.11710  Biso   1.000  C
  H1       1.0000 0.81880  0.52160  0.07580  Biso   1.000  H
  C4       1.0000 0.90670  0.51310  0.11140  Biso   1.000  C
  H2       1.0000 0.92020  0.49000  0.06720  Biso   1.000  H
  C5       1.0000 0.94650  0.52970  0.17190  Biso   1.000  C
  H3       1.0000 0.98770  0.51850  0.16890  Biso   1.000  H
  C6       1.0000 0.92560  0.56280  0.23680  Biso   1.000  C
  C7       1.0000 0.96400  0.58200  0.30640  Biso   1.000  C
  Eu2      1.0000 0.32908  0.13587  0.86874  Biso   1.000  Eu
  O5       1.0000 0.25170  0.11010  0.76660  Biso   1.000  O
  O6       1.0000 0.22240  0.06940  0.64800  Biso   1.000  O
  O7       1.0000 0.43610  0.11010  0.86620  Biso   1.000  O
  O8       1.0000 0.51970  0.07180  0.80540  Biso   1.000  O
  N2       1.0000 0.36590  0.07960  0.74320  Biso   1.000  N
  C8       1.0000 0.26130  0.08190  0.69900  Biso   1.000  C
  C9       1.0000 0.32720  0.06360  0.68460  Biso   1.000  C
  C10      1.0000 0.34640  0.03120  0.61710  Biso   1.000  C
  H4       1.0000 0.31880  0.02160  0.57580  Biso   1.000  H
  C11      1.0000 0.40670  0.01310  0.61140  Biso   1.000  C
  H5       1.0000 0.42020  0.99000  0.56720  Biso   1.000  H
  C12      1.0000 0.44650  0.02970  0.67190  Biso   1.000  C
  H6       1.0000 0.48770  0.01850  0.66890  Biso   1.000  H
  C13      1.0000 0.42560  0.06280  0.73680  Biso   1.000  C
  C14      1.0000 0.46400  0.08200  0.80640  Biso   1.000  C
  Eu3      1.0000 0.67092  0.36413  0.86874  Biso   1.000  Eu
  O9       1.0000 0.74830  0.38990  0.76660  Biso   1.000  O
  O10      1.0000 0.77760  0.43060  0.64800  Biso   1.000  O
  O11      1.0000 0.56390  0.38990  0.86620  Biso   1.000  O
  O12      1.0000 0.48030  0.42820  0.80540  Biso   1.000  O
  N3       1.0000 0.63410  0.42040  0.74320  Biso   1.000  N
  C15      1.0000 0.73870  0.41810  0.69900  Biso   1.000  C
  C16      1.0000 0.67280  0.43640  0.68460  Biso   1.000  C
  C17      1.0000 0.65360  0.46880  0.61710  Biso   1.000  C
  H7       1.0000 0.68120  0.47840  0.57580  Biso   1.000  H
  C18      1.0000 0.59330  0.48690  0.61140  Biso   1.000  C
  H8       1.0000 0.57980  0.51000  0.56720  Biso   1.000  H
  C19      1.0000 0.55350  0.47030  0.67190  Biso   1.000  C
  H9       1.0000 0.51230  0.48150  0.66890  Biso   1.000  H
  C20      1.0000 0.57440  0.43720  0.73680  Biso   1.000  C
  C21      1.0000 0.53600  0.41800  0.80640  Biso   1.000  C
  Eu4      1.0000 0.17092  0.86413  0.36874  Biso   1.000  Eu
  O13      1.0000 0.24830  0.88990  0.26660  Biso   1.000  O
  O14      1.0000 0.27760  0.93060  0.14800  Biso   1.000  O
  O15      1.0000 0.06390  0.88990  0.36620  Biso   1.000  O
  O16      1.0000 0.98030  0.92820  0.30540  Biso   1.000  O
  N4       1.0000 0.13410  0.92040  0.24320  Biso   1.000  N
  C22      1.0000 0.23870  0.91810  0.19900  Biso   1.000  C
  C23      1.0000 0.17280  0.93640  0.18460  Biso   1.000  C
  C24      1.0000 0.15360  0.96880  0.11710  Biso   1.000  C
  H10      1.0000 0.18120  0.97840  0.07580  Biso   1.000  H
  C25      1.0000 0.09330  0.98690  0.11140  Biso   1.000  C
  H11      1.0000 0.07980  0.01000  0.06720  Biso   1.000  H
  C26      1.0000 0.05350  0.97030  0.17190  Biso   1.000  C
  H12      1.0000 0.01230  0.98150  0.16890  Biso   1.000  H
  C27      1.0000 0.07440  0.93720  0.23680  Biso   1.000  C
  C28      1.0000 0.03600  0.91800  0.30640  Biso   1.000  C
  Eu5      1.0000 0.11413  0.07908  0.61874  Biso   1.000  Eu
  O17      1.0000 0.13990  0.00170  0.51660  Biso   1.000  O
  O18      1.0000 0.18060  0.97240  0.39800  Biso   1.000  O
  O19      1.0000 0.13990  0.18610  0.61620  Biso   1.000  O
  O20      1.0000 0.17820  0.26970  0.55540  Biso   1.000  O
  N5       1.0000 0.17040  0.11590  0.49320  Biso   1.000  N
  C29      1.0000 0.16810  0.01130  0.44900  Biso   1.000  C
  C30      1.0000 0.18640  0.07720  0.43460  Biso   1.000  C
  C31      1.0000 0.21880  0.09640  0.36710  Biso   1.000  C
  H13      1.0000 0.22840  0.06880  0.32580  Biso   1.000  H
  C32      1.0000 0.23690  0.15670  0.36140  Biso   1.000  C
  H14      1.0000 0.26000  0.17020  0.31720  Biso   1.000  H
  C33      1.0000 0.22030  0.19650  0.42190  Biso   1.000  C
  H15      1.0000 0.23150  0.23770  0.41890  Biso   1.000  H
  C34      1.0000 0.18720  0.17560  0.48680  Biso   1.000  C
  C35      1.0000 0.16800  0.21400  0.55640  Biso   1.000  C
  Eu6      1.0000 0.61413  0.57908  0.11874  Biso   1.000  Eu
  O21      1.0000 0.63990  0.50170  0.01660  Biso   1.000  O
  O22      1.0000 0.68060  0.47240  0.89800  Biso   1.000  O
  O23      1.0000 0.63990  0.68610  0.11620  Biso   1.000  O
  O24      1.0000 0.67820  0.76970  0.05540  Biso   1.000  O
  N6       1.0000 0.67040  0.61590  0.99320  Biso   1.000  N
  C36      1.0000 0.66810  0.51130  0.94900  Biso   1.000  C
  C37      1.0000 0.68640  0.57720  0.93460  Biso   1.000  C
  C38      1.0000 0.71880  0.59640  0.86710  Biso   1.000  C
  H16      1.0000 0.72840  0.56880  0.82580  Biso   1.000  H
  C39      1.0000 0.73690  0.65670  0.86140  Biso   1.000  C
  H17      1.0000 0.76000  0.67020  0.81720  Biso   1.000  H
  C40      1.0000 0.72030  0.69650  0.92190  Biso   1.000  C
  H18      1.0000 0.73150  0.73770  0.91890  Biso   1.000  H
  C41      1.0000 0.68720  0.67560  0.98680  Biso   1.000  C
  C42      1.0000 0.66800  0.71400  0.05640  Biso   1.000  C
  Eu7      1.0000 0.38587  0.92092  0.11874  Biso   1.000  Eu
  O25      1.0000 0.36010  0.99830  0.01660  Biso   1.000  O
  O26      1.0000 0.31940  0.02760  0.89800  Biso   1.000  O
  O27      1.0000 0.36010  0.81390  0.11620  Biso   1.000  O
  O28      1.0000 0.32180  0.73030  0.05540  Biso   1.000  O
  N7       1.0000 0.32960  0.88410  0.99320  Biso   1.000  N
  C43      1.0000 0.33190  0.98870  0.94900  Biso   1.000  C
  C44      1.0000 0.31360  0.92280  0.93460  Biso   1.000  C
  C45      1.0000 0.28120  0.90360  0.86710  Biso   1.000  C
  H19      1.0000 0.27160  0.93120  0.82580  Biso   1.000  H
  C46      1.0000 0.26310  0.84330  0.86140  Biso   1.000  C
  H20      1.0000 0.24000  0.82980  0.81720  Biso   1.000  H
  C47      1.0000 0.27970  0.80350  0.92190  Biso   1.000  C
  H21      1.0000 0.26850  0.76230  0.91890  Biso   1.000  H
  C48      1.0000 0.31280  0.82440  0.98680  Biso   1.000  C
  C49      1.0000 0.33200  0.78600  0.05640  Biso   1.000  C
  Eu8      1.0000 0.88587  0.42092  0.61874  Biso   1.000  Eu
  O29      1.0000 0.86010  0.49830  0.51660  Biso   1.000  O
  O30      1.0000 0.81940  0.52760  0.39800  Biso   1.000  O
  O31      1.0000 0.86010  0.31390  0.61620  Biso   1.000  O
  O32      1.0000 0.82180  0.23030  0.55540  Biso   1.000  O
  N8       1.0000 0.82960  0.38410  0.49320  Biso   1.000  N
  C50      1.0000 0.83190  0.48870  0.44900  Biso   1.000  C
  C51      1.0000 0.81360  0.42280  0.43460  Biso   1.000  C
  C52      1.0000 0.78120  0.40360  0.36710  Biso   1.000  C
  H22      1.0000 0.77160  0.43120  0.32580  Biso   1.000  H
  C53      1.0000 0.76310  0.34330  0.36140  Biso   1.000  C
  H23      1.0000 0.74000  0.32980  0.31720  Biso   1.000  H
  C54      1.0000 0.77970  0.30350  0.42190  Biso   1.000  C
  H24      1.0000 0.76850  0.26230  0.41890  Biso   1.000  H
  C55      1.0000 0.81280  0.32440  0.48680  Biso   1.000  C
  C56      1.0000 0.83200  0.28600  0.55640  Biso   1.000  C
  Eu9      1.0000 0.17092  0.36413  0.63126  Biso   1.000  Eu
  O33      1.0000 0.24830  0.38990  0.73340  Biso   1.000  O
  O34      1.0000 0.27760  0.43060  0.85200  Biso   1.000  O
  O35      1.0000 0.06390  0.38990  0.63380  Biso   1.000  O
  O36      1.0000 0.98030  0.42820  0.69460  Biso   1.000  O
  N9       1.0000 0.13410  0.42040  0.75680  Biso   1.000  N
  C57      1.0000 0.23870  0.41810  0.80100  Biso   1.000  C
  C58      1.0000 0.17280  0.43640  0.81540  Biso   1.000  C
  C59      1.0000 0.15360  0.46880  0.88290  Biso   1.000  C
  H25      1.0000 0.18120  0.47840  0.92420  Biso   1.000  H
  C60      1.0000 0.09330  0.48690  0.88860  Biso   1.000  C
  H26      1.0000 0.07980  0.51000  0.93280  Biso   1.000  H
  C61      1.0000 0.05350  0.47030  0.82810  Biso   1.000  C
  H27      1.0000 0.01230  0.48150  0.83110  Biso   1.000  H
  C62      1.0000 0.07440  0.43720  0.76320  Biso   1.000  C
  C63      1.0000 0.03600  0.41800  0.69360  Biso   1.000  C
  Eu10     1.0000 0.67092  0.86413  0.13126  Biso   1.000  Eu
  O37      1.0000 0.74830  0.88990  0.23340  Biso   1.000  O
  O38      1.0000 0.77760  0.93060  0.35200  Biso   1.000  O
  O39      1.0000 0.56390  0.88990  0.13380  Biso   1.000  O
  O40      1.0000 0.48030  0.92820  0.19460  Biso   1.000  O
  N10      1.0000 0.63410  0.92040  0.25680  Biso   1.000  N
  C64      1.0000 0.73870  0.91810  0.30100  Biso   1.000  C
  C65      1.0000 0.67280  0.93640  0.31540  Biso   1.000  C
  C66      1.0000 0.65360  0.96880  0.38290  Biso   1.000  C
  H28      1.0000 0.68120  0.97840  0.42420  Biso   1.000  H
  C67      1.0000 0.59330  0.98690  0.38860  Biso   1.000  C
  H29      1.0000 0.57980  0.01000  0.43280  Biso   1.000  H
  C68      1.0000 0.55350  0.97030  0.32810  Biso   1.000  C
  H30      1.0000 0.51230  0.98150  0.33110  Biso   1.000  H
  C69      1.0000 0.57440  0.93720  0.26320  Biso   1.000  C
  C70      1.0000 0.53600  0.91800  0.19360  Biso   1.000  C
  Eu11     1.0000 0.32908  0.63587  0.13126  Biso   1.000  Eu
  O41      1.0000 0.25170  0.61010  0.23340  Biso   1.000  O
  O42      1.0000 0.22240  0.56940  0.35200  Biso   1.000  O
  O43      1.0000 0.43610  0.61010  0.13380  Biso   1.000  O
  O44      1.0000 0.51970  0.57180  0.19460  Biso   1.000  O
  N11      1.0000 0.36590  0.57960  0.25680  Biso   1.000  N
  C71      1.0000 0.26130  0.58190  0.30100  Biso   1.000  C
  C72      1.0000 0.32720  0.56360  0.31540  Biso   1.000  C
  C73      1.0000 0.34640  0.53120  0.38290  Biso   1.000  C
  H31      1.0000 0.31880  0.52160  0.42420  Biso   1.000  H
  C74      1.0000 0.40670  0.51310  0.38860  Biso   1.000  C
  H32      1.0000 0.42020  0.49000  0.43280  Biso   1.000  H
  C75      1.0000 0.44650  0.52970  0.32810  Biso   1.000  C
  H33      1.0000 0.48770  0.51850  0.33110  Biso   1.000  H
  C76      1.0000 0.42560  0.56280  0.26320  Biso   1.000  C
  C77      1.0000 0.46400  0.58200  0.19360  Biso   1.000  C
  Eu12     1.0000 0.82908  0.13587  0.63126  Biso   1.000  Eu
  O45      1.0000 0.75170  0.11010  0.73340  Biso   1.000  O
  O46      1.0000 0.72240  0.06940  0.85200  Biso   1.000  O
  O47      1.0000 0.93610  0.11010  0.63380  Biso   1.000  O
  O48      1.0000 0.01970  0.07180  0.69460  Biso   1.000  O
  N12      1.0000 0.86590  0.07960  0.75680  Biso   1.000  N
  C78      1.0000 0.76130  0.08190  0.80100  Biso   1.000  C
  C79      1.0000 0.82720  0.06360  0.81540  Biso   1.000  C
  C80      1.0000 0.84640  0.03120  0.88290  Biso   1.000  C
  H34      1.0000 0.81880  0.02160  0.92420  Biso   1.000  H
  C81      1.0000 0.90670  0.01310  0.88860  Biso   1.000  C
  H35      1.0000 0.92020  0.99000  0.93280  Biso   1.000  H
  C82      1.0000 0.94650  0.02970  0.82810  Biso   1.000  C
  H36      1.0000 0.98770  0.01850  0.83110  Biso   1.000  H
  C83      1.0000 0.92560  0.06280  0.76320  Biso   1.000  C
  C84      1.0000 0.96400  0.08200  0.69360  Biso   1.000  C
  Eu13     1.0000 0.88587  0.92092  0.38126  Biso   1.000  Eu
  O49      1.0000 0.86010  0.99830  0.48340  Biso   1.000  O
  O50      1.0000 0.81940  0.02760  0.60200  Biso   1.000  O
  O51      1.0000 0.86010  0.81390  0.38380  Biso   1.000  O
  O52      1.0000 0.82180  0.73030  0.44460  Biso   1.000  O
  N13      1.0000 0.82960  0.88410  0.50680  Biso   1.000  N
  C85      1.0000 0.83190  0.98870  0.55100  Biso   1.000  C
  C86      1.0000 0.81360  0.92280  0.56540  Biso   1.000  C
  C87      1.0000 0.78120  0.90360  0.63290  Biso   1.000  C
  H37      1.0000 0.77160  0.93120  0.67420  Biso   1.000  H
  C88      1.0000 0.76310  0.84330  0.63860  Biso   1.000  C
  H38      1.0000 0.74000  0.82980  0.68280  Biso   1.000  H
  C89      1.0000 0.77970  0.80350  0.57810  Biso   1.000  C
  H39      1.0000 0.76850  0.76230  0.58110  Biso   1.000  H
  C90      1.0000 0.81280  0.82440  0.51320  Biso   1.000  C
  C91      1.0000 0.83200  0.78600  0.44360  Biso   1.000  C
  Eu14     1.0000 0.38587  0.42092  0.88126  Biso   1.000  Eu
  O53      1.0000 0.36010  0.49830  0.98340  Biso   1.000  O
  O54      1.0000 0.31940  0.52760  0.10200  Biso   1.000  O
  O55      1.0000 0.36010  0.31390  0.88380  Biso   1.000  O
  O56      1.0000 0.32180  0.23030  0.94460  Biso   1.000  O
  N14      1.0000 0.32960  0.38410  0.00680  Biso   1.000  N
  C92      1.0000 0.33190  0.48870  0.05100  Biso   1.000  C
  C93      1.0000 0.31360  0.42280  0.06540  Biso   1.000  C
  C94      1.0000 0.28120  0.40360  0.13290  Biso   1.000  C
  H40      1.0000 0.27160  0.43120  0.17420  Biso   1.000  H
  C95      1.0000 0.26310  0.34330  0.13860  Biso   1.000  C
  H41      1.0000 0.24000  0.32980  0.18280  Biso   1.000  H
  C96      1.0000 0.27970  0.30350  0.07810  Biso   1.000  C
  H42      1.0000 0.26850  0.26230  0.08110  Biso   1.000  H
  C97      1.0000 0.31280  0.32440  0.01320  Biso   1.000  C
  C98      1.0000 0.33200  0.28600  0.94360  Biso   1.000  C
  Eu15     1.0000 0.61413  0.07908  0.88126  Biso   1.000  Eu
  O57      1.0000 0.63990  0.00170  0.98340  Biso   1.000  O
  O58      1.0000 0.68060  0.97240  0.10200  Biso   1.000  O
  O59      1.0000 0.63990  0.18610  0.88380  Biso   1.000  O
  O60      1.0000 0.67820  0.26970  0.94460  Biso   1.000  O
  N15      1.0000 0.67040  0.11590  0.00680  Biso   1.000  N
  C99      1.0000 0.66810  0.01130  0.05100  Biso   1.000  C
  C100     1.0000 0.68640  0.07720  0.06540  Biso   1.000  C
  C101     1.0000 0.71880  0.09640  0.13290  Biso   1.000  C
  H43      1.0000 0.72840  0.06880  0.17420  Biso   1.000  H
  C102     1.0000 0.73690  0.15670  0.13860  Biso   1.000  C
  H44      1.0000 0.76000  0.17020  0.18280  Biso   1.000  H
  C103     1.0000 0.72030  0.19650  0.07810  Biso   1.000  C
  H45      1.0000 0.73150  0.23770  0.08110  Biso   1.000  H
  C104     1.0000 0.68720  0.17560  0.01320  Biso   1.000  C
  C105     1.0000 0.66800  0.21400  0.94360  Biso   1.000  C
  Eu16     1.0000 0.11413  0.57908  0.38126  Biso   1.000  Eu
  O61      1.0000 0.13990  0.50170  0.48340  Biso   1.000  O
  O62      1.0000 0.18060  0.47240  0.60200  Biso   1.000  O
  O63      1.0000 0.13990  0.68610  0.38380  Biso   1.000  O
  O64      1.0000 0.17820  0.76970  0.44460  Biso   1.000  O
  N16      1.0000 0.17040  0.61590  0.50680  Biso   1.000  N
  C106     1.0000 0.16810  0.51130  0.55100  Biso   1.000  C
  C107     1.0000 0.18640  0.57720  0.56540  Biso   1.000  C
  C108     1.0000 0.21880  0.59640  0.63290  Biso   1.000  C
  H46      1.0000 0.22840  0.56880  0.67420  Biso   1.000  H
  C109     1.0000 0.23690  0.65670  0.63860  Biso   1.000  C
  H47      1.0000 0.26000  0.67020  0.68280  Biso   1.000  H
  C110     1.0000 0.22030  0.69650  0.57810  Biso   1.000  C
  H48      1.0000 0.23150  0.73770  0.58110  Biso   1.000  H
  C111     1.0000 0.18720  0.67560  0.51320  Biso   1.000  C
  C112     1.0000 0.16800  0.71400  0.44360  Biso   1.000  C
