data_image0
_cell_length_a       21.685
_cell_length_b       21.685
_cell_length_c       16.47
_cell_angle_alpha    90
_cell_angle_beta     90
_cell_angle_gamma    90

_symmetry_space_group_name_H-M    "P 1"
_symmetry_int_tables_number       1

loop_
  _symmetry_equiv_pos_as_xyz
  'x, y, z'

loop_
  _atom_site_label
  _atom_site_occupancy
  _atom_site_fract_x
  _atom_site_fract_y
  _atom_site_fract_z
  _atom_site_thermal_displace_type
  _atom_site_B_iso_or_equiv
  _atom_site_type_symbol
  Sm1      1.0000 0.82726  0.63680  0.36747  Biso   1.000  Sm
  O1       1.0000 0.75020  0.61090  0.26460  Biso   1.000  O
  O2       1.0000 0.72160  0.56860  0.14560  Biso   1.000  O
  O3       1.0000 0.93480  0.61100  0.36550  Biso   1.000  O
  O4       1.0000 0.01860  0.57080  0.30510  Biso   1.000  O
  N1       1.0000 0.86460  0.57980  0.24210  Biso   1.000  N
  C1       1.0000 0.76130  0.58290  0.19820  Biso   1.000  C
  C2       1.0000 0.82580  0.56280  0.18250  Biso   1.000  C
  C3       1.0000 0.84620  0.53110  0.11620  Biso   1.000  C
  H1       1.0000 0.81930  0.52150  0.07420  Biso   1.000  H
  C4       1.0000 0.90700  0.51340  0.11210  Biso   1.000  C
  H2       1.0000 0.92080  0.49040  0.06800  Biso   1.000  H
  C5       1.0000 0.94720  0.52950  0.17210  Biso   1.000  C
  H3       1.0000 0.98840  0.51770  0.17010  Biso   1.000  H
  C6       1.0000 0.92450  0.56370  0.23540  Biso   1.000  C
  C7       1.0000 0.96300  0.58260  0.30670  Biso   1.000  C
  Sm2      1.0000 0.32726  0.13680  0.86747  Biso   1.000  Sm
  O5       1.0000 0.25020  0.11090  0.76460  Biso   1.000  O
  O6       1.0000 0.22160  0.06860  0.64560  Biso   1.000  O
  O7       1.0000 0.43480  0.11100  0.86550  Biso   1.000  O
  O8       1.0000 0.51860  0.07080  0.80510  Biso   1.000  O
  N2       1.0000 0.36460  0.07980  0.74210  Biso   1.000  N
  C8       1.0000 0.26130  0.08290  0.69820  Biso   1.000  C
  C9       1.0000 0.32580  0.06280  0.68250  Biso   1.000  C
  C10      1.0000 0.34620  0.03110  0.61620  Biso   1.000  C
  H4       1.0000 0.31930  0.02150  0.57420  Biso   1.000  H
  C11      1.0000 0.40700  0.01340  0.61210  Biso   1.000  C
  H5       1.0000 0.42080  0.99040  0.56800  Biso   1.000  H
  C12      1.0000 0.44720  0.02950  0.67210  Biso   1.000  C
  H6       1.0000 0.48840  0.01770  0.67010  Biso   1.000  H
  C13      1.0000 0.42450  0.06370  0.73540  Biso   1.000  C
  C14      1.0000 0.46300  0.08260  0.80670  Biso   1.000  C
  Sm3      1.0000 0.67274  0.36320  0.86747  Biso   1.000  Sm
  O9       1.0000 0.74980  0.38910  0.76460  Biso   1.000  O
  O10      1.0000 0.77840  0.43140  0.64560  Biso   1.000  O
  O11      1.0000 0.56520  0.38900  0.86550  Biso   1.000  O
  O12      1.0000 0.48140  0.42920  0.80510  Biso   1.000  O
  N3       1.0000 0.63540  0.42020  0.74210  Biso   1.000  N
  C15      1.0000 0.73870  0.41710  0.69820  Biso   1.000  C
  C16      1.0000 0.67420  0.43720  0.68250  Biso   1.000  C
  C17      1.0000 0.65380  0.46890  0.61620  Biso   1.000  C
  H7       1.0000 0.68070  0.47850  0.57420  Biso   1.000  H
  C18      1.0000 0.59300  0.48660  0.61210  Biso   1.000  C
  H8       1.0000 0.57920  0.50960  0.56800  Biso   1.000  H
  C19      1.0000 0.55280  0.47050  0.67210  Biso   1.000  C
  H9       1.0000 0.51160  0.48230  0.67010  Biso   1.000  H
  C20      1.0000 0.57550  0.43630  0.73540  Biso   1.000  C
  C21      1.0000 0.53700  0.41740  0.80670  Biso   1.000  C
  Sm4      1.0000 0.17274  0.86320  0.36747  Biso   1.000  Sm
  O13      1.0000 0.24980  0.88910  0.26460  Biso   1.000  O
  O14      1.0000 0.27840  0.93140  0.14560  Biso   1.000  O
  O15      1.0000 0.06520  0.88900  0.36550  Biso   1.000  O
  O16      1.0000 0.98140  0.92920  0.30510  Biso   1.000  O
  N4       1.0000 0.13540  0.92020  0.24210  Biso   1.000  N
  C22      1.0000 0.23870  0.91710  0.19820  Biso   1.000  C
  C23      1.0000 0.17420  0.93720  0.18250  Biso   1.000  C
  C24      1.0000 0.15380  0.96890  0.11620  Biso   1.000  C
  H10      1.0000 0.18070  0.97850  0.07420  Biso   1.000  H
  C25      1.0000 0.09300  0.98660  0.11210  Biso   1.000  C
  H11      1.0000 0.07920  0.00960  0.06800  Biso   1.000  H
  C26      1.0000 0.05280  0.97050  0.17210  Biso   1.000  C
  H12      1.0000 0.01160  0.98230  0.17010  Biso   1.000  H
  C27      1.0000 0.07550  0.93630  0.23540  Biso   1.000  C
  C28      1.0000 0.03700  0.91740  0.30670  Biso   1.000  C
  Sm5      1.0000 0.11320  0.07726  0.61747  Biso   1.000  Sm
  O17      1.0000 0.13910  0.00020  0.51460  Biso   1.000  O
  O18      1.0000 0.18140  0.97160  0.39560  Biso   1.000  O
  O19      1.0000 0.13900  0.18480  0.61550  Biso   1.000  O
  O20      1.0000 0.17920  0.26860  0.55510  Biso   1.000  O
  N5       1.0000 0.17020  0.11460  0.49210  Biso   1.000  N
  C29      1.0000 0.16710  0.01130  0.44820  Biso   1.000  C
  C30      1.0000 0.18720  0.07580  0.43250  Biso   1.000  C
  C31      1.0000 0.21890  0.09620  0.36620  Biso   1.000  C
  H13      1.0000 0.22850  0.06930  0.32420  Biso   1.000  H
  C32      1.0000 0.23660  0.15700  0.36210  Biso   1.000  C
  H14      1.0000 0.25960  0.17080  0.31800  Biso   1.000  H
  C33      1.0000 0.22050  0.19720  0.42210  Biso   1.000  C
  H15      1.0000 0.23230  0.23840  0.42010  Biso   1.000  H
  C34      1.0000 0.18630  0.17450  0.48540  Biso   1.000  C
  C35      1.0000 0.16740  0.21300  0.55670  Biso   1.000  C
  Sm6      1.0000 0.61320  0.57726  0.11747  Biso   1.000  Sm
  O21      1.0000 0.63910  0.50020  0.01460  Biso   1.000  O
  O22      1.0000 0.68140  0.47160  0.89560  Biso   1.000  O
  O23      1.0000 0.63900  0.68480  0.11550  Biso   1.000  O
  O24      1.0000 0.67920  0.76860  0.05510  Biso   1.000  O
  N6       1.0000 0.67020  0.61460  0.99210  Biso   1.000  N
  C36      1.0000 0.66710  0.51130  0.94820  Biso   1.000  C
  C37      1.0000 0.68720  0.57580  0.93250  Biso   1.000  C
  C38      1.0000 0.71890  0.59620  0.86620  Biso   1.000  C
  H16      1.0000 0.72850  0.56930  0.82420  Biso   1.000  H
  C39      1.0000 0.73660  0.65700  0.86210  Biso   1.000  C
  H17      1.0000 0.75960  0.67080  0.81800  Biso   1.000  H
  C40      1.0000 0.72050  0.69720  0.92210  Biso   1.000  C
  H18      1.0000 0.73230  0.73840  0.92010  Biso   1.000  H
  C41      1.0000 0.68630  0.67450  0.98540  Biso   1.000  C
  C42      1.0000 0.66740  0.71300  0.05670  Biso   1.000  C
  Sm7      1.0000 0.38680  0.92274  0.11747  Biso   1.000  Sm
  O25      1.0000 0.36090  0.99980  0.01460  Biso   1.000  O
  O26      1.0000 0.31860  0.02840  0.89560  Biso   1.000  O
  O27      1.0000 0.36100  0.81520  0.11550  Biso   1.000  O
  O28      1.0000 0.32080  0.73140  0.05510  Biso   1.000  O
  N7       1.0000 0.32980  0.88540  0.99210  Biso   1.000  N
  C43      1.0000 0.33290  0.98870  0.94820  Biso   1.000  C
  C44      1.0000 0.31280  0.92420  0.93250  Biso   1.000  C
  C45      1.0000 0.28110  0.90380  0.86620  Biso   1.000  C
  H19      1.0000 0.27150  0.93070  0.82420  Biso   1.000  H
  C46      1.0000 0.26340  0.84300  0.86210  Biso   1.000  C
  H20      1.0000 0.24040  0.82920  0.81800  Biso   1.000  H
  C47      1.0000 0.27950  0.80280  0.92210  Biso   1.000  C
  H21      1.0000 0.26770  0.76160  0.92010  Biso   1.000  H
  C48      1.0000 0.31370  0.82550  0.98540  Biso   1.000  C
  C49      1.0000 0.33260  0.78700  0.05670  Biso   1.000  C
  Sm8      1.0000 0.88680  0.42274  0.61747  Biso   1.000  Sm
  O29      1.0000 0.86090  0.49980  0.51460  Biso   1.000  O
  O30      1.0000 0.81860  0.52840  0.39560  Biso   1.000  O
  O31      1.0000 0.86100  0.31520  0.61550  Biso   1.000  O
  O32      1.0000 0.82080  0.23140  0.55510  Biso   1.000  O
  N8       1.0000 0.82980  0.38540  0.49210  Biso   1.000  N
  C50      1.0000 0.83290  0.48870  0.44820  Biso   1.000  C
  C51      1.0000 0.81280  0.42420  0.43250  Biso   1.000  C
  C52      1.0000 0.78110  0.40380  0.36620  Biso   1.000  C
  H22      1.0000 0.77150  0.43070  0.32420  Biso   1.000  H
  C53      1.0000 0.76340  0.34300  0.36210  Biso   1.000  C
  H23      1.0000 0.74040  0.32920  0.31800  Biso   1.000  H
  C54      1.0000 0.77950  0.30280  0.42210  Biso   1.000  C
  H24      1.0000 0.76770  0.26160  0.42010  Biso   1.000  H
  C55      1.0000 0.81370  0.32550  0.48540  Biso   1.000  C
  C56      1.0000 0.83260  0.28700  0.55670  Biso   1.000  C
  Sm9      1.0000 0.17274  0.36320  0.63253  Biso   1.000  Sm
  O33      1.0000 0.24980  0.38910  0.73540  Biso   1.000  O
  O34      1.0000 0.27840  0.43140  0.85440  Biso   1.000  O
  O35      1.0000 0.06520  0.38900  0.63450  Biso   1.000  O
  O36      1.0000 0.98140  0.42920  0.69490  Biso   1.000  O
  N9       1.0000 0.13540  0.42020  0.75790  Biso   1.000  N
  C57      1.0000 0.23870  0.41710  0.80180  Biso   1.000  C
  C58      1.0000 0.17420  0.43720  0.81750  Biso   1.000  C
  C59      1.0000 0.15380  0.46890  0.88380  Biso   1.000  C
  H25      1.0000 0.18070  0.47850  0.92580  Biso   1.000  H
  C60      1.0000 0.09300  0.48660  0.88790  Biso   1.000  C
  H26      1.0000 0.07920  0.50960  0.93200  Biso   1.000  H
  C61      1.0000 0.05280  0.47050  0.82790  Biso   1.000  C
  H27      1.0000 0.01160  0.48230  0.82990  Biso   1.000  H
  C62      1.0000 0.07550  0.43630  0.76460  Biso   1.000  C
  C63      1.0000 0.03700  0.41740  0.69330  Biso   1.000  C
  Sm10     1.0000 0.67274  0.86320  0.13253  Biso   1.000  Sm
  O37      1.0000 0.74980  0.88910  0.23540  Biso   1.000  O
  O38      1.0000 0.77840  0.93140  0.35440  Biso   1.000  O
  O39      1.0000 0.56520  0.88900  0.13450  Biso   1.000  O
  O40      1.0000 0.48140  0.92920  0.19490  Biso   1.000  O
  N10      1.0000 0.63540  0.92020  0.25790  Biso   1.000  N
  C64      1.0000 0.73870  0.91710  0.30180  Biso   1.000  C
  C65      1.0000 0.67420  0.93720  0.31750  Biso   1.000  C
  C66      1.0000 0.65380  0.96890  0.38380  Biso   1.000  C
  H28      1.0000 0.68070  0.97850  0.42580  Biso   1.000  H
  C67      1.0000 0.59300  0.98660  0.38790  Biso   1.000  C
  H29      1.0000 0.57920  0.00960  0.43200  Biso   1.000  H
  C68      1.0000 0.55280  0.97050  0.32790  Biso   1.000  C
  H30      1.0000 0.51160  0.98230  0.32990  Biso   1.000  H
  C69      1.0000 0.57550  0.93630  0.26460  Biso   1.000  C
  C70      1.0000 0.53700  0.91740  0.19330  Biso   1.000  C
  Sm11     1.0000 0.32726  0.63680  0.13253  Biso   1.000  Sm
  O41      1.0000 0.25020  0.61090  0.23540  Biso   1.000  O
  O42      1.0000 0.22160  0.56860  0.35440  Biso   1.000  O
  O43      1.0000 0.43480  0.61100  0.13450  Biso   1.000  O
  O44      1.0000 0.51860  0.57080  0.19490  Biso   1.000  O
  N11      1.0000 0.36460  0.57980  0.25790  Biso   1.000  N
  C71      1.0000 0.26130  0.58290  0.30180  Biso   1.000  C
  C72      1.0000 0.32580  0.56280  0.31750  Biso   1.000  C
  C73      1.0000 0.34620  0.53110  0.38380  Biso   1.000  C
  H31      1.0000 0.31930  0.52150  0.42580  Biso   1.000  H
  C74      1.0000 0.40700  0.51340  0.38790  Biso   1.000  C
  H32      1.0000 0.42080  0.49040  0.43200  Biso   1.000  H
  C75      1.0000 0.44720  0.52950  0.32790  Biso   1.000  C
  H33      1.0000 0.48840  0.51770  0.32990  Biso   1.000  H
  C76      1.0000 0.42450  0.56370  0.26460  Biso   1.000  C
  C77      1.0000 0.46300  0.58260  0.19330  Biso   1.000  C
  Sm12     1.0000 0.82726  0.13680  0.63253  Biso   1.000  Sm
  O45      1.0000 0.75020  0.11090  0.73540  Biso   1.000  O
  O46      1.0000 0.72160  0.06860  0.85440  Biso   1.000  O
  O47      1.0000 0.93480  0.11100  0.63450  Biso   1.000  O
  O48      1.0000 0.01860  0.07080  0.69490  Biso   1.000  O
  N12      1.0000 0.86460  0.07980  0.75790  Biso   1.000  N
  C78      1.0000 0.76130  0.08290  0.80180  Biso   1.000  C
  C79      1.0000 0.82580  0.06280  0.81750  Biso   1.000  C
  C80      1.0000 0.84620  0.03110  0.88380  Biso   1.000  C
  H34      1.0000 0.81930  0.02150  0.92580  Biso   1.000  H
  C81      1.0000 0.90700  0.01340  0.88790  Biso   1.000  C
  H35      1.0000 0.92080  0.99040  0.93200  Biso   1.000  H
  C82      1.0000 0.94720  0.02950  0.82790  Biso   1.000  C
  H36      1.0000 0.98840  0.01770  0.82990  Biso   1.000  H
  C83      1.0000 0.92450  0.06370  0.76460  Biso   1.000  C
  C84      1.0000 0.96300  0.08260  0.69330  Biso   1.000  C
  Sm13     1.0000 0.88680  0.92274  0.38253  Biso   1.000  Sm
  O49      1.0000 0.86090  0.99980  0.48540  Biso   1.000  O
  O50      1.0000 0.81860  0.02840  0.60440  Biso   1.000  O
  O51      1.0000 0.86100  0.81520  0.38450  Biso   1.000  O
  O52      1.0000 0.82080  0.73140  0.44490  Biso   1.000  O
  N13      1.0000 0.82980  0.88540  0.50790  Biso   1.000  N
  C85      1.0000 0.83290  0.98870  0.55180  Biso   1.000  C
  C86      1.0000 0.81280  0.92420  0.56750  Biso   1.000  C
  C87      1.0000 0.78110  0.90380  0.63380  Biso   1.000  C
  H37      1.0000 0.77150  0.93070  0.67580  Biso   1.000  H
  C88      1.0000 0.76340  0.84300  0.63790  Biso   1.000  C
  H38      1.0000 0.74040  0.82920  0.68200  Biso   1.000  H
  C89      1.0000 0.77950  0.80280  0.57790  Biso   1.000  C
  H39      1.0000 0.76770  0.76160  0.57990  Biso   1.000  H
  C90      1.0000 0.81370  0.82550  0.51460  Biso   1.000  C
  C91      1.0000 0.83260  0.78700  0.44330  Biso   1.000  C
  Sm14     1.0000 0.38680  0.42274  0.88253  Biso   1.000  Sm
  O53      1.0000 0.36090  0.49980  0.98540  Biso   1.000  O
  O54      1.0000 0.31860  0.52840  0.10440  Biso   1.000  O
  O55      1.0000 0.36100  0.31520  0.88450  Biso   1.000  O
  O56      1.0000 0.32080  0.23140  0.94490  Biso   1.000  O
  N14      1.0000 0.32980  0.38540  0.00790  Biso   1.000  N
  C92      1.0000 0.33290  0.48870  0.05180  Biso   1.000  C
  C93      1.0000 0.31280  0.42420  0.06750  Biso   1.000  C
  C94      1.0000 0.28110  0.40380  0.13380  Biso   1.000  C
  H40      1.0000 0.27150  0.43070  0.17580  Biso   1.000  H
  C95      1.0000 0.26340  0.34300  0.13790  Biso   1.000  C
  H41      1.0000 0.24040  0.32920  0.18200  Biso   1.000  H
  C96      1.0000 0.27950  0.30280  0.07790  Biso   1.000  C
  H42      1.0000 0.26770  0.26160  0.07990  Biso   1.000  H
  C97      1.0000 0.31370  0.32550  0.01460  Biso   1.000  C
  C98      1.0000 0.33260  0.28700  0.94330  Biso   1.000  C
  Sm15     1.0000 0.61320  0.07726  0.88253  Biso   1.000  Sm
  O57      1.0000 0.63910  0.00020  0.98540  Biso   1.000  O
  O58      1.0000 0.68140  0.97160  0.10440  Biso   1.000  O
  O59      1.0000 0.63900  0.18480  0.88450  Biso   1.000  O
  O60      1.0000 0.67920  0.26860  0.94490  Biso   1.000  O
  N15      1.0000 0.67020  0.11460  0.00790  Biso   1.000  N
  C99      1.0000 0.66710  0.01130  0.05180  Biso   1.000  C
  C100     1.0000 0.68720  0.07580  0.06750  Biso   1.000  C
  C101     1.0000 0.71890  0.09620  0.13380  Biso   1.000  C
  H43      1.0000 0.72850  0.06930  0.17580  Biso   1.000  H
  C102     1.0000 0.73660  0.15700  0.13790  Biso   1.000  C
  H44      1.0000 0.75960  0.17080  0.18200  Biso   1.000  H
  C103     1.0000 0.72050  0.19720  0.07790  Biso   1.000  C
  H45      1.0000 0.73230  0.23840  0.07990  Biso   1.000  H
  C104     1.0000 0.68630  0.17450  0.01460  Biso   1.000  C
  C105     1.0000 0.66740  0.21300  0.94330  Biso   1.000  C
  Sm16     1.0000 0.11320  0.57726  0.38253  Biso   1.000  Sm
  O61      1.0000 0.13910  0.50020  0.48540  Biso   1.000  O
  O62      1.0000 0.18140  0.47160  0.60440  Biso   1.000  O
  O63      1.0000 0.13900  0.68480  0.38450  Biso   1.000  O
  O64      1.0000 0.17920  0.76860  0.44490  Biso   1.000  O
  N16      1.0000 0.17020  0.61460  0.50790  Biso   1.000  N
  C106     1.0000 0.16710  0.51130  0.55180  Biso   1.000  C
  C107     1.0000 0.18720  0.57580  0.56750  Biso   1.000  C
  C108     1.0000 0.21890  0.59620  0.63380  Biso   1.000  C
  H46      1.0000 0.22850  0.56930  0.67580  Biso   1.000  H
  C109     1.0000 0.23660  0.65700  0.63790  Biso   1.000  C
  H47      1.0000 0.25960  0.67080  0.68200  Biso   1.000  H
  C110     1.0000 0.22050  0.69720  0.57790  Biso   1.000  C
  H48      1.0000 0.23230  0.73840  0.57990  Biso   1.000  H
  C111     1.0000 0.18630  0.67450  0.51460  Biso   1.000  C
  C112     1.0000 0.16740  0.71300  0.44330  Biso   1.000  C
