data_NARHEV_charged
_audit_creation_date              2014-07-02
_audit_creation_method            'Materials Studio'
_symmetry_space_group_name_H-M    'P1'
_symmetry_Int_Tables_number       1
_symmetry_cell_setting            triclinic
loop_
_symmetry_equiv_pos_as_xyz
  x,y,z
_cell_length_a                    10.1520
_cell_length_b                    18.8793
_cell_length_c                    20.9003
_cell_angle_alpha                 115.5640
_cell_angle_beta                  101.8540
_cell_angle_gamma                 94.7566
loop_
_atom_site_label
_atom_site_type_symbol
_atom_site_fract_x
_atom_site_fract_y
_atom_site_fract_z
_atom_site_U_iso_or_equiv
_atom_site_adp_type
_atom_site_occupancy
Ce1    Ce    0.12824   0.10874   0.93926   0.01267  Uiso   1.00
Ce2    Ce    0.05648   0.06373   0.61478   0.01267  Uiso   1.00
Ce3    Ce    0.31102   0.83052   0.93926   0.01267  Uiso   1.00
Ce4    Ce    0.05830   0.55105   0.61478   0.01267  Uiso   1.00
Ce5    Ce    0.87176   0.89126   0.06074   0.01267  Uiso   1.00
Ce6    Ce    0.94352   0.93627   0.38522   0.01267  Uiso   1.00
Ce7    Ce    0.68898   0.16948   0.06074   0.01267  Uiso   1.00
Ce8    Ce    0.94170   0.44895   0.38522   0.01267  Uiso   1.00
Ce9    Ce    0.03062   0.28062   0.56124   0.01267  Uiso   1.00
Ce10   Ce    0.96938   0.71938   0.43876   0.01267  Uiso   1.00
S1     S     0.16014   0.10131   0.46568   0.01267  Uiso   1.00
S2     S     0.38548   0.02293   0.92900   0.01267  Uiso   1.00
S3     S     0.76734   0.09154   0.49570   0.01267  Uiso   1.00
S4     S     0.21107   0.24691   0.68616   0.01267  Uiso   1.00
S5     S     0.07719   0.09286   0.77774   0.01267  Uiso   1.00
S6     S     0.40548   0.27798   0.04898   0.01267  Uiso   1.00
S7     S     0.80554   0.36437   0.46568   0.01267  Uiso   1.00
S8     S     0.04352   0.90607   0.92900   0.01267  Uiso   1.00
S9     S     0.22836   0.40416   0.49570   0.01267  Uiso   1.00
S10    S     0.97509   0.43925   0.68616   0.01267  Uiso   1.00
S11    S     0.20055   0.68488   0.77774   0.01267  Uiso   1.00
S12    S     0.14350   0.77100   0.04898   0.01267  Uiso   1.00
S13    S     0.83986   0.89869   0.53432   0.01267  Uiso   1.00
S14    S     0.61452   0.97707   0.07100   0.01267  Uiso   1.00
S15    S     0.23266   0.90846   0.50430   0.01267  Uiso   1.00
S16    S     0.78893   0.75309   0.31384   0.01267  Uiso   1.00
S17    S     0.92281   0.90714   0.22226   0.01267  Uiso   1.00
S18    S     0.59452   0.72202   0.95102   0.01267  Uiso   1.00
S19    S     0.19446   0.63563   0.53432   0.01267  Uiso   1.00
S20    S     0.95648   0.09393   0.07100   0.01267  Uiso   1.00
S21    S     0.77164   0.59584   0.50430   0.01267  Uiso   1.00
S22    S     0.02491   0.56075   0.31384   0.01267  Uiso   1.00
S23    S     0.79945   0.31512   0.22226   0.01267  Uiso   1.00
S24    S     0.85650   0.22900   0.95102   0.01267  Uiso   1.00
O1     O     0.23330   0.29800   0.76360   0.01267  Uiso   1.00
O2     O     0.82574   0.07934   0.56088   0.01267  Uiso   1.00
O3     O     0.08157   0.06967   0.50434   0.01267  Uiso   1.00
O4     O     0.29606   0.03346   0.86972   0.01267  Uiso   1.00
O5     O     0.78780   0.02760   0.42860   0.01267  Uiso   1.00
O6     O     0.33670   0.06410   0.99480   0.01267  Uiso   1.00
O7     O     0.13151   0.18021   0.47922   0.01267  Uiso   1.00
O8     O     0.15995   0.16205   0.84750   0.01267  Uiso   1.00
O9     O     0.52886   0.05926   0.94352   0.01267  Uiso   1.00
O10    O     0.05895   0.21665   0.64950   0.01267  Uiso   1.00
O11    O     0.27035   0.17515   0.67390   0.01267  Uiso   1.00
O12    O     0.62101   0.09111   0.48782   0.01267  Uiso   1.00
O13    O     0.37673   0.93723   0.90606   0.01267  Uiso   1.00
O14    O     0.83822   0.16952   0.50824   0.01267  Uiso   1.00
O15    O     0.10259   0.04489   0.38678   0.01267  Uiso   1.00
O16    O     0.16391   0.05291   0.72962   0.01267  Uiso   1.00
O17    O     0.00875   0.03775   0.79910   0.01267  Uiso   1.00
O18    O     0.30484   0.10484   0.48988   0.01267  Uiso   1.00
O19    O     0.25796   0.28986   0.64872   0.01267  Uiso   1.00
O20    O     0.97977   0.12057   0.73514   0.01267  Uiso   1.00
O21    O     0.27420   0.23010   0.02780   0.01267  Uiso   1.00
O22    O     0.51370   0.23770   0.04340   0.01267  Uiso   1.00
O23    O     0.43310   0.34120   0.12280   0.01267  Uiso   1.00
O24    O     0.40490   0.32940   0.01080   0.01267  Uiso   1.00
O25    O     0.03030   0.46560   0.76360   0.01267  Uiso   1.00
O26    O     0.23514   0.48154   0.56088   0.01267  Uiso   1.00
O27    O     0.92277   0.43467   0.50434   0.01267  Uiso   1.00
O28    O     0.07366   0.83626   0.86972   0.01267  Uiso   1.00
O29    O     0.14080   0.40100   0.42860   0.01267  Uiso   1.00
O30    O     0.15810   0.93070   0.99480   0.01267  Uiso   1.00
O31    O     0.84771   0.29901   0.47922   0.01267  Uiso   1.00
O32    O     0.18755   0.68545   0.84750   0.01267  Uiso   1.00
O33    O     0.91466   0.88426   0.94352   0.01267  Uiso   1.00
O34    O     0.09055   0.43285   0.64950   0.01267  Uiso   1.00
O35    O     0.90355   0.49875   0.67390   0.01267  Uiso   1.00
O36    O     0.36681   0.39671   0.48782   0.01267  Uiso   1.00
O37    O     0.02933   0.96883   0.90606   0.01267  Uiso   1.00
O38    O     0.17002   0.33872   0.50824   0.01267  Uiso   1.00
O39    O     0.78419   0.34189   0.38678   0.01267  Uiso   1.00
O40    O     0.06571   0.67671   0.72962   0.01267  Uiso   1.00
O41    O     0.29035   0.76135   0.79910   0.01267  Uiso   1.00
O42    O     0.68504   0.38504   0.48988   0.01267  Uiso   1.00
O43    O     0.89076   0.35886   0.64872   0.01267  Uiso   1.00
O44    O     0.25537   0.61457   0.73514   0.01267  Uiso   1.00
O45    O     0.25360   0.79770   0.02780   0.01267  Uiso   1.00
O46    O     0.02970   0.80570   0.04340   0.01267  Uiso   1.00
O47    O     0.18970   0.78160   0.12280   0.01267  Uiso   1.00
O48    O     0.10590   0.68140   0.01080   0.01267  Uiso   1.00
O49    O     0.76670   0.70200   0.23640   0.01267  Uiso   1.00
O50    O     0.17426   0.92066   0.43912   0.01267  Uiso   1.00
O51    O     0.91843   0.93033   0.49566   0.01267  Uiso   1.00
O52    O     0.70394   0.96654   0.13028   0.01267  Uiso   1.00
O53    O     0.21220   0.97240   0.57140   0.01267  Uiso   1.00
O54    O     0.66330   0.93590   0.00520   0.01267  Uiso   1.00
O55    O     0.86849   0.81979   0.52078   0.01267  Uiso   1.00
O56    O     0.84005   0.83795   0.15250   0.01267  Uiso   1.00
O57    O     0.47114   0.94074   0.05648   0.01267  Uiso   1.00
O58    O     0.94105   0.78335   0.35050   0.01267  Uiso   1.00
O59    O     0.72965   0.82485   0.32610   0.01267  Uiso   1.00
O60    O     0.37899   0.90889   0.51218   0.01267  Uiso   1.00
O61    O     0.62327   0.06277   0.09394   0.01267  Uiso   1.00
O62    O     0.16178   0.83048   0.49176   0.01267  Uiso   1.00
O63    O     0.89741   0.95511   0.61322   0.01267  Uiso   1.00
O64    O     0.83609   0.94709   0.27038   0.01267  Uiso   1.00
O65    O     0.99125   0.96225   0.20090   0.01267  Uiso   1.00
O66    O     0.69516   0.89516   0.51012   0.01267  Uiso   1.00
O67    O     0.74204   0.71014   0.35128   0.01267  Uiso   1.00
O68    O     0.02023   0.87943   0.26486   0.01267  Uiso   1.00
O69    O     0.72580   0.76990   0.97220   0.01267  Uiso   1.00
O70    O     0.48630   0.76230   0.95660   0.01267  Uiso   1.00
O71    O     0.56690   0.65880   0.87720   0.01267  Uiso   1.00
O72    O     0.59510   0.67060   0.98920   0.01267  Uiso   1.00
O73    O     0.96970   0.53440   0.23640   0.01267  Uiso   1.00
O74    O     0.76486   0.51846   0.43912   0.01267  Uiso   1.00
O75    O     0.07723   0.56533   0.49566   0.01267  Uiso   1.00
O76    O     0.92634   0.16374   0.13028   0.01267  Uiso   1.00
O77    O     0.85920   0.59900   0.57140   0.01267  Uiso   1.00
O78    O     0.84190   0.06930   0.00520   0.01267  Uiso   1.00
O79    O     0.15229   0.70099   0.52078   0.01267  Uiso   1.00
O80    O     0.81245   0.31455   0.15250   0.01267  Uiso   1.00
O81    O     0.08534   0.11574   0.05648   0.01267  Uiso   1.00
O82    O     0.90945   0.56715   0.35050   0.01267  Uiso   1.00
O83    O     0.09645   0.50125   0.32610   0.01267  Uiso   1.00
O84    O     0.63319   0.60329   0.51218   0.01267  Uiso   1.00
O85    O     0.97067   0.03117   0.09394   0.01267  Uiso   1.00
O86    O     0.82998   0.66128   0.49176   0.01267  Uiso   1.00
O87    O     0.21581   0.65811   0.61322   0.01267  Uiso   1.00
O88    O     0.93429   0.32329   0.27038   0.01267  Uiso   1.00
O89    O     0.70965   0.23865   0.20090   0.01267  Uiso   1.00
O90    O     0.31496   0.61496   0.51012   0.01267  Uiso   1.00
O91    O     0.10924   0.64114   0.35128   0.01267  Uiso   1.00
O92    O     0.74463   0.38543   0.26486   0.01267  Uiso   1.00
O93    O     0.74640   0.20230   0.97220   0.01267  Uiso   1.00
O94    O     0.97030   0.19430   0.95660   0.01267  Uiso   1.00
O95    O     0.81030   0.21840   0.87720   0.01267  Uiso   1.00
O96    O     0.89410   0.31860   0.98920   0.01267  Uiso   1.00
H1     H     0.41770   0.52500   0.41280   0.01267  Uiso   1.00
H2     H     0.30710   0.44960   0.35340   0.01267  Uiso   1.00
H3     H     0.42680   0.48340   0.33120   0.01267  Uiso   1.00
H4     H     0.52760   0.31110   0.33760   0.01267  Uiso   1.00
H5     H     0.49570   0.34960   0.28440   0.01267  Uiso   1.00
H6     H     0.37600   0.31580   0.30660   0.01267  Uiso   1.00
H7     H     0.57650   0.44610   0.40280   0.01267  Uiso   1.00
H8     H     0.46570   0.41490   0.42360   0.01267  Uiso   1.00
C1     C     0.40230   0.47460   0.36940   0.01267  Uiso   1.00
C2     C     0.47020   0.34270   0.32340   0.01267  Uiso   1.00
N1     N     0.48775   0.42185   0.38690   0.01267  Uiso   1.00
H9     H     0.73870   0.03370   0.86020   0.01267  Uiso   1.00
H10    H     0.61200   0.97300   0.79740   0.01267  Uiso   1.00
H11    H     0.76030   0.95540   0.79740   0.01267  Uiso   1.00
H12    H     0.76920   0.94240   0.90120   0.01267  Uiso   1.00
H13    H     0.62150   0.82650   0.86020   0.01267  Uiso   1.00
H14    H     0.68540   0.82440   0.79740   0.01267  Uiso   1.00
H15    H     0.53710   0.84200   0.79740   0.01267  Uiso   1.00
H16    H     0.63200   0.95880   0.90120   0.01267  Uiso   1.00
C3     C     0.70060   0.97810   0.82780   0.01267  Uiso   1.00
C4     C     0.62720   0.84970   0.82780   0.01267  Uiso   1.00
N2     N     0.68600   0.93600   0.87200   0.01267  Uiso   1.00
H17    H     0.83010   0.26490   0.74340   0.01267  Uiso   1.00
H18    H     0.93610   0.34390   0.77060   0.01267  Uiso   1.00
H19    H     0.84010   0.33860   0.81900   0.01267  Uiso   1.00
H20    H     0.15430   0.32410   0.91000   0.01267  Uiso   1.00
H21    H     0.04160   0.37680   0.92280   0.01267  Uiso   1.00
H22    H     0.13760   0.38220   0.87460   0.01267  Uiso   1.00
H23    H     0.95060   0.25400   0.83680   0.01267  Uiso   1.00
H24    H     0.03950   0.25880   0.79180   0.01267  Uiso   1.00
C5     C     0.89130   0.30930   0.78580   0.01267  Uiso   1.00
C6     C     0.08980   0.34710   0.88820   0.01267  Uiso   1.00
N3     N     0.99330   0.28710   0.82360   0.01267  Uiso   1.00
H25    H     0.07930   0.44910   0.10180   0.01267  Uiso   1.00
H26    H     0.19760   0.40030   0.09180   0.01267  Uiso   1.00
H27    H     0.20580   0.47090   0.16900   0.01267  Uiso   1.00
H28    H     0.09530   0.30000   0.18880   0.01267  Uiso   1.00
H29    H     0.21710   0.37380   0.22620   0.01267  Uiso   1.00
H30    H     0.20900   0.30320   0.14900   0.01267  Uiso   1.00
H31    H     0.02750   0.40030   0.17260   0.01267  Uiso   1.00
H32    H     0.01990   0.33510   0.10140   0.01267  Uiso   1.00
C7     C     0.14530   0.42790   0.12500   0.01267  Uiso   1.00
C8     C     0.15630   0.33440   0.18000   0.01267  Uiso   1.00
N4     N     0.07850   0.37340   0.14320   0.01267  Uiso   1.00
H33    H     0.69250   0.10370   0.26520   0.01267  Uiso   1.00
H34    H     0.77790   0.18600   0.32900   0.01267  Uiso   1.00
H35    H     0.80810   0.10590   0.32900   0.01267  Uiso   1.00
H36    H     0.87770   0.07670   0.22740   0.01267  Uiso   1.00
H37    H     0.07270   0.16150   0.26520   0.01267  Uiso   1.00
H38    H     0.05110   0.14300   0.32900   0.01267  Uiso   1.00
H39    H     0.02090   0.22310   0.32900   0.01267  Uiso   1.00
H40    H     0.84970   0.15070   0.22740   0.01267  Uiso   1.00
C9     C     0.78140   0.13130   0.29860   0.01267  Uiso   1.00
C10    C     0.01720   0.16730   0.29860   0.01267  Uiso   1.00
N5     N     0.87840   0.12840   0.25680   0.01267  Uiso   1.00
H41    H     0.49510   0.88780   0.41280   0.01267  Uiso   1.00
H42    H     0.54630   0.90380   0.35340   0.01267  Uiso   1.00
H43    H     0.40440   0.84780   0.33120   0.01267  Uiso   1.00
H44    H     0.31000   0.02650   0.33760   0.01267  Uiso   1.00
H45    H     0.28870   0.93480   0.28440   0.01267  Uiso   1.00
H46    H     0.43060   0.99080   0.30660   0.01267  Uiso   1.00
H47    H     0.32630   0.95670   0.40280   0.01267  Uiso   1.00
H48    H     0.45790   0.00870   0.42360   0.01267  Uiso   1.00
C11    C     0.46710   0.89480   0.36940   0.01267  Uiso   1.00
C12    C     0.35320   0.98070   0.32340   0.01267  Uiso   1.00
N6     N     0.39915   0.96505   0.38690   0.01267  Uiso   1.00
H49    H     0.41330   0.47850   0.74340   0.01267  Uiso   1.00
H50    H     0.33450   0.42670   0.77060   0.01267  Uiso   1.00
H51    H     0.47890   0.48040   0.81900   0.01267  Uiso   1.00
H52    H     0.25570   0.58590   0.91000   0.01267  Uiso   1.00
H53    H     0.38120   0.54600   0.92280   0.01267  Uiso   1.00
H54    H     0.23700   0.49240   0.87460   0.01267  Uiso   1.00
H55    H     0.38620   0.58280   0.83680   0.01267  Uiso   1.00
H56    H     0.25230   0.53300   0.79180   0.01267  Uiso   1.00
C13    C     0.39450   0.47650   0.78580   0.01267  Uiso   1.00
C14    C     0.29840   0.54110   0.88820   0.01267  Uiso   1.00
N7     N     0.33030   0.53650   0.82360   0.01267  Uiso   1.00
H57    H     0.52250   0.65270   0.10180   0.01267  Uiso   1.00
H58    H     0.39420   0.69150   0.09180   0.01267  Uiso   1.00
H59    H     0.46320   0.69810   0.16900   0.01267  Uiso   1.00
H60    H     0.59350   0.88880   0.18880   0.01267  Uiso   1.00
H61    H     0.50910   0.85240   0.22620   0.01267  Uiso   1.00
H62    H     0.44000   0.84580   0.14900   0.01267  Uiso   1.00
H63    H     0.64510   0.77230   0.17260   0.01267  Uiso   1.00
H64    H     0.58150   0.76630   0.10140   0.01267  Uiso   1.00
C15    C     0.47970   0.69710   0.12500   0.01267  Uiso   1.00
C16    C     0.52370   0.84560   0.18000   0.01267  Uiso   1.00
N8     N     0.56470   0.76980   0.14320   0.01267  Uiso   1.00
H65    H     0.58230   0.47500   0.58720   0.01267  Uiso   1.00
H66    H     0.69290   0.55040   0.64660   0.01267  Uiso   1.00
H67    H     0.57320   0.51660   0.66880   0.01267  Uiso   1.00
H68    H     0.47240   0.68890   0.66240   0.01267  Uiso   1.00
H69    H     0.50430   0.65040   0.71560   0.01267  Uiso   1.00
H70    H     0.62400   0.68420   0.69340   0.01267  Uiso   1.00
H71    H     0.42350   0.55390   0.59720   0.01267  Uiso   1.00
H72    H     0.53430   0.58510   0.57640   0.01267  Uiso   1.00
C17    C     0.59770   0.52540   0.63060   0.01267  Uiso   1.00
C18    C     0.52980   0.65730   0.67660   0.01267  Uiso   1.00
N9     N     0.51225   0.57815   0.61310   0.01267  Uiso   1.00
H73    H     0.26130   0.96630   0.13980   0.01267  Uiso   1.00
H74    H     0.38800   0.02700   0.20260   0.01267  Uiso   1.00
H75    H     0.23970   0.04460   0.20260   0.01267  Uiso   1.00
H76    H     0.23080   0.05760   0.09880   0.01267  Uiso   1.00
H77    H     0.37850   0.17350   0.13980   0.01267  Uiso   1.00
H78    H     0.31460   0.17560   0.20260   0.01267  Uiso   1.00
H79    H     0.46290   0.15800   0.20260   0.01267  Uiso   1.00
H80    H     0.36800   0.04120   0.09880   0.01267  Uiso   1.00
C19    C     0.29940   0.02190   0.17220   0.01267  Uiso   1.00
C20    C     0.37280   0.15030   0.17220   0.01267  Uiso   1.00
N10    N     0.31400   0.06400   0.12800   0.01267  Uiso   1.00
H81    H     0.16990   0.73510   0.25660   0.01267  Uiso   1.00
H82    H     0.06390   0.65610   0.22940   0.01267  Uiso   1.00
H83    H     0.15990   0.66140   0.18100   0.01267  Uiso   1.00
H84    H     0.84570   0.67590   0.09000   0.01267  Uiso   1.00
H85    H     0.95840   0.62320   0.07720   0.01267  Uiso   1.00
H86    H     0.86240   0.61780   0.12540   0.01267  Uiso   1.00
H87    H     0.04940   0.74600   0.16320   0.01267  Uiso   1.00
H88    H     0.96050   0.74120   0.20820   0.01267  Uiso   1.00
C21    C     0.10870   0.69070   0.21420   0.01267  Uiso   1.00
C22    C     0.91020   0.65290   0.11180   0.01267  Uiso   1.00
N11    N     0.00670   0.71290   0.17640   0.01267  Uiso   1.00
H89    H     0.92070   0.55090   0.89820   0.01267  Uiso   1.00
H90    H     0.80240   0.59970   0.90820   0.01267  Uiso   1.00
H91    H     0.79420   0.52910   0.83100   0.01267  Uiso   1.00
H92    H     0.90470   0.70000   0.81120   0.01267  Uiso   1.00
H93    H     0.78290   0.62620   0.77380   0.01267  Uiso   1.00
H94    H     0.79100   0.69680   0.85100   0.01267  Uiso   1.00
H95    H     0.97250   0.59970   0.82740   0.01267  Uiso   1.00
H96    H     0.98010   0.66490   0.89860   0.01267  Uiso   1.00
C23    C     0.85470   0.57210   0.87500   0.01267  Uiso   1.00
C24    C     0.84370   0.66560   0.82000   0.01267  Uiso   1.00
N12    N     0.92150   0.62660   0.85680   0.01267  Uiso   1.00
H97    H     0.30750   0.89630   0.73480   0.01267  Uiso   1.00
H98    H     0.22210   0.81400   0.67100   0.01267  Uiso   1.00
H99    H     0.19190   0.89410   0.67100   0.01267  Uiso   1.00
H100   H     0.12230   0.92330   0.77260   0.01267  Uiso   1.00
H101   H     0.92730   0.83850   0.73480   0.01267  Uiso   1.00
H102   H     0.94890   0.85700   0.67100   0.01267  Uiso   1.00
H103   H     0.97910   0.77690   0.67100   0.01267  Uiso   1.00
H104   H     0.15030   0.84930   0.77260   0.01267  Uiso   1.00
C25    C     0.21860   0.86870   0.70140   0.01267  Uiso   1.00
C26    C     0.98280   0.83270   0.70140   0.01267  Uiso   1.00
N13    N     0.12160   0.87160   0.74320   0.01267  Uiso   1.00
H105   H     0.50490   0.11220   0.58720   0.01267  Uiso   1.00
H106   H     0.45370   0.09620   0.64660   0.01267  Uiso   1.00
H107   H     0.59560   0.15220   0.66880   0.01267  Uiso   1.00
H108   H     0.69000   0.97350   0.66240   0.01267  Uiso   1.00
H109   H     0.71130   0.06520   0.71560   0.01267  Uiso   1.00
H110   H     0.56940   0.00920   0.69340   0.01267  Uiso   1.00
H111   H     0.67370   0.04330   0.59720   0.01267  Uiso   1.00
H112   H     0.54210   0.99130   0.57640   0.01267  Uiso   1.00
C27    C     0.53290   0.10520   0.63060   0.01267  Uiso   1.00
C28    C     0.64680   0.01930   0.67660   0.01267  Uiso   1.00
N14    N     0.60085   0.03495   0.61310   0.01267  Uiso   1.00
H113   H     0.58670   0.52150   0.25660   0.01267  Uiso   1.00
H114   H     0.66550   0.57330   0.22940   0.01267  Uiso   1.00
H115   H     0.52110   0.51960   0.18100   0.01267  Uiso   1.00
H116   H     0.74430   0.41410   0.09000   0.01267  Uiso   1.00
H117   H     0.61880   0.45400   0.07720   0.01267  Uiso   1.00
H118   H     0.76300   0.50760   0.12540   0.01267  Uiso   1.00
H119   H     0.61380   0.41720   0.16320   0.01267  Uiso   1.00
H120   H     0.74770   0.46700   0.20820   0.01267  Uiso   1.00
C29    C     0.60550   0.52350   0.21420   0.01267  Uiso   1.00
C30    C     0.70160   0.45890   0.11180   0.01267  Uiso   1.00
N15    N     0.66970   0.46350   0.17640   0.01267  Uiso   1.00
H121   H     0.47750   0.34730   0.89820   0.01267  Uiso   1.00
H122   H     0.60580   0.30850   0.90820   0.01267  Uiso   1.00
H123   H     0.53680   0.30190   0.83100   0.01267  Uiso   1.00
H124   H     0.40650   0.11120   0.81120   0.01267  Uiso   1.00
H125   H     0.49090   0.14760   0.77380   0.01267  Uiso   1.00
H126   H     0.56000   0.15420   0.85100   0.01267  Uiso   1.00
H127   H     0.35490   0.22770   0.82740   0.01267  Uiso   1.00
H128   H     0.41850   0.23370   0.89860   0.01267  Uiso   1.00
C31    C     0.52030   0.30290   0.87500   0.01267  Uiso   1.00
C32    C     0.47630   0.15440   0.82000   0.01267  Uiso   1.00
N16    N     0.43530   0.23020   0.85680   0.01267  Uiso   1.00
