data_image0
_cell_length_a       9.612
_cell_length_b       22.868
_cell_length_c       10.159
_cell_angle_alpha    90
_cell_angle_beta     101.07
_cell_angle_gamma    90

_symmetry_space_group_name_H-M    "P 1"
_symmetry_int_tables_number       1

loop_
  _symmetry_equiv_pos_as_xyz
  'x, y, z'

loop_
  _atom_site_label
  _atom_site_occupancy
  _atom_site_fract_x
  _atom_site_fract_y
  _atom_site_fract_z
  _atom_site_thermal_displace_type
  _atom_site_B_iso_or_equiv
  _atom_site_type_symbol
  Pr1      1.0000 0.25589  0.27799  0.03749  Biso   1.000  Pr
  Pr2      1.0000 0.72041  0.43549  0.85034  Biso   1.000  Pr
  N1       1.0000 0.59720  0.41592  0.61390  Biso   1.000  N
  N2       1.0000 0.53360  0.41630  0.39420  Biso   1.000  N
  H1       1.0000 0.52871  0.42633  0.30980  Biso   1.000  H
  N3       1.0000 0.77130  0.50727  0.63590  Biso   1.000  N
  O1       1.0000 0.06880  0.34065  0.09880  Biso   1.000  O
  O2       1.0000 0.03910  0.29129  0.85520  Biso   1.000  O
  O3       1.0000 0.85030  0.37878  0.04270  Biso   1.000  O
  O4       1.0000 0.83900  0.34303  0.78620  Biso   1.000  O
  O5       1.0000 0.59640  0.43569  0.04410  Biso   1.000  O
  O6       1.0000 0.47110  0.48968  0.16420  Biso   1.000  O
  O7       1.0000 0.37940  0.29746  0.68090  Biso   1.000  O
  O8       1.0000 0.52210  0.36037  0.80910  Biso   1.000  O
  O9       1.0000 0.28320  0.29676  0.37990  Biso   1.000  O
  O10      1.0000 0.37560  0.34096  0.22050  Biso   1.000  O
  O11      1.0000 0.17810  0.48027  0.00620  Biso   1.000  O
  O12      1.0000 0.98040  0.45148  0.86480  Biso   1.000  O
  C1       1.0000 0.45730  0.37187  0.44020  Biso   1.000  C
  C2       1.0000 0.49820  0.37277  0.57850  Biso   1.000  C
  C3       1.0000 0.61700  0.44153  0.50140  Biso   1.000  C
  C4       1.0000 0.71940  0.49003  0.50770  Biso   1.000  C
  C5       1.0000 0.75950  0.51474  0.39640  Biso   1.000  C
  H2       1.0000 0.72272  0.50057  0.30869  Biso   1.000  H
  C6       1.0000 0.85620  0.56138  0.41680  Biso   1.000  C
  H3       1.0000 0.88592  0.57964  0.34290  Biso   1.000  H
  C7       1.0000 0.90770  0.58040  0.54700  Biso   1.000  C
  H4       1.0000 0.97232  0.61219  0.56334  Biso   1.000  H
  C8       1.0000 0.86320  0.55219  0.65310  Biso   1.000  C
  H5       1.0000 0.89949  0.56530  0.74181  Biso   1.000  H
  C9       1.0000 0.52030  0.47822  0.05950  Biso   1.000  C
  C10      1.0000 0.04490  0.48019  0.96170  Biso   1.000  C
  C11      1.0000 0.46180  0.34007  0.69460  Biso   1.000  C
  C12      1.0000 0.36460  0.33369  0.34040  Biso   1.000  C
  C13      1.0000 0.95510  0.35014  0.01880  Biso   1.000  C
  C14      1.0000 0.94190  0.32556  0.87320  Biso   1.000  C
  Pr3      1.0000 0.74411  0.77799  0.46251  Biso   1.000  Pr
  Pr4      1.0000 0.27959  0.93549  0.64966  Biso   1.000  Pr
  N4       1.0000 0.40280  0.91592  0.88610  Biso   1.000  N
  N5       1.0000 0.46640  0.91630  0.10580  Biso   1.000  N
  H6       1.0000 0.47129  0.92633  0.19020  Biso   1.000  H
  N6       1.0000 0.22870  0.00727  0.86410  Biso   1.000  N
  O13      1.0000 0.93120  0.84065  0.40120  Biso   1.000  O
  O14      1.0000 0.96090  0.79129  0.64480  Biso   1.000  O
  O15      1.0000 0.14970  0.87878  0.45730  Biso   1.000  O
  O16      1.0000 0.16100  0.84303  0.71380  Biso   1.000  O
  O17      1.0000 0.40360  0.93569  0.45590  Biso   1.000  O
  O18      1.0000 0.52890  0.98968  0.33580  Biso   1.000  O
  O19      1.0000 0.62060  0.79746  0.81910  Biso   1.000  O
  O20      1.0000 0.47790  0.86037  0.69090  Biso   1.000  O
  O21      1.0000 0.71680  0.79676  0.12010  Biso   1.000  O
  O22      1.0000 0.62440  0.84096  0.27950  Biso   1.000  O
  O23      1.0000 0.82190  0.98027  0.49380  Biso   1.000  O
  O24      1.0000 0.01960  0.95148  0.63520  Biso   1.000  O
  C15      1.0000 0.54270  0.87187  0.05980  Biso   1.000  C
  C16      1.0000 0.50180  0.87277  0.92150  Biso   1.000  C
  C17      1.0000 0.38300  0.94153  0.99860  Biso   1.000  C
  C18      1.0000 0.28060  0.99003  0.99230  Biso   1.000  C
  C19      1.0000 0.24050  0.01474  0.10360  Biso   1.000  C
  H7       1.0000 0.27728  0.00057  0.19131  Biso   1.000  H
  C20      1.0000 0.14380  0.06138  0.08320  Biso   1.000  C
  H8       1.0000 0.11408  0.07964  0.15710  Biso   1.000  H
  C21      1.0000 0.09230  0.08040  0.95300  Biso   1.000  C
  H9       1.0000 0.02768  0.11219  0.93666  Biso   1.000  H
  C22      1.0000 0.13680  0.05219  0.84690  Biso   1.000  C
  H10      1.0000 0.10051  0.06530  0.75819  Biso   1.000  H
  C23      1.0000 0.47970  0.97822  0.44050  Biso   1.000  C
  C24      1.0000 0.95510  0.98019  0.53830  Biso   1.000  C
  C25      1.0000 0.53820  0.84007  0.80540  Biso   1.000  C
  C26      1.0000 0.63540  0.83369  0.15960  Biso   1.000  C
  C27      1.0000 0.04490  0.85014  0.48120  Biso   1.000  C
  C28      1.0000 0.05810  0.82556  0.62680  Biso   1.000  C
  Pr5      1.0000 0.74411  0.72201  0.96251  Biso   1.000  Pr
  Pr6      1.0000 0.27959  0.56451  0.14966  Biso   1.000  Pr
  N7       1.0000 0.40280  0.58408  0.38610  Biso   1.000  N
  N8       1.0000 0.46640  0.58370  0.60580  Biso   1.000  N
  H11      1.0000 0.47129  0.57367  0.69020  Biso   1.000  H
  N9       1.0000 0.22870  0.49273  0.36410  Biso   1.000  N
  O25      1.0000 0.93120  0.65935  0.90120  Biso   1.000  O
  O26      1.0000 0.96090  0.70871  0.14480  Biso   1.000  O
  O27      1.0000 0.14970  0.62122  0.95730  Biso   1.000  O
  O28      1.0000 0.16100  0.65697  0.21380  Biso   1.000  O
  O29      1.0000 0.40360  0.56431  0.95590  Biso   1.000  O
  O30      1.0000 0.52890  0.51032  0.83580  Biso   1.000  O
  O31      1.0000 0.62060  0.70254  0.31910  Biso   1.000  O
  O32      1.0000 0.47790  0.63963  0.19090  Biso   1.000  O
  O33      1.0000 0.71680  0.70324  0.62010  Biso   1.000  O
  O34      1.0000 0.62440  0.65904  0.77950  Biso   1.000  O
  O35      1.0000 0.82190  0.51973  0.99380  Biso   1.000  O
  O36      1.0000 0.01960  0.54852  0.13520  Biso   1.000  O
  C29      1.0000 0.54270  0.62813  0.55980  Biso   1.000  C
  C30      1.0000 0.50180  0.62723  0.42150  Biso   1.000  C
  C31      1.0000 0.38300  0.55847  0.49860  Biso   1.000  C
  C32      1.0000 0.28060  0.50997  0.49230  Biso   1.000  C
  C33      1.0000 0.24050  0.48526  0.60360  Biso   1.000  C
  H12      1.0000 0.27728  0.49943  0.69131  Biso   1.000  H
  C34      1.0000 0.14380  0.43862  0.58320  Biso   1.000  C
  H13      1.0000 0.11408  0.42036  0.65710  Biso   1.000  H
  C35      1.0000 0.09230  0.41960  0.45300  Biso   1.000  C
  H14      1.0000 0.02768  0.38781  0.43666  Biso   1.000  H
  C36      1.0000 0.13680  0.44781  0.34690  Biso   1.000  C
  H15      1.0000 0.10051  0.43470  0.25819  Biso   1.000  H
  C37      1.0000 0.47970  0.52178  0.94050  Biso   1.000  C
  C38      1.0000 0.95510  0.51981  0.03830  Biso   1.000  C
  C39      1.0000 0.53820  0.65993  0.30540  Biso   1.000  C
  C40      1.0000 0.63540  0.66631  0.65960  Biso   1.000  C
  C41      1.0000 0.04490  0.64986  0.98120  Biso   1.000  C
  C42      1.0000 0.05810  0.67444  0.12680  Biso   1.000  C
  Pr7      1.0000 0.25589  0.22201  0.53749  Biso   1.000  Pr
  Pr8      1.0000 0.72041  0.06451  0.35034  Biso   1.000  Pr
  N10      1.0000 0.59720  0.08408  0.11390  Biso   1.000  N
  N11      1.0000 0.53360  0.08370  0.89420  Biso   1.000  N
  H16      1.0000 0.52871  0.07367  0.80980  Biso   1.000  H
  N12      1.0000 0.77130  0.99273  0.13590  Biso   1.000  N
  O37      1.0000 0.06880  0.15935  0.59880  Biso   1.000  O
  O38      1.0000 0.03910  0.20871  0.35520  Biso   1.000  O
  O39      1.0000 0.85030  0.12122  0.54270  Biso   1.000  O
  O40      1.0000 0.83900  0.15697  0.28620  Biso   1.000  O
  O41      1.0000 0.59640  0.06431  0.54410  Biso   1.000  O
  O42      1.0000 0.47110  0.01032  0.66420  Biso   1.000  O
  O43      1.0000 0.37940  0.20254  0.18090  Biso   1.000  O
  O44      1.0000 0.52210  0.13963  0.30910  Biso   1.000  O
  O45      1.0000 0.28320  0.20324  0.87990  Biso   1.000  O
  O46      1.0000 0.37560  0.15904  0.72050  Biso   1.000  O
  O47      1.0000 0.17810  0.01973  0.50620  Biso   1.000  O
  O48      1.0000 0.98040  0.04852  0.36480  Biso   1.000  O
  C43      1.0000 0.45730  0.12813  0.94020  Biso   1.000  C
  C44      1.0000 0.49820  0.12723  0.07850  Biso   1.000  C
  C45      1.0000 0.61700  0.05847  0.00140  Biso   1.000  C
  C46      1.0000 0.71940  0.00997  0.00770  Biso   1.000  C
  C47      1.0000 0.75950  0.98526  0.89640  Biso   1.000  C
  H17      1.0000 0.72272  0.99943  0.80869  Biso   1.000  H
  C48      1.0000 0.85620  0.93862  0.91680  Biso   1.000  C
  H18      1.0000 0.88592  0.92036  0.84290  Biso   1.000  H
  C49      1.0000 0.90770  0.91960  0.04700  Biso   1.000  C
  H19      1.0000 0.97232  0.88781  0.06334  Biso   1.000  H
  C50      1.0000 0.86320  0.94781  0.15310  Biso   1.000  C
  H20      1.0000 0.89949  0.93470  0.24181  Biso   1.000  H
  C51      1.0000 0.52030  0.02178  0.55950  Biso   1.000  C
  C52      1.0000 0.04490  0.01981  0.46170  Biso   1.000  C
  C53      1.0000 0.46180  0.15993  0.19460  Biso   1.000  C
  C54      1.0000 0.36460  0.16631  0.84040  Biso   1.000  C
  C55      1.0000 0.95510  0.14986  0.51880  Biso   1.000  C
  C56      1.0000 0.94190  0.17444  0.37320  Biso   1.000  C
