data_image0
_cell_length_a       9.574
_cell_length_b       22.547
_cell_length_c       10.122
_cell_angle_alpha    90
_cell_angle_beta     102.04
_cell_angle_gamma    90

_symmetry_space_group_name_H-M    "P 1"
_symmetry_int_tables_number       1

loop_
  _symmetry_equiv_pos_as_xyz
  'x, y, z'

loop_
  _atom_site_label
  _atom_site_occupancy
  _atom_site_fract_x
  _atom_site_fract_y
  _atom_site_fract_z
  _atom_site_thermal_displace_type
  _atom_site_B_iso_or_equiv
  _atom_site_type_symbol
  Eu1      1.0000 0.74915  0.72216  0.95684  Biso   1.000  Eu
  Eu2      1.0000 0.28188  0.56499  0.14376  Biso   1.000  Eu
  N1       1.0000 0.22720  0.49221  0.35820  Biso   1.000  N
  N2       1.0000 0.40180  0.58492  0.37860  Biso   1.000  N
  N3       1.0000 0.46540  0.58658  0.60030  Biso   1.000  N
  H1       1.0000 0.47554  0.57161  0.67975  Biso   1.000  H
  O1       1.0000 0.93250  0.66083  0.89450  Biso   1.000  O
  O2       1.0000 0.96530  0.71058  0.13910  Biso   1.000  O
  O3       1.0000 0.16790  0.65797  0.20950  Biso   1.000  O
  O4       1.0000 0.15110  0.62078  0.95270  Biso   1.000  O
  O5       1.0000 0.39950  0.56390  0.95120  Biso   1.000  O
  O6       1.0000 0.52990  0.50961  0.83540  Biso   1.000  O
  O7       1.0000 0.17830  0.48098  0.00370  Biso   1.000  O
  O8       1.0000 0.97570  0.44898  0.86740  Biso   1.000  O
  O9       1.0000 0.47820  0.63990  0.18190  Biso   1.000  O
  O10      1.0000 0.62380  0.70400  0.31170  Biso   1.000  O
  O11      1.0000 0.72050  0.70621  0.61390  Biso   1.000  O
  O12      1.0000 0.63290  0.66118  0.77540  Biso   1.000  O
  C1       1.0000 0.04780  0.65027  0.97500  Biso   1.000  C
  C2       1.0000 0.06270  0.67565  0.12200  Biso   1.000  C
  C3       1.0000 0.04380  0.47986  0.96180  Biso   1.000  C
  C4       1.0000 0.47860  0.52144  0.93870  Biso   1.000  C
  C5       1.0000 0.53950  0.66089  0.29760  Biso   1.000  C
  C6       1.0000 0.64080  0.66910  0.65410  Biso   1.000  C
  C7       1.0000 0.50230  0.62899  0.41420  Biso   1.000  C
  C8       1.0000 0.54400  0.63103  0.55420  Biso   1.000  C
  C9       1.0000 0.38220  0.56007  0.49250  Biso   1.000  C
  C10      1.0000 0.27850  0.51114  0.48730  Biso   1.000  C
  C11      1.0000 0.23730  0.48710  0.59950  Biso   1.000  C
  H2       1.0000 0.27315  0.50214  0.68772  Biso   1.000  H
  C12      1.0000 0.14030  0.43950  0.57720  Biso   1.000  C
  H3       1.0000 0.10811  0.42161  0.65042  Biso   1.000  H
  C13      1.0000 0.09210  0.41900  0.44540  Biso   1.000  C
  H4       1.0000 0.02983  0.38576  0.42861  Biso   1.000  H
  C14      1.0000 0.13460  0.44680  0.34090  Biso   1.000  C
  H5       1.0000 0.09700  0.43336  0.25154  Biso   1.000  H
  Eu3      1.0000 0.25085  0.22216  0.54316  Biso   1.000  Eu
  Eu4      1.0000 0.71812  0.06499  0.35624  Biso   1.000  Eu
  N4       1.0000 0.77280  0.99221  0.14180  Biso   1.000  N
  N5       1.0000 0.59820  0.08492  0.12140  Biso   1.000  N
  N6       1.0000 0.53460  0.08658  0.89970  Biso   1.000  N
  H6       1.0000 0.52446  0.07161  0.82025  Biso   1.000  H
  O13      1.0000 0.06750  0.16083  0.60550  Biso   1.000  O
  O14      1.0000 0.03470  0.21058  0.36090  Biso   1.000  O
  O15      1.0000 0.83210  0.15797  0.29050  Biso   1.000  O
  O16      1.0000 0.84890  0.12078  0.54730  Biso   1.000  O
  O17      1.0000 0.60050  0.06390  0.54880  Biso   1.000  O
  O18      1.0000 0.47010  0.00961  0.66460  Biso   1.000  O
  O19      1.0000 0.82170  0.98098  0.49630  Biso   1.000  O
  O20      1.0000 0.02430  0.94898  0.63260  Biso   1.000  O
  O21      1.0000 0.52180  0.13990  0.31810  Biso   1.000  O
  O22      1.0000 0.37620  0.20400  0.18830  Biso   1.000  O
  O23      1.0000 0.27950  0.20621  0.88610  Biso   1.000  O
  O24      1.0000 0.36710  0.16118  0.72460  Biso   1.000  O
  C15      1.0000 0.95220  0.15027  0.52500  Biso   1.000  C
  C16      1.0000 0.93730  0.17565  0.37800  Biso   1.000  C
  C17      1.0000 0.95620  0.97986  0.53820  Biso   1.000  C
  C18      1.0000 0.52140  0.02144  0.56130  Biso   1.000  C
  C19      1.0000 0.46050  0.16089  0.20240  Biso   1.000  C
  C20      1.0000 0.35920  0.16910  0.84590  Biso   1.000  C
  C21      1.0000 0.49770  0.12899  0.08580  Biso   1.000  C
  C22      1.0000 0.45600  0.13103  0.94580  Biso   1.000  C
  C23      1.0000 0.61780  0.06007  0.00750  Biso   1.000  C
  C24      1.0000 0.72150  0.01114  0.01270  Biso   1.000  C
  C25      1.0000 0.76270  0.98710  0.90050  Biso   1.000  C
  H7       1.0000 0.72685  0.00214  0.81228  Biso   1.000  H
  C26      1.0000 0.85970  0.93950  0.92280  Biso   1.000  C
  H8       1.0000 0.89189  0.92161  0.84958  Biso   1.000  H
  C27      1.0000 0.90790  0.91900  0.05460  Biso   1.000  C
  H9       1.0000 0.97017  0.88576  0.07139  Biso   1.000  H
  C28      1.0000 0.86540  0.94680  0.15910  Biso   1.000  C
  H10      1.0000 0.90300  0.93336  0.24846  Biso   1.000  H
  Eu5      1.0000 0.25085  0.27784  0.04316  Biso   1.000  Eu
  Eu6      1.0000 0.71812  0.43501  0.85624  Biso   1.000  Eu
  N7       1.0000 0.77280  0.50779  0.64180  Biso   1.000  N
  N8       1.0000 0.59820  0.41508  0.62140  Biso   1.000  N
  N9       1.0000 0.53460  0.41342  0.39970  Biso   1.000  N
  H11      1.0000 0.52446  0.42839  0.32025  Biso   1.000  H
  O25      1.0000 0.06750  0.33917  0.10550  Biso   1.000  O
  O26      1.0000 0.03470  0.28942  0.86090  Biso   1.000  O
  O27      1.0000 0.83210  0.34203  0.79050  Biso   1.000  O
  O28      1.0000 0.84890  0.37922  0.04730  Biso   1.000  O
  O29      1.0000 0.60050  0.43610  0.04880  Biso   1.000  O
  O30      1.0000 0.47010  0.49039  0.16460  Biso   1.000  O
  O31      1.0000 0.82170  0.51902  0.99630  Biso   1.000  O
  O32      1.0000 0.02430  0.55102  0.13260  Biso   1.000  O
  O33      1.0000 0.52180  0.36010  0.81810  Biso   1.000  O
  O34      1.0000 0.37620  0.29600  0.68830  Biso   1.000  O
  O35      1.0000 0.27950  0.29379  0.38610  Biso   1.000  O
  O36      1.0000 0.36710  0.33882  0.22460  Biso   1.000  O
  C29      1.0000 0.95220  0.34973  0.02500  Biso   1.000  C
  C30      1.0000 0.93730  0.32435  0.87800  Biso   1.000  C
  C31      1.0000 0.95620  0.52014  0.03820  Biso   1.000  C
  C32      1.0000 0.52140  0.47856  0.06130  Biso   1.000  C
  C33      1.0000 0.46050  0.33911  0.70240  Biso   1.000  C
  C34      1.0000 0.35920  0.33090  0.34590  Biso   1.000  C
  C35      1.0000 0.49770  0.37101  0.58580  Biso   1.000  C
  C36      1.0000 0.45600  0.36897  0.44580  Biso   1.000  C
  C37      1.0000 0.61780  0.43993  0.50750  Biso   1.000  C
  C38      1.0000 0.72150  0.48886  0.51270  Biso   1.000  C
  C39      1.0000 0.76270  0.51290  0.40050  Biso   1.000  C
  H12      1.0000 0.72685  0.49786  0.31228  Biso   1.000  H
  C40      1.0000 0.85970  0.56050  0.42280  Biso   1.000  C
  H13      1.0000 0.89189  0.57839  0.34958  Biso   1.000  H
  C41      1.0000 0.90790  0.58100  0.55460  Biso   1.000  C
  H14      1.0000 0.97017  0.61424  0.57139  Biso   1.000  H
  C42      1.0000 0.86540  0.55320  0.65910  Biso   1.000  C
  H15      1.0000 0.90300  0.56664  0.74846  Biso   1.000  H
  Eu7      1.0000 0.74915  0.77784  0.45684  Biso   1.000  Eu
  Eu8      1.0000 0.28188  0.93501  0.64376  Biso   1.000  Eu
  N10      1.0000 0.22720  0.00779  0.85820  Biso   1.000  N
  N11      1.0000 0.40180  0.91508  0.87860  Biso   1.000  N
  N12      1.0000 0.46540  0.91342  0.10030  Biso   1.000  N
  H16      1.0000 0.47554  0.92839  0.17975  Biso   1.000  H
  O37      1.0000 0.93250  0.83917  0.39450  Biso   1.000  O
  O38      1.0000 0.96530  0.78942  0.63910  Biso   1.000  O
  O39      1.0000 0.16790  0.84203  0.70950  Biso   1.000  O
  O40      1.0000 0.15110  0.87922  0.45270  Biso   1.000  O
  O41      1.0000 0.39950  0.93610  0.45120  Biso   1.000  O
  O42      1.0000 0.52990  0.99039  0.33540  Biso   1.000  O
  O43      1.0000 0.17830  0.01902  0.50370  Biso   1.000  O
  O44      1.0000 0.97570  0.05102  0.36740  Biso   1.000  O
  O45      1.0000 0.47820  0.86010  0.68190  Biso   1.000  O
  O46      1.0000 0.62380  0.79600  0.81170  Biso   1.000  O
  O47      1.0000 0.72050  0.79379  0.11390  Biso   1.000  O
  O48      1.0000 0.63290  0.83882  0.27540  Biso   1.000  O
  C43      1.0000 0.04780  0.84973  0.47500  Biso   1.000  C
  C44      1.0000 0.06270  0.82435  0.62200  Biso   1.000  C
  C45      1.0000 0.04380  0.02014  0.46180  Biso   1.000  C
  C46      1.0000 0.47860  0.97856  0.43870  Biso   1.000  C
  C47      1.0000 0.53950  0.83911  0.79760  Biso   1.000  C
  C48      1.0000 0.64080  0.83090  0.15410  Biso   1.000  C
  C49      1.0000 0.50230  0.87101  0.91420  Biso   1.000  C
  C50      1.0000 0.54400  0.86897  0.05420  Biso   1.000  C
  C51      1.0000 0.38220  0.93993  0.99250  Biso   1.000  C
  C52      1.0000 0.27850  0.98886  0.98730  Biso   1.000  C
  C53      1.0000 0.23730  0.01290  0.09950  Biso   1.000  C
  H17      1.0000 0.27315  0.99786  0.18772  Biso   1.000  H
  C54      1.0000 0.14030  0.06050  0.07720  Biso   1.000  C
  H18      1.0000 0.10811  0.07839  0.15042  Biso   1.000  H
  C55      1.0000 0.09210  0.08100  0.94540  Biso   1.000  C
  H19      1.0000 0.02983  0.11424  0.92861  Biso   1.000  H
  C56      1.0000 0.13460  0.05320  0.84090  Biso   1.000  C
  H20      1.0000 0.09700  0.06664  0.75154  Biso   1.000  H
