data_image0
_cell_length_a       9.59
_cell_length_b       22.621
_cell_length_c       10.129
_cell_angle_alpha    90
_cell_angle_beta     101.61
_cell_angle_gamma    90

_symmetry_space_group_name_H-M    "P 1"
_symmetry_int_tables_number       1

loop_
  _symmetry_equiv_pos_as_xyz
  'x, y, z'

loop_
  _atom_site_label
  _atom_site_occupancy
  _atom_site_fract_x
  _atom_site_fract_y
  _atom_site_fract_z
  _atom_site_thermal_displace_type
  _atom_site_B_iso_or_equiv
  _atom_site_type_symbol
  Sm1      1.0000 0.24947  0.27703  0.04694  Biso   1.000  Sm
  Sm2      1.0000 0.72018  0.43443  0.85643  Biso   1.000  Sm
  N1       1.0000 0.59890  0.41469  0.62070  Biso   1.000  N
  N2       1.0000 0.53390  0.41381  0.40080  Biso   1.000  N
  H1       1.0000 0.52324  0.42261  0.31665  Biso   1.000  H
  N3       1.0000 0.77420  0.50658  0.64220  Biso   1.000  N
  O1       1.0000 0.06500  0.33834  0.10940  Biso   1.000  O
  O2       1.0000 0.03330  0.28809  0.86570  Biso   1.000  O
  O3       1.0000 0.83350  0.34115  0.79550  Biso   1.000  O
  O4       1.0000 0.85050  0.38014  0.04940  Biso   1.000  O
  O5       1.0000 0.52360  0.35958  0.81700  Biso   1.000  O
  O6       1.0000 0.37800  0.29633  0.68960  Biso   1.000  O
  O7       1.0000 0.27890  0.29513  0.38880  Biso   1.000  O
  O8       1.0000 0.36820  0.33901  0.22740  Biso   1.000  O
  O9       1.0000 0.59860  0.43630  0.04960  Biso   1.000  O
  O10      1.0000 0.46820  0.49065  0.16370  Biso   1.000  O
  O11      1.0000 0.97860  0.44933  0.86820  Biso   1.000  O
  O12      1.0000 0.17740  0.48099  0.00400  Biso   1.000  O
  C1       1.0000 0.45730  0.36966  0.44680  Biso   1.000  C
  C2       1.0000 0.49960  0.37089  0.58620  Biso   1.000  C
  C3       1.0000 0.61870  0.43971  0.50800  Biso   1.000  C
  C4       1.0000 0.72130  0.48841  0.51430  Biso   1.000  C
  C5       1.0000 0.76160  0.51294  0.40110  Biso   1.000  C
  H2       1.0000 0.72438  0.49833  0.31318  Biso   1.000  H
  C6       1.0000 0.85860  0.55970  0.42190  Biso   1.000  C
  H3       1.0000 0.88890  0.57780  0.34778  Biso   1.000  H
  C7       1.0000 0.90980  0.57925  0.55160  Biso   1.000  C
  H4       1.0000 0.97429  0.61156  0.56760  Biso   1.000  H
  C8       1.0000 0.86670  0.55152  0.65770  Biso   1.000  C
  H5       1.0000 0.90464  0.56503  0.74644  Biso   1.000  H
  C9       1.0000 0.36060  0.33164  0.34840  Biso   1.000  C
  C10      1.0000 0.46250  0.33891  0.70310  Biso   1.000  C
  C11      1.0000 0.51980  0.47870  0.06100  Biso   1.000  C
  C12      1.0000 0.04460  0.47983  0.96230  Biso   1.000  C
  C13      1.0000 0.95230  0.34923  0.02760  Biso   1.000  C
  C14      1.0000 0.93760  0.32376  0.88260  Biso   1.000  C
  Sm3      1.0000 0.75053  0.77703  0.45306  Biso   1.000  Sm
  Sm4      1.0000 0.27982  0.93443  0.64357  Biso   1.000  Sm
  N4       1.0000 0.40110  0.91469  0.87930  Biso   1.000  N
  N5       1.0000 0.46610  0.91381  0.09920  Biso   1.000  N
  H6       1.0000 0.47676  0.92261  0.18335  Biso   1.000  H
  N6       1.0000 0.22580  0.00658  0.85780  Biso   1.000  N
  O13      1.0000 0.93500  0.83834  0.39060  Biso   1.000  O
  O14      1.0000 0.96670  0.78809  0.63430  Biso   1.000  O
  O15      1.0000 0.16650  0.84115  0.70450  Biso   1.000  O
  O16      1.0000 0.14950  0.88014  0.45060  Biso   1.000  O
  O17      1.0000 0.47640  0.85958  0.68300  Biso   1.000  O
  O18      1.0000 0.62200  0.79633  0.81040  Biso   1.000  O
  O19      1.0000 0.72110  0.79513  0.11120  Biso   1.000  O
  O20      1.0000 0.63180  0.83901  0.27260  Biso   1.000  O
  O21      1.0000 0.40140  0.93630  0.45040  Biso   1.000  O
  O22      1.0000 0.53180  0.99065  0.33630  Biso   1.000  O
  O23      1.0000 0.02140  0.94933  0.63180  Biso   1.000  O
  O24      1.0000 0.82260  0.98099  0.49600  Biso   1.000  O
  C15      1.0000 0.54270  0.86966  0.05320  Biso   1.000  C
  C16      1.0000 0.50040  0.87089  0.91380  Biso   1.000  C
  C17      1.0000 0.38130  0.93971  0.99200  Biso   1.000  C
  C18      1.0000 0.27870  0.98841  0.98570  Biso   1.000  C
  C19      1.0000 0.23840  0.01294  0.09890  Biso   1.000  C
  H7       1.0000 0.27562  0.99833  0.18682  Biso   1.000  H
  C20      1.0000 0.14140  0.05970  0.07810  Biso   1.000  C
  H8       1.0000 0.11110  0.07780  0.15222  Biso   1.000  H
  C21      1.0000 0.09020  0.07925  0.94840  Biso   1.000  C
  H9       1.0000 0.02571  0.11156  0.93240  Biso   1.000  H
  C22      1.0000 0.13330  0.05152  0.84230  Biso   1.000  C
  H10      1.0000 0.09536  0.06503  0.75356  Biso   1.000  H
  C23      1.0000 0.63940  0.83164  0.15160  Biso   1.000  C
  C24      1.0000 0.53750  0.83891  0.79690  Biso   1.000  C
  C25      1.0000 0.48020  0.97870  0.43900  Biso   1.000  C
  C26      1.0000 0.95540  0.97983  0.53770  Biso   1.000  C
  C27      1.0000 0.04770  0.84923  0.47240  Biso   1.000  C
  C28      1.0000 0.06240  0.82376  0.61740  Biso   1.000  C
  Sm5      1.0000 0.75053  0.72297  0.95306  Biso   1.000  Sm
  Sm6      1.0000 0.27982  0.56557  0.14357  Biso   1.000  Sm
  N7       1.0000 0.40110  0.58531  0.37930  Biso   1.000  N
  N8       1.0000 0.46610  0.58619  0.59920  Biso   1.000  N
  H11      1.0000 0.47676  0.57739  0.68335  Biso   1.000  H
  N9       1.0000 0.22580  0.49342  0.35780  Biso   1.000  N
  O25      1.0000 0.93500  0.66166  0.89060  Biso   1.000  O
  O26      1.0000 0.96670  0.71191  0.13430  Biso   1.000  O
  O27      1.0000 0.16650  0.65885  0.20450  Biso   1.000  O
  O28      1.0000 0.14950  0.61986  0.95060  Biso   1.000  O
  O29      1.0000 0.47640  0.64042  0.18300  Biso   1.000  O
  O30      1.0000 0.62200  0.70367  0.31040  Biso   1.000  O
  O31      1.0000 0.72110  0.70487  0.61120  Biso   1.000  O
  O32      1.0000 0.63180  0.66099  0.77260  Biso   1.000  O
  O33      1.0000 0.40140  0.56370  0.95040  Biso   1.000  O
  O34      1.0000 0.53180  0.50935  0.83630  Biso   1.000  O
  O35      1.0000 0.02140  0.55067  0.13180  Biso   1.000  O
  O36      1.0000 0.82260  0.51901  0.99600  Biso   1.000  O
  C29      1.0000 0.54270  0.63034  0.55320  Biso   1.000  C
  C30      1.0000 0.50040  0.62911  0.41380  Biso   1.000  C
  C31      1.0000 0.38130  0.56029  0.49200  Biso   1.000  C
  C32      1.0000 0.27870  0.51159  0.48570  Biso   1.000  C
  C33      1.0000 0.23840  0.48706  0.59890  Biso   1.000  C
  H12      1.0000 0.27562  0.50167  0.68682  Biso   1.000  H
  C34      1.0000 0.14140  0.44030  0.57810  Biso   1.000  C
  H13      1.0000 0.11110  0.42220  0.65222  Biso   1.000  H
  C35      1.0000 0.09020  0.42075  0.44840  Biso   1.000  C
  H14      1.0000 0.02571  0.38844  0.43240  Biso   1.000  H
  C36      1.0000 0.13330  0.44848  0.34230  Biso   1.000  C
  H15      1.0000 0.09536  0.43497  0.25356  Biso   1.000  H
  C37      1.0000 0.63940  0.66836  0.65160  Biso   1.000  C
  C38      1.0000 0.53750  0.66109  0.29690  Biso   1.000  C
  C39      1.0000 0.48020  0.52130  0.93900  Biso   1.000  C
  C40      1.0000 0.95540  0.52017  0.03770  Biso   1.000  C
  C41      1.0000 0.04770  0.65077  0.97240  Biso   1.000  C
  C42      1.0000 0.06240  0.67624  0.11740  Biso   1.000  C
  Sm7      1.0000 0.24947  0.22297  0.54694  Biso   1.000  Sm
  Sm8      1.0000 0.72018  0.06557  0.35643  Biso   1.000  Sm
  N10      1.0000 0.59890  0.08531  0.12070  Biso   1.000  N
  N11      1.0000 0.53390  0.08619  0.90080  Biso   1.000  N
  H16      1.0000 0.52324  0.07739  0.81665  Biso   1.000  H
  N12      1.0000 0.77420  0.99342  0.14220  Biso   1.000  N
  O37      1.0000 0.06500  0.16166  0.60940  Biso   1.000  O
  O38      1.0000 0.03330  0.21191  0.36570  Biso   1.000  O
  O39      1.0000 0.83350  0.15885  0.29550  Biso   1.000  O
  O40      1.0000 0.85050  0.11986  0.54940  Biso   1.000  O
  O41      1.0000 0.52360  0.14042  0.31700  Biso   1.000  O
  O42      1.0000 0.37800  0.20367  0.18960  Biso   1.000  O
  O43      1.0000 0.27890  0.20487  0.88880  Biso   1.000  O
  O44      1.0000 0.36820  0.16099  0.72740  Biso   1.000  O
  O45      1.0000 0.59860  0.06370  0.54960  Biso   1.000  O
  O46      1.0000 0.46820  0.00935  0.66370  Biso   1.000  O
  O47      1.0000 0.97860  0.05067  0.36820  Biso   1.000  O
  O48      1.0000 0.17740  0.01901  0.50400  Biso   1.000  O
  C43      1.0000 0.45730  0.13034  0.94680  Biso   1.000  C
  C44      1.0000 0.49960  0.12911  0.08620  Biso   1.000  C
  C45      1.0000 0.61870  0.06029  0.00800  Biso   1.000  C
  C46      1.0000 0.72130  0.01159  0.01430  Biso   1.000  C
  C47      1.0000 0.76160  0.98706  0.90110  Biso   1.000  C
  H17      1.0000 0.72438  0.00167  0.81318  Biso   1.000  H
  C48      1.0000 0.85860  0.94030  0.92190  Biso   1.000  C
  H18      1.0000 0.88890  0.92220  0.84778  Biso   1.000  H
  C49      1.0000 0.90980  0.92075  0.05160  Biso   1.000  C
  H19      1.0000 0.97429  0.88844  0.06760  Biso   1.000  H
  C50      1.0000 0.86670  0.94848  0.15770  Biso   1.000  C
  H20      1.0000 0.90464  0.93497  0.24644  Biso   1.000  H
  C51      1.0000 0.36060  0.16836  0.84840  Biso   1.000  C
  C52      1.0000 0.46250  0.16109  0.20310  Biso   1.000  C
  C53      1.0000 0.51980  0.02130  0.56100  Biso   1.000  C
  C54      1.0000 0.04460  0.02017  0.46230  Biso   1.000  C
  C55      1.0000 0.95230  0.15077  0.52760  Biso   1.000  C
  C56      1.0000 0.93760  0.17624  0.38260  Biso   1.000  C
