data_image0
_cell_length_a       9.4299
_cell_length_b       22.3272
_cell_length_c       10.0874
_cell_angle_alpha    90
_cell_angle_beta     102.817
_cell_angle_gamma    90

_symmetry_space_group_name_H-M    "P 1"
_symmetry_int_tables_number       1

loop_
  _symmetry_equiv_pos_as_xyz
  'x, y, z'

loop_
  _atom_site_label
  _atom_site_occupancy
  _atom_site_fract_x
  _atom_site_fract_y
  _atom_site_fract_z
  _atom_site_thermal_displace_type
  _atom_site_B_iso_or_equiv
  _atom_site_type_symbol
  Ho1      1.0000 0.24816  0.27630  0.05136  Biso   1.000  Ho
  Ho2      1.0000 0.71783  0.43411  0.86187  Biso   1.000  Ho
  N1       1.0000 0.59940  0.41501  0.62880  Biso   1.000  N
  N2       1.0000 0.53300  0.41311  0.40680  Biso   1.000  N
  H1       1.0000 0.51086  0.42573  0.32514  Biso   1.000  H
  N3       1.0000 0.77600  0.50796  0.64930  Biso   1.000  N
  O1       1.0000 0.06680  0.33687  0.11300  Biso   1.000  O
  O2       1.0000 0.03030  0.28609  0.86980  Biso   1.000  O
  O3       1.0000 0.82760  0.34113  0.79750  Biso   1.000  O
  O4       1.0000 0.84980  0.38077  0.05100  Biso   1.000  O
  O5       1.0000 0.52340  0.36042  0.82460  Biso   1.000  O
  O6       1.0000 0.37990  0.29485  0.69640  Biso   1.000  O
  O7       1.0000 0.60170  0.43635  0.05260  Biso   1.000  O
  O8       1.0000 0.27400  0.29305  0.39540  Biso   1.000  O
  O9       1.0000 0.36590  0.33549  0.23280  Biso   1.000  O
  O10      1.0000 0.46820  0.49163  0.16320  Biso   1.000  O
  O11      1.0000 0.97480  0.44747  0.87040  Biso   1.000  O
  O12      1.0000 0.18020  0.48200  0.00160  Biso   1.000  O
  C1       1.0000 0.45480  0.36851  0.45230  Biso   1.000  C
  C2       1.0000 0.49810  0.37054  0.59280  Biso   1.000  C
  C3       1.0000 0.61900  0.43976  0.51480  Biso   1.000  C
  C4       1.0000 0.72210  0.48906  0.51970  Biso   1.000  C
  C5       1.0000 0.76320  0.51220  0.40680  Biso   1.000  C
  H2       1.0000 0.72622  0.49687  0.32037  Biso   1.000  H
  C6       1.0000 0.86310  0.55980  0.42760  Biso   1.000  C
  H3       1.0000 0.89377  0.57708  0.35483  Biso   1.000  H
  C7       1.0000 0.91440  0.58040  0.55790  Biso   1.000  C
  H4       1.0000 0.97848  0.61259  0.57395  Biso   1.000  H
  C8       1.0000 0.87080  0.55340  0.66380  Biso   1.000  C
  H5       1.0000 0.90938  0.56741  0.75116  Biso   1.000  H
  C9       1.0000 0.35700  0.32910  0.35370  Biso   1.000  C
  C10      1.0000 0.46310  0.33827  0.70920  Biso   1.000  C
  C11      1.0000 0.52030  0.47913  0.06200  Biso   1.000  C
  C12      1.0000 0.04420  0.47967  0.96200  Biso   1.000  C
  C13      1.0000 0.95230  0.34887  0.03040  Biso   1.000  C
  C14      1.0000 0.93420  0.32279  0.88550  Biso   1.000  C
  Ho3      1.0000 0.75184  0.77630  0.44864  Biso   1.000  Ho
  Ho4      1.0000 0.28217  0.93411  0.63813  Biso   1.000  Ho
  N4       1.0000 0.40060  0.91501  0.87120  Biso   1.000  N
  N5       1.0000 0.46700  0.91311  0.09320  Biso   1.000  N
  H6       1.0000 0.48914  0.92573  0.17486  Biso   1.000  H
  N6       1.0000 0.22400  0.00796  0.85070  Biso   1.000  N
  O13      1.0000 0.93320  0.83687  0.38700  Biso   1.000  O
  O14      1.0000 0.96970  0.78609  0.63020  Biso   1.000  O
  O15      1.0000 0.17240  0.84113  0.70250  Biso   1.000  O
  O16      1.0000 0.15020  0.88077  0.44900  Biso   1.000  O
  O17      1.0000 0.47660  0.86042  0.67540  Biso   1.000  O
  O18      1.0000 0.62010  0.79485  0.80360  Biso   1.000  O
  O19      1.0000 0.39830  0.93635  0.44740  Biso   1.000  O
  O20      1.0000 0.72600  0.79305  0.10460  Biso   1.000  O
  O21      1.0000 0.63410  0.83549  0.26720  Biso   1.000  O
  O22      1.0000 0.53180  0.99163  0.33680  Biso   1.000  O
  O23      1.0000 0.02520  0.94747  0.62960  Biso   1.000  O
  O24      1.0000 0.81980  0.98200  0.49840  Biso   1.000  O
  C15      1.0000 0.54520  0.86851  0.04770  Biso   1.000  C
  C16      1.0000 0.50190  0.87054  0.90720  Biso   1.000  C
  C17      1.0000 0.38100  0.93976  0.98520  Biso   1.000  C
  C18      1.0000 0.27790  0.98906  0.98030  Biso   1.000  C
  C19      1.0000 0.23680  0.01220  0.09320  Biso   1.000  C
  H7       1.0000 0.27378  0.99687  0.17963  Biso   1.000  H
  C20      1.0000 0.13690  0.05980  0.07240  Biso   1.000  C
  H8       1.0000 0.10623  0.07708  0.14517  Biso   1.000  H
  C21      1.0000 0.08560  0.08040  0.94210  Biso   1.000  C
  H9       1.0000 0.02152  0.11259  0.92605  Biso   1.000  H
  C22      1.0000 0.12920  0.05340  0.83620  Biso   1.000  C
  H10      1.0000 0.09062  0.06741  0.74884  Biso   1.000  H
  C23      1.0000 0.64300  0.82910  0.14630  Biso   1.000  C
  C24      1.0000 0.53690  0.83827  0.79080  Biso   1.000  C
  C25      1.0000 0.47970  0.97913  0.43800  Biso   1.000  C
  C26      1.0000 0.95580  0.97967  0.53800  Biso   1.000  C
  C27      1.0000 0.04770  0.84887  0.46960  Biso   1.000  C
  C28      1.0000 0.06580  0.82279  0.61450  Biso   1.000  C
  Ho5      1.0000 0.75184  0.72370  0.94864  Biso   1.000  Ho
  Ho6      1.0000 0.28217  0.56589  0.13813  Biso   1.000  Ho
  N7       1.0000 0.40060  0.58499  0.37120  Biso   1.000  N
  N8       1.0000 0.46700  0.58689  0.59320  Biso   1.000  N
  H11      1.0000 0.48914  0.57427  0.67486  Biso   1.000  H
  N9       1.0000 0.22400  0.49204  0.35070  Biso   1.000  N
  O25      1.0000 0.93320  0.66313  0.88700  Biso   1.000  O
  O26      1.0000 0.96970  0.71391  0.13020  Biso   1.000  O
  O27      1.0000 0.17240  0.65887  0.20250  Biso   1.000  O
  O28      1.0000 0.15020  0.61923  0.94900  Biso   1.000  O
  O29      1.0000 0.47660  0.63958  0.17540  Biso   1.000  O
  O30      1.0000 0.62010  0.70515  0.30360  Biso   1.000  O
  O31      1.0000 0.39830  0.56365  0.94740  Biso   1.000  O
  O32      1.0000 0.72600  0.70695  0.60460  Biso   1.000  O
  O33      1.0000 0.63410  0.66451  0.76720  Biso   1.000  O
  O34      1.0000 0.53180  0.50837  0.83680  Biso   1.000  O
  O35      1.0000 0.02520  0.55253  0.12960  Biso   1.000  O
  O36      1.0000 0.81980  0.51800  0.99840  Biso   1.000  O
  C29      1.0000 0.54520  0.63149  0.54770  Biso   1.000  C
  C30      1.0000 0.50190  0.62946  0.40720  Biso   1.000  C
  C31      1.0000 0.38100  0.56024  0.48520  Biso   1.000  C
  C32      1.0000 0.27790  0.51094  0.48030  Biso   1.000  C
  C33      1.0000 0.23680  0.48780  0.59320  Biso   1.000  C
  H12      1.0000 0.27378  0.50313  0.67963  Biso   1.000  H
  C34      1.0000 0.13690  0.44020  0.57240  Biso   1.000  C
  H13      1.0000 0.10623  0.42292  0.64517  Biso   1.000  H
  C35      1.0000 0.08560  0.41960  0.44210  Biso   1.000  C
  H14      1.0000 0.02152  0.38741  0.42605  Biso   1.000  H
  C36      1.0000 0.12920  0.44660  0.33620  Biso   1.000  C
  H15      1.0000 0.09062  0.43259  0.24884  Biso   1.000  H
  C37      1.0000 0.64300  0.67090  0.64630  Biso   1.000  C
  C38      1.0000 0.53690  0.66173  0.29080  Biso   1.000  C
  C39      1.0000 0.47970  0.52087  0.93800  Biso   1.000  C
  C40      1.0000 0.95580  0.52033  0.03800  Biso   1.000  C
  C41      1.0000 0.04770  0.65113  0.96960  Biso   1.000  C
  C42      1.0000 0.06580  0.67721  0.11450  Biso   1.000  C
  Ho7      1.0000 0.24816  0.22370  0.55136  Biso   1.000  Ho
  Ho8      1.0000 0.71783  0.06589  0.36187  Biso   1.000  Ho
  N10      1.0000 0.59940  0.08499  0.12880  Biso   1.000  N
  N11      1.0000 0.53300  0.08689  0.90680  Biso   1.000  N
  H16      1.0000 0.51086  0.07427  0.82514  Biso   1.000  H
  N12      1.0000 0.77600  0.99204  0.14930  Biso   1.000  N
  O37      1.0000 0.06680  0.16313  0.61300  Biso   1.000  O
  O38      1.0000 0.03030  0.21391  0.36980  Biso   1.000  O
  O39      1.0000 0.82760  0.15887  0.29750  Biso   1.000  O
  O40      1.0000 0.84980  0.11923  0.55100  Biso   1.000  O
  O41      1.0000 0.52340  0.13958  0.32460  Biso   1.000  O
  O42      1.0000 0.37990  0.20515  0.19640  Biso   1.000  O
  O43      1.0000 0.60170  0.06365  0.55260  Biso   1.000  O
  O44      1.0000 0.27400  0.20695  0.89540  Biso   1.000  O
  O45      1.0000 0.36590  0.16451  0.73280  Biso   1.000  O
  O46      1.0000 0.46820  0.00837  0.66320  Biso   1.000  O
  O47      1.0000 0.97480  0.05253  0.37040  Biso   1.000  O
  O48      1.0000 0.18020  0.01800  0.50160  Biso   1.000  O
  C43      1.0000 0.45480  0.13149  0.95230  Biso   1.000  C
  C44      1.0000 0.49810  0.12946  0.09280  Biso   1.000  C
  C45      1.0000 0.61900  0.06024  0.01480  Biso   1.000  C
  C46      1.0000 0.72210  0.01094  0.01970  Biso   1.000  C
  C47      1.0000 0.76320  0.98780  0.90680  Biso   1.000  C
  H17      1.0000 0.72622  0.00313  0.82037  Biso   1.000  H
  C48      1.0000 0.86310  0.94020  0.92760  Biso   1.000  C
  H18      1.0000 0.89377  0.92292  0.85483  Biso   1.000  H
  C49      1.0000 0.91440  0.91960  0.05790  Biso   1.000  C
  H19      1.0000 0.97848  0.88741  0.07395  Biso   1.000  H
  C50      1.0000 0.87080  0.94660  0.16380  Biso   1.000  C
  H20      1.0000 0.90938  0.93259  0.25116  Biso   1.000  H
  C51      1.0000 0.35700  0.17090  0.85370  Biso   1.000  C
  C52      1.0000 0.46310  0.16173  0.20920  Biso   1.000  C
  C53      1.0000 0.52030  0.02087  0.56200  Biso   1.000  C
  C54      1.0000 0.04420  0.02033  0.46200  Biso   1.000  C
  C55      1.0000 0.95230  0.15113  0.53040  Biso   1.000  C
  C56      1.0000 0.93420  0.17721  0.38550  Biso   1.000  C
