data_NARTUX_clean
_audit_creation_date              2014-07-02
_audit_creation_method            'Materials Studio'
_symmetry_space_group_name_H-M    'P1'
_symmetry_Int_Tables_number       1
_symmetry_cell_setting            triclinic
loop_
_symmetry_equiv_pos_as_xyz
  x,y,z
_cell_length_a                    14.9596
_cell_length_b                    16.8374
_cell_length_c                    16.8374
_cell_angle_alpha                 98.9184
_cell_angle_beta                  94.3906
_cell_angle_gamma                 94.3906
loop_
_atom_site_label
_atom_site_type_symbol
_atom_site_fract_x
_atom_site_fract_y
_atom_site_fract_z
_atom_site_U_iso_or_equiv
_atom_site_adp_type
_atom_site_occupancy
Ca1    Ca    0.64061   0.89676   0.74480   0.01267  Uiso   1.00
Ca2    Ca    0.58986   0.65285   0.67541   0.01267  Uiso   1.00
Ca3    Ca    0.18194   0.37211   0.87117   0.01267  Uiso   1.00
Ca4    Ca    0.85939   0.25520   0.10324   0.01267  Uiso   1.00
Ca5    Ca    0.91014   0.32459   0.34715   0.01267  Uiso   1.00
Ca6    Ca    0.31806   0.12883   0.62789   0.01267  Uiso   1.00
Ca7    Ca    0.35939   0.10324   0.25520   0.01267  Uiso   1.00
Ca8    Ca    0.41014   0.34715   0.32459   0.01267  Uiso   1.00
Ca9    Ca    0.81806   0.62789   0.12883   0.01267  Uiso   1.00
Ca10   Ca    0.14061   0.74480   0.89676   0.01267  Uiso   1.00
Ca11   Ca    0.08986   0.67541   0.65285   0.01267  Uiso   1.00
Ca12   Ca    0.68194   0.87117   0.37211   0.01267  Uiso   1.00
H1     H     0.52380   0.30190   0.73110   0.01267  Uiso   1.00
H2     H     0.72220   0.47220   0.71600   0.01267  Uiso   1.00
H3     H     0.76560   0.30150   0.85350   0.01267  Uiso   1.00
H4     H     0.55840   0.12220   0.92840   0.01267  Uiso   1.00
H5     H     0.65510   0.12030   0.97030   0.01267  Uiso   1.00
H6     H     0.41940   0.49570   0.60150   0.01267  Uiso   1.00
H7     H     0.35040   0.42170   0.60450   0.01267  Uiso   1.00
H8     H     0.97170   0.55150   0.85590   0.01267  Uiso   1.00
H9     H     0.99660   0.55760   0.76840   0.01267  Uiso   1.00
H10    H     0.60770   0.65550   0.10810   0.01267  Uiso   1.00
H11    H     0.46590   0.45560   0.14420   0.01267  Uiso   1.00
H12    H     0.36260   0.59540   0.99340   0.01267  Uiso   1.00
H13    H     0.42180   0.79400   0.86340   0.01267  Uiso   1.00
H14    H     0.51180   0.82160   0.91820   0.01267  Uiso   1.00
H15    H     0.75840   0.48730   0.26350   0.01267  Uiso   1.00
H16    H     0.69880   0.42230   0.29770   0.01267  Uiso   1.00
H17    H     0.16570   0.39100   0.10220   0.01267  Uiso   1.00
H18    H     0.22220   0.32090   0.06730   0.01267  Uiso   1.00
H19    H     0.66750   0.22920   0.92700   0.01267  Uiso   1.00
H20    H     0.49990   0.36480   0.59240   0.01267  Uiso   1.00
H21    H     0.85560   0.51180   0.76160   0.01267  Uiso   1.00
H22    H     0.42410   0.67460   0.91340   0.01267  Uiso   1.00
H23    H     0.59040   0.46050   0.23950   0.01267  Uiso   1.00
H24    H     0.29320   0.46090   0.15570   0.01267  Uiso   1.00
H25    H     0.97620   0.26890   0.69810   0.01267  Uiso   1.00
H26    H     0.77780   0.28400   0.52780   0.01267  Uiso   1.00
H27    H     0.73440   0.14650   0.69850   0.01267  Uiso   1.00
H28    H     0.94160   0.07160   0.87780   0.01267  Uiso   1.00
H29    H     0.84490   0.02970   0.87970   0.01267  Uiso   1.00
H30    H     0.08060   0.39850   0.50430   0.01267  Uiso   1.00
H31    H     0.14960   0.39550   0.57830   0.01267  Uiso   1.00
H32    H     0.52830   0.14410   0.44850   0.01267  Uiso   1.00
H33    H     0.50340   0.23160   0.44240   0.01267  Uiso   1.00
H34    H     0.89230   0.89190   0.34450   0.01267  Uiso   1.00
H35    H     0.03410   0.85580   0.54440   0.01267  Uiso   1.00
H36    H     0.13740   0.00660   0.40460   0.01267  Uiso   1.00
H37    H     0.07820   0.13660   0.20600   0.01267  Uiso   1.00
H38    H     0.98820   0.08180   0.17840   0.01267  Uiso   1.00
H39    H     0.74160   0.73650   0.51270   0.01267  Uiso   1.00
H40    H     0.80120   0.70230   0.57770   0.01267  Uiso   1.00
H41    H     0.33430   0.89780   0.60900   0.01267  Uiso   1.00
H42    H     0.27780   0.93270   0.67910   0.01267  Uiso   1.00
H43    H     0.83250   0.07300   0.77080   0.01267  Uiso   1.00
H44    H     0.00010   0.40760   0.63520   0.01267  Uiso   1.00
H45    H     0.64440   0.23840   0.48820   0.01267  Uiso   1.00
H46    H     0.07590   0.08660   0.32540   0.01267  Uiso   1.00
H47    H     0.90960   0.76050   0.53950   0.01267  Uiso   1.00
H48    H     0.20680   0.84430   0.53910   0.01267  Uiso   1.00
H49    H     0.47620   0.69810   0.26890   0.01267  Uiso   1.00
H50    H     0.27780   0.52780   0.28400   0.01267  Uiso   1.00
H51    H     0.23440   0.69850   0.14650   0.01267  Uiso   1.00
H52    H     0.44160   0.87780   0.07160   0.01267  Uiso   1.00
H53    H     0.34490   0.87970   0.02970   0.01267  Uiso   1.00
H54    H     0.58060   0.50430   0.39850   0.01267  Uiso   1.00
H55    H     0.64960   0.57830   0.39550   0.01267  Uiso   1.00
H56    H     0.02830   0.44850   0.14410   0.01267  Uiso   1.00
H57    H     0.00340   0.44240   0.23160   0.01267  Uiso   1.00
H58    H     0.39230   0.34450   0.89190   0.01267  Uiso   1.00
H59    H     0.53410   0.54440   0.85580   0.01267  Uiso   1.00
H60    H     0.63740   0.40460   0.00660   0.01267  Uiso   1.00
H61    H     0.57820   0.20600   0.13660   0.01267  Uiso   1.00
H62    H     0.48820   0.17840   0.08180   0.01267  Uiso   1.00
H63    H     0.24160   0.51270   0.73650   0.01267  Uiso   1.00
H64    H     0.30120   0.57770   0.70230   0.01267  Uiso   1.00
H65    H     0.83430   0.60900   0.89780   0.01267  Uiso   1.00
H66    H     0.77780   0.67910   0.93270   0.01267  Uiso   1.00
H67    H     0.33250   0.77080   0.07300   0.01267  Uiso   1.00
H68    H     0.50010   0.63520   0.40760   0.01267  Uiso   1.00
H69    H     0.14440   0.48820   0.23840   0.01267  Uiso   1.00
H70    H     0.57590   0.32540   0.08660   0.01267  Uiso   1.00
H71    H     0.40960   0.53950   0.76050   0.01267  Uiso   1.00
H72    H     0.70680   0.53910   0.84430   0.01267  Uiso   1.00
H73    H     0.02380   0.73110   0.30190   0.01267  Uiso   1.00
H74    H     0.22220   0.71600   0.47220   0.01267  Uiso   1.00
H75    H     0.26560   0.85350   0.30150   0.01267  Uiso   1.00
H76    H     0.05840   0.92840   0.12220   0.01267  Uiso   1.00
H77    H     0.15510   0.97030   0.12030   0.01267  Uiso   1.00
H78    H     0.91940   0.60150   0.49570   0.01267  Uiso   1.00
H79    H     0.85040   0.60450   0.42170   0.01267  Uiso   1.00
H80    H     0.47170   0.85590   0.55150   0.01267  Uiso   1.00
H81    H     0.49660   0.76840   0.55760   0.01267  Uiso   1.00
H82    H     0.10770   0.10810   0.65550   0.01267  Uiso   1.00
H83    H     0.96590   0.14420   0.45560   0.01267  Uiso   1.00
H84    H     0.86260   0.99340   0.59540   0.01267  Uiso   1.00
H85    H     0.92180   0.86340   0.79400   0.01267  Uiso   1.00
H86    H     0.01180   0.91820   0.82160   0.01267  Uiso   1.00
H87    H     0.25840   0.26350   0.48730   0.01267  Uiso   1.00
H88    H     0.19880   0.29770   0.42230   0.01267  Uiso   1.00
H89    H     0.66570   0.10220   0.39100   0.01267  Uiso   1.00
H90    H     0.72220   0.06730   0.32090   0.01267  Uiso   1.00
H91    H     0.16750   0.92700   0.22920   0.01267  Uiso   1.00
H92    H     0.99990   0.59240   0.36480   0.01267  Uiso   1.00
H93    H     0.35560   0.76160   0.51180   0.01267  Uiso   1.00
H94    H     0.92410   0.91340   0.67460   0.01267  Uiso   1.00
H95    H     0.09040   0.23950   0.46050   0.01267  Uiso   1.00
H96    H     0.79320   0.15570   0.46090   0.01267  Uiso   1.00
C1     C     0.63902   0.28988   0.79800   0.01267  Uiso   1.00
C2     C     0.58214   0.32520   0.74638   0.01267  Uiso   1.00
C3     C     0.61182   0.39460   0.71768   0.01267  Uiso   1.00
C4     C     0.70125   0.42680   0.73652   0.01267  Uiso   1.00
C5     C     0.75879   0.39070   0.78610   0.01267  Uiso   1.00
C6     C     0.72751   0.32376   0.81832   0.01267  Uiso   1.00
C7     C     0.59982   0.21941   0.83185   0.01267  Uiso   1.00
C8     C     0.62120   0.11917   0.91869   0.01267  Uiso   1.00
C9     C     0.63090   0.03964   0.86530   0.01267  Uiso   1.00
C10    C     0.54868   0.44172   0.67430   0.01267  Uiso   1.00
C11    C     0.40850   0.43757   0.58703   0.01267  Uiso   1.00
C12    C     0.40480   0.41521   0.49543   0.01267  Uiso   1.00
C13    C     0.85395   0.42543   0.81437   0.01267  Uiso   1.00
C14    C     0.97990   0.52003   0.80415   0.01267  Uiso   1.00
C15    C     0.05620   0.46876   0.81528   0.01267  Uiso   1.00
C16    C     0.48853   0.63556   0.04256   0.01267  Uiso   1.00
C17    C     0.55618   0.61973   0.09661   0.01267  Uiso   1.00
C18    C     0.55007   0.55288   0.13414   0.01267  Uiso   1.00
C19    C     0.47120   0.50118   0.11948   0.01267  Uiso   1.00
C20    C     0.40058   0.51780   0.06806   0.01267  Uiso   1.00
C21    C     0.40948   0.58482   0.02876   0.01267  Uiso   1.00
C22    C     0.50973   0.70365   0.99759   0.01267  Uiso   1.00
C23    C     0.47520   0.77501   0.88803   0.01267  Uiso   1.00
C24    C     0.52759   0.73475   0.82251   0.01267  Uiso   1.00
C25    C     0.63296   0.53547   0.18271   0.01267  Uiso   1.00
C26    C     0.71499   0.44049   0.24845   0.01267  Uiso   1.00
C27    C     0.75917   0.37391   0.19839   0.01267  Uiso   1.00
C28    C     0.31517   0.46121   0.05267   0.01267  Uiso   1.00
C29    C     0.22040   0.36508   0.11146   0.01267  Uiso   1.00
C30    C     0.21892   0.33206   0.18980   0.01267  Uiso   1.00
C31    C     0.86098   0.20200   0.71012   0.01267  Uiso   1.00
C32    C     0.91786   0.25362   0.67480   0.01267  Uiso   1.00
C33    C     0.88818   0.28232   0.60540   0.01267  Uiso   1.00
C34    C     0.79875   0.26348   0.57320   0.01267  Uiso   1.00
C35    C     0.74121   0.21390   0.60930   0.01267  Uiso   1.00
C36    C     0.77249   0.18168   0.67624   0.01267  Uiso   1.00
C37    C     0.90018   0.16815   0.78059   0.01267  Uiso   1.00
C38    C     0.87880   0.08131   0.88083   0.01267  Uiso   1.00
C39    C     0.86910   0.13470   0.96036   0.01267  Uiso   1.00
C40    C     0.95132   0.32570   0.55828   0.01267  Uiso   1.00
C41    C     0.09150   0.41297   0.56243   0.01267  Uiso   1.00
C42    C     0.09520   0.50457   0.58479   0.01267  Uiso   1.00
C43    C     0.64605   0.18563   0.57457   0.01267  Uiso   1.00
C44    C     0.52010   0.19585   0.47997   0.01267  Uiso   1.00
C45    C     0.44380   0.18472   0.53124   0.01267  Uiso   1.00
C46    C     0.01147   0.95744   0.36444   0.01267  Uiso   1.00
C47    C     0.94382   0.90339   0.38027   0.01267  Uiso   1.00
C48    C     0.94993   0.86586   0.44712   0.01267  Uiso   1.00
C49    C     0.02880   0.88052   0.49882   0.01267  Uiso   1.00
C50    C     0.09942   0.93194   0.48220   0.01267  Uiso   1.00
C51    C     0.09052   0.97124   0.41518   0.01267  Uiso   1.00
C52    C     0.99027   0.00241   0.29635   0.01267  Uiso   1.00
C53    C     0.02480   0.11197   0.22499   0.01267  Uiso   1.00
C54    C     0.97241   0.17749   0.26525   0.01267  Uiso   1.00
C55    C     0.86704   0.81729   0.46453   0.01267  Uiso   1.00
C56    C     0.78501   0.75155   0.55951   0.01267  Uiso   1.00
C57    C     0.74083   0.80161   0.62609   0.01267  Uiso   1.00
C58    C     0.18483   0.94733   0.53879   0.01267  Uiso   1.00
C59    C     0.27960   0.88854   0.63492   0.01267  Uiso   1.00
C60    C     0.28108   0.81020   0.66794   0.01267  Uiso   1.00
C61    C     0.36098   0.71012   0.20200   0.01267  Uiso   1.00
C62    C     0.41786   0.67480   0.25362   0.01267  Uiso   1.00
C63    C     0.38818   0.60540   0.28232   0.01267  Uiso   1.00
C64    C     0.29875   0.57320   0.26348   0.01267  Uiso   1.00
C65    C     0.24121   0.60930   0.21390   0.01267  Uiso   1.00
C66    C     0.27249   0.67624   0.18168   0.01267  Uiso   1.00
C67    C     0.40018   0.78059   0.16815   0.01267  Uiso   1.00
C68    C     0.37880   0.88083   0.08131   0.01267  Uiso   1.00
C69    C     0.36910   0.96036   0.13470   0.01267  Uiso   1.00
C70    C     0.45132   0.55828   0.32570   0.01267  Uiso   1.00
C71    C     0.59150   0.56243   0.41297   0.01267  Uiso   1.00
C72    C     0.59520   0.58479   0.50457   0.01267  Uiso   1.00
C73    C     0.14605   0.57457   0.18563   0.01267  Uiso   1.00
C74    C     0.02010   0.47997   0.19585   0.01267  Uiso   1.00
C75    C     0.94380   0.53124   0.18472   0.01267  Uiso   1.00
C76    C     0.51147   0.36444   0.95744   0.01267  Uiso   1.00
C77    C     0.44382   0.38027   0.90339   0.01267  Uiso   1.00
C78    C     0.44993   0.44712   0.86586   0.01267  Uiso   1.00
C79    C     0.52880   0.49882   0.88052   0.01267  Uiso   1.00
C80    C     0.59942   0.48220   0.93194   0.01267  Uiso   1.00
C81    C     0.59052   0.41518   0.97124   0.01267  Uiso   1.00
C82    C     0.49027   0.29635   0.00241   0.01267  Uiso   1.00
C83    C     0.52480   0.22499   0.11197   0.01267  Uiso   1.00
C84    C     0.47241   0.26525   0.17749   0.01267  Uiso   1.00
C85    C     0.36704   0.46453   0.81729   0.01267  Uiso   1.00
C86    C     0.28501   0.55951   0.75155   0.01267  Uiso   1.00
C87    C     0.24083   0.62609   0.80161   0.01267  Uiso   1.00
C88    C     0.68483   0.53879   0.94733   0.01267  Uiso   1.00
C89    C     0.77960   0.63492   0.88854   0.01267  Uiso   1.00
C90    C     0.78108   0.66794   0.81020   0.01267  Uiso   1.00
C91    C     0.13902   0.79800   0.28988   0.01267  Uiso   1.00
C92    C     0.08214   0.74638   0.32520   0.01267  Uiso   1.00
C93    C     0.11182   0.71768   0.39460   0.01267  Uiso   1.00
C94    C     0.20125   0.73652   0.42680   0.01267  Uiso   1.00
C95    C     0.25879   0.78610   0.39070   0.01267  Uiso   1.00
C96    C     0.22751   0.81832   0.32376   0.01267  Uiso   1.00
C97    C     0.09982   0.83185   0.21941   0.01267  Uiso   1.00
C98    C     0.12120   0.91869   0.11917   0.01267  Uiso   1.00
C99    C     0.13090   0.86530   0.03964   0.01267  Uiso   1.00
C100   C     0.04868   0.67430   0.44172   0.01267  Uiso   1.00
C101   C     0.90850   0.58703   0.43757   0.01267  Uiso   1.00
C102   C     0.90480   0.49543   0.41521   0.01267  Uiso   1.00
C103   C     0.35395   0.81437   0.42543   0.01267  Uiso   1.00
C104   C     0.47990   0.80415   0.52003   0.01267  Uiso   1.00
C105   C     0.55620   0.81528   0.46876   0.01267  Uiso   1.00
C106   C     0.98853   0.04256   0.63556   0.01267  Uiso   1.00
C107   C     0.05618   0.09661   0.61973   0.01267  Uiso   1.00
C108   C     0.05007   0.13414   0.55288   0.01267  Uiso   1.00
C109   C     0.97120   0.11948   0.50118   0.01267  Uiso   1.00
C110   C     0.90058   0.06806   0.51780   0.01267  Uiso   1.00
C111   C     0.90948   0.02876   0.58482   0.01267  Uiso   1.00
C112   C     0.00973   0.99759   0.70365   0.01267  Uiso   1.00
C113   C     0.97520   0.88803   0.77501   0.01267  Uiso   1.00
C114   C     0.02759   0.82251   0.73475   0.01267  Uiso   1.00
C115   C     0.13296   0.18271   0.53547   0.01267  Uiso   1.00
C116   C     0.21499   0.24845   0.44049   0.01267  Uiso   1.00
C117   C     0.25917   0.19839   0.37391   0.01267  Uiso   1.00
C118   C     0.81517   0.05267   0.46121   0.01267  Uiso   1.00
C119   C     0.72040   0.11146   0.36508   0.01267  Uiso   1.00
C120   C     0.71892   0.18980   0.33206   0.01267  Uiso   1.00
N1     N     0.65182   0.18921   0.88501   0.01267  Uiso   1.00
N2     N     0.47750   0.40014   0.62986   0.01267  Uiso   1.00
N3     N     0.89439   0.47549   0.77139   0.01267  Uiso   1.00
N4     N     0.44833   0.72135   0.94331   0.01267  Uiso   1.00
N5     N     0.63507   0.46437   0.20701   0.01267  Uiso   1.00
N6     N     0.29713   0.42241   0.11287   0.01267  Uiso   1.00
N7     N     0.84818   0.11499   0.81079   0.01267  Uiso   1.00
N8     N     0.02250   0.37014   0.59986   0.01267  Uiso   1.00
N9     N     0.60561   0.22861   0.52451   0.01267  Uiso   1.00
N10    N     0.05167   0.05669   0.27865   0.01267  Uiso   1.00
N11    N     0.86493   0.79299   0.53563   0.01267  Uiso   1.00
N12    N     0.20287   0.88713   0.57759   0.01267  Uiso   1.00
N13    N     0.34818   0.81079   0.11499   0.01267  Uiso   1.00
N14    N     0.52250   0.59986   0.37014   0.01267  Uiso   1.00
N15    N     0.10561   0.52451   0.22861   0.01267  Uiso   1.00
N16    N     0.55167   0.27865   0.05669   0.01267  Uiso   1.00
N17    N     0.36493   0.53563   0.79299   0.01267  Uiso   1.00
N18    N     0.70287   0.57759   0.88713   0.01267  Uiso   1.00
N19    N     0.15182   0.88501   0.18921   0.01267  Uiso   1.00
N20    N     0.97750   0.62986   0.40014   0.01267  Uiso   1.00
N21    N     0.39439   0.77139   0.47549   0.01267  Uiso   1.00
N22    N     0.94833   0.94331   0.72135   0.01267  Uiso   1.00
N23    N     0.13507   0.20701   0.46437   0.01267  Uiso   1.00
N24    N     0.79713   0.11287   0.42241   0.01267  Uiso   1.00
O1     O     0.52032   0.19188   0.81180   0.01267  Uiso   1.00
O2     O     0.67047   0.03937   0.80191   0.01267  Uiso   1.00
O3     O     0.59890   0.97701   0.88651   0.01267  Uiso   1.00
O4     O     0.56030   0.51578   0.68578   0.01267  Uiso   1.00
O5     O     0.34044   0.43485   0.45473   0.01267  Uiso   1.00
O6     O     0.46620   0.37835   0.46613   0.01267  Uiso   1.00
O7     O     0.89157   0.40835   0.87667   0.01267  Uiso   1.00
O8     O     0.06074   0.40366   0.76996   0.01267  Uiso   1.00
O9     O     0.11608   0.49489   0.87173   0.01267  Uiso   1.00
O10    O     0.58521   0.74165   0.00871   0.01267  Uiso   1.00
O11    O     0.52637   0.65942   0.80934   0.01267  Uiso   1.00
O12    O     0.56837   0.77893   0.78029   0.01267  Uiso   1.00
O13    O     0.69825   0.58801   0.19785   0.01267  Uiso   1.00
O14    O     0.83512   0.35728   0.22754   0.01267  Uiso   1.00
O15    O     0.72234   0.33839   0.13287   0.01267  Uiso   1.00
O16    O     0.26866   0.45139   0.98821   0.01267  Uiso   1.00
O17    O     0.27554   0.36133   0.24665   0.01267  Uiso   1.00
O18    O     0.15696   0.27738   0.19188   0.01267  Uiso   1.00
O19    O     0.97968   0.18820   0.80812   0.01267  Uiso   1.00
O20    O     0.82953   0.19809   0.96063   0.01267  Uiso   1.00
O21    O     0.90110   0.11349   0.02299   0.01267  Uiso   1.00
O22    O     0.93970   0.31422   0.48422   0.01267  Uiso   1.00
O23    O     0.15956   0.54527   0.56515   0.01267  Uiso   1.00
O24    O     0.03380   0.53387   0.62165   0.01267  Uiso   1.00
O25    O     0.60843   0.12333   0.59165   0.01267  Uiso   1.00
O26    O     0.43926   0.23004   0.59634   0.01267  Uiso   1.00
O27    O     0.38392   0.12827   0.50511   0.01267  Uiso   1.00
O28    O     0.91479   0.99129   0.25835   0.01267  Uiso   1.00
O29    O     0.97363   0.19066   0.34058   0.01267  Uiso   1.00
O30    O     0.93163   0.21971   0.22107   0.01267  Uiso   1.00
O31    O     0.80175   0.80215   0.41199   0.01267  Uiso   1.00
O32    O     0.66488   0.77246   0.64272   0.01267  Uiso   1.00
O33    O     0.77766   0.86713   0.66161   0.01267  Uiso   1.00
O34    O     0.23134   0.01179   0.54861   0.01267  Uiso   1.00
O35    O     0.22446   0.75335   0.63867   0.01267  Uiso   1.00
O36    O     0.34304   0.80812   0.72262   0.01267  Uiso   1.00
O37    O     0.47968   0.80812   0.18820   0.01267  Uiso   1.00
O38    O     0.32953   0.96063   0.19809   0.01267  Uiso   1.00
O39    O     0.40110   0.02299   0.11349   0.01267  Uiso   1.00
O40    O     0.43970   0.48422   0.31422   0.01267  Uiso   1.00
O41    O     0.65956   0.56515   0.54527   0.01267  Uiso   1.00
O42    O     0.53380   0.62165   0.53387   0.01267  Uiso   1.00
O43    O     0.10843   0.59165   0.12333   0.01267  Uiso   1.00
O44    O     0.93926   0.59634   0.23004   0.01267  Uiso   1.00
O45    O     0.88392   0.50511   0.12827   0.01267  Uiso   1.00
O46    O     0.41479   0.25835   0.99129   0.01267  Uiso   1.00
O47    O     0.47363   0.34058   0.19066   0.01267  Uiso   1.00
O48    O     0.43163   0.22107   0.21971   0.01267  Uiso   1.00
O49    O     0.30175   0.41199   0.80215   0.01267  Uiso   1.00
O50    O     0.16488   0.64272   0.77246   0.01267  Uiso   1.00
O51    O     0.27766   0.66161   0.86713   0.01267  Uiso   1.00
O52    O     0.73134   0.54861   0.01179   0.01267  Uiso   1.00
O53    O     0.72446   0.63867   0.75335   0.01267  Uiso   1.00
O54    O     0.84304   0.72262   0.80812   0.01267  Uiso   1.00
O55    O     0.02032   0.81180   0.19188   0.01267  Uiso   1.00
O56    O     0.17047   0.80191   0.03937   0.01267  Uiso   1.00
O57    O     0.09890   0.88651   0.97701   0.01267  Uiso   1.00
O58    O     0.06030   0.68578   0.51578   0.01267  Uiso   1.00
O59    O     0.84044   0.45473   0.43485   0.01267  Uiso   1.00
O60    O     0.96620   0.46613   0.37835   0.01267  Uiso   1.00
O61    O     0.39157   0.87667   0.40835   0.01267  Uiso   1.00
O62    O     0.56074   0.76996   0.40366   0.01267  Uiso   1.00
O63    O     0.61608   0.87173   0.49489   0.01267  Uiso   1.00
O64    O     0.08521   0.00871   0.74165   0.01267  Uiso   1.00
O65    O     0.02637   0.80934   0.65942   0.01267  Uiso   1.00
O66    O     0.06837   0.78029   0.77893   0.01267  Uiso   1.00
O67    O     0.19825   0.19785   0.58801   0.01267  Uiso   1.00
O68    O     0.33512   0.22754   0.35728   0.01267  Uiso   1.00
O69    O     0.22234   0.13287   0.33839   0.01267  Uiso   1.00
O70    O     0.76866   0.98821   0.45139   0.01267  Uiso   1.00
O71    O     0.77554   0.24665   0.36133   0.01267  Uiso   1.00
O72    O     0.65696   0.19188   0.27738   0.01267  Uiso   1.00
