data_NASMEB_clean
_audit_creation_date              2014-07-02
_audit_creation_method            'Materials Studio'
_symmetry_space_group_name_H-M    'P1'
_symmetry_Int_Tables_number       1
_symmetry_cell_setting            triclinic
loop_
_symmetry_equiv_pos_as_xyz
  x,y,z
_cell_length_a                    10.1790
_cell_length_b                    10.9184
_cell_length_c                    13.8704
_cell_angle_alpha                 78.6820
_cell_angle_beta                  79.2710
_cell_angle_gamma                 86.0790
loop_
_atom_site_label
_atom_site_type_symbol
_atom_site_fract_x
_atom_site_fract_y
_atom_site_fract_z
_atom_site_U_iso_or_equiv
_atom_site_adp_type
_atom_site_occupancy
Eu1    Eu    0.68011   0.07666   0.70336   0.01267  Uiso   1.00
Eu2    Eu    0.31989   0.92334   0.29664   0.01267  Uiso   1.00
Mn1    Mn    0.00000   0.50000   0.50000   0.01267  Uiso   1.00
H1     H     0.17340   0.08680   0.72150   0.01267  Uiso   1.00
H2     H     0.91170   0.15290   0.96050   0.01267  Uiso   1.00
H3     H     0.30590   0.14690   0.96270   0.01267  Uiso   1.00
H4     H     0.98790   0.16640   0.28100   0.01267  Uiso   1.00
H5     H     0.96530   0.24790   0.42530   0.01267  Uiso   1.00
H6     H     0.98510   0.58880   0.27260   0.01267  Uiso   1.00
H7     H     0.99090   0.51870   0.12500   0.01267  Uiso   1.00
H8     H     0.67040   0.33090   0.84670   0.01267  Uiso   1.00
H9     H     0.65230   0.66810   0.92290   0.01267  Uiso   1.00
H10    H     0.71440   0.63910   0.63310   0.01267  Uiso   1.00
H11    H     0.65600   0.22580   0.14690   0.01267  Uiso   1.00
H12    H     0.64600   0.11770   0.30970   0.01267  Uiso   1.00
H13    H     0.63740   0.42590   0.41080   0.01267  Uiso   1.00
H14    H     0.64400   0.54340   0.25440   0.01267  Uiso   1.00
H15    H     0.12290   0.15820   0.11590   0.01267  Uiso   1.00
H16    H     0.61920   0.35360   0.01690   0.01267  Uiso   1.00
H17    H     0.82660   0.91320   0.27850   0.01267  Uiso   1.00
H18    H     0.08830   0.84710   0.03950   0.01267  Uiso   1.00
H19    H     0.69410   0.85310   0.03730   0.01267  Uiso   1.00
H20    H     0.01210   0.83360   0.71900   0.01267  Uiso   1.00
H21    H     0.03470   0.75210   0.57470   0.01267  Uiso   1.00
H22    H     0.01490   0.41120   0.72740   0.01267  Uiso   1.00
H23    H     0.00910   0.48130   0.87500   0.01267  Uiso   1.00
H24    H     0.32960   0.66910   0.15330   0.01267  Uiso   1.00
H25    H     0.34770   0.33190   0.07710   0.01267  Uiso   1.00
H26    H     0.28560   0.36090   0.36690   0.01267  Uiso   1.00
H27    H     0.34400   0.77420   0.85310   0.01267  Uiso   1.00
H28    H     0.35400   0.88230   0.69030   0.01267  Uiso   1.00
H29    H     0.36260   0.57410   0.58920   0.01267  Uiso   1.00
H30    H     0.35600   0.45660   0.74560   0.01267  Uiso   1.00
H31    H     0.87710   0.84180   0.88410   0.01267  Uiso   1.00
H32    H     0.38080   0.64640   0.98310   0.01267  Uiso   1.00
C1     C     0.40490   0.09910   0.78580   0.01267  Uiso   1.00
C2     C     0.26200   0.11450   0.83310   0.01267  Uiso   1.00
C3     C     0.15640   0.10410   0.78570   0.01267  Uiso   1.00
C4     C     0.02730   0.11900   0.83220   0.01267  Uiso   1.00
C5     C     0.99960   0.14550   0.92800   0.01267  Uiso   1.00
C6     C     0.10610   0.16080   0.97480   0.01267  Uiso   1.00
C7     C     0.23570   0.14170   0.92940   0.01267  Uiso   1.00
C8     C     0.90790   0.10680   0.78440   0.01267  Uiso   1.00
C9     C     0.99610   0.29390   0.08890   0.01267  Uiso   1.00
C10    C     0.99120   0.33390   0.18660   0.01267  Uiso   1.00
C11    C     0.98510   0.25240   0.27770   0.01267  Uiso   1.00
C12    C     0.97470   0.30240   0.36400   0.01267  Uiso   1.00
C13    C     0.98400   0.50330   0.27430   0.01267  Uiso   1.00
C14    C     0.98910   0.46190   0.18470   0.01267  Uiso   1.00
C15    C     0.72810   0.39490   0.64700   0.01267  Uiso   1.00
C16    C     0.70000   0.47190   0.72690   0.01267  Uiso   1.00
C17    C     0.67700   0.41720   0.82820   0.01267  Uiso   1.00
C18    C     0.66360   0.48940   0.90150   0.01267  Uiso   1.00
C19    C     0.66430   0.61870   0.87420   0.01267  Uiso   1.00
C20    C     0.68310   0.67470   0.77260   0.01267  Uiso   1.00
C21    C     0.70130   0.60140   0.70020   0.01267  Uiso   1.00
C22    C     0.68720   0.81070   0.74750   0.01267  Uiso   1.00
C23    C     0.66660   0.48090   0.07930   0.01267  Uiso   1.00
C24    C     0.65180   0.39770   0.18120   0.01267  Uiso   1.00
C25    C     0.65210   0.26890   0.19900   0.01267  Uiso   1.00
C26    C     0.64630   0.20450   0.29770   0.01267  Uiso   1.00
C27    C     0.64080   0.38550   0.35720   0.01267  Uiso   1.00
C28    C     0.64530   0.45670   0.26340   0.01267  Uiso   1.00
C29    C     0.59510   0.90090   0.21420   0.01267  Uiso   1.00
C30    C     0.73800   0.88550   0.16690   0.01267  Uiso   1.00
C31    C     0.84360   0.89590   0.21430   0.01267  Uiso   1.00
C32    C     0.97270   0.88100   0.16780   0.01267  Uiso   1.00
C33    C     0.00040   0.85450   0.07200   0.01267  Uiso   1.00
C34    C     0.89390   0.83920   0.02520   0.01267  Uiso   1.00
C35    C     0.76430   0.85830   0.07060   0.01267  Uiso   1.00
C36    C     0.09210   0.89320   0.21560   0.01267  Uiso   1.00
C37    C     0.00390   0.70610   0.91110   0.01267  Uiso   1.00
C38    C     0.00880   0.66610   0.81340   0.01267  Uiso   1.00
C39    C     0.01490   0.74760   0.72230   0.01267  Uiso   1.00
C40    C     0.02530   0.69760   0.63600   0.01267  Uiso   1.00
C41    C     0.01600   0.49670   0.72570   0.01267  Uiso   1.00
C42    C     0.01090   0.53810   0.81530   0.01267  Uiso   1.00
C43    C     0.27190   0.60510   0.35300   0.01267  Uiso   1.00
C44    C     0.30000   0.52810   0.27310   0.01267  Uiso   1.00
C45    C     0.32300   0.58280   0.17180   0.01267  Uiso   1.00
C46    C     0.33640   0.51060   0.09850   0.01267  Uiso   1.00
C47    C     0.33570   0.38130   0.12580   0.01267  Uiso   1.00
C48    C     0.31690   0.32530   0.22740   0.01267  Uiso   1.00
C49    C     0.29870   0.39860   0.29980   0.01267  Uiso   1.00
C50    C     0.31280   0.18930   0.25250   0.01267  Uiso   1.00
C51    C     0.33340   0.51910   0.92070   0.01267  Uiso   1.00
C52    C     0.34820   0.60230   0.81880   0.01267  Uiso   1.00
C53    C     0.34790   0.73110   0.80100   0.01267  Uiso   1.00
C54    C     0.35370   0.79550   0.70230   0.01267  Uiso   1.00
C55    C     0.35920   0.61450   0.64280   0.01267  Uiso   1.00
C56    C     0.35470   0.54330   0.73660   0.01267  Uiso   1.00
N1     N     0.08190   0.19790   0.06970   0.01267  Uiso   1.00
N2     N     0.97770   0.42560   0.36270   0.01267  Uiso   1.00
N3     N     0.64560   0.42920   0.00280   0.01267  Uiso   1.00
N4     N     0.64120   0.26130   0.37470   0.01267  Uiso   1.00
N5     N     0.91810   0.80210   0.93030   0.01267  Uiso   1.00
N6     N     0.02230   0.57440   0.63730   0.01267  Uiso   1.00
N7     N     0.35440   0.57080   0.99720   0.01267  Uiso   1.00
N8     N     0.35880   0.73870   0.62530   0.01267  Uiso   1.00
O1     O     0.43790   0.09880   0.69200   0.01267  Uiso   1.00
O2     O     0.49450   0.08600   0.83790   0.01267  Uiso   1.00
O3     O     0.92750   0.09480   0.69210   0.01267  Uiso   1.00
O4     O     0.79450   0.11130   0.83370   0.01267  Uiso   1.00
O5     O     0.92380   0.34730   0.03140   0.01267  Uiso   1.00
O6     O     0.67860   0.28790   0.66650   0.01267  Uiso   1.00
O7     O     0.80060   0.43740   0.56660   0.01267  Uiso   1.00
O8     O     0.67410   0.86930   0.66100   0.01267  Uiso   1.00
O9     O     0.70420   0.87370   0.81090   0.01267  Uiso   1.00
O10    O     0.69420   0.58830   0.07130   0.01267  Uiso   1.00
O11    O     0.56210   0.90120   0.30800   0.01267  Uiso   1.00
O12    O     0.50550   0.91400   0.16210   0.01267  Uiso   1.00
O13    O     0.07250   0.90520   0.30790   0.01267  Uiso   1.00
O14    O     0.20550   0.88870   0.16630   0.01267  Uiso   1.00
O15    O     0.07620   0.65270   0.96860   0.01267  Uiso   1.00
O16    O     0.32140   0.71210   0.33350   0.01267  Uiso   1.00
O17    O     0.19940   0.56260   0.43340   0.01267  Uiso   1.00
O18    O     0.32590   0.13070   0.33900   0.01267  Uiso   1.00
O19    O     0.29580   0.12630   0.18910   0.01267  Uiso   1.00
O20    O     0.30580   0.41170   0.92870   0.01267  Uiso   1.00
