data_image0
_cell_length_a       14.9436
_cell_length_b       28.4461
_cell_length_c       10.7407
_cell_angle_alpha    90
_cell_angle_beta     90
_cell_angle_gamma    90

_symmetry_space_group_name_H-M    "P 1"
_symmetry_int_tables_number       1

loop_
  _symmetry_equiv_pos_as_xyz
  'x, y, z'

loop_
  _atom_site_label
  _atom_site_occupancy
  _atom_site_fract_x
  _atom_site_fract_y
  _atom_site_fract_z
  _atom_site_thermal_displace_type
  _atom_site_B_iso_or_equiv
  _atom_site_type_symbol
  O1       1.0000 0.90970  0.43484  0.49240  Biso   1.000  O
  O2       1.0000 0.90730  0.49051  0.34800  Biso   1.000  O
  C1       1.0000 0.81300  0.42550  0.32070  Biso   1.000  C
  C2       1.0000 0.88270  0.45260  0.39150  Biso   1.000  C
  C3       1.0000 0.69560  0.27500  0.33060  Biso   1.000  C
  C4       1.0000 0.81150  0.37700  0.32220  Biso   1.000  C
  H1       1.0000 0.85280  0.36040  0.37310  Biso   1.000  H
  C5       1.0000 0.63500  0.30170  0.41990  Biso   1.000  C
  H2       1.0000 0.57790  0.30850  0.37880  Biso   1.000  H
  H3       1.0000 0.66380  0.33120  0.44410  Biso   1.000  H
  H4       1.0000 0.62430  0.28250  0.49420  Biso   1.000  H
  O3       1.0000 0.40970  0.93484  0.99240  Biso   1.000  O
  O4       1.0000 0.40730  0.99051  0.84800  Biso   1.000  O
  C6       1.0000 0.31300  0.92550  0.82070  Biso   1.000  C
  C7       1.0000 0.38270  0.95260  0.89150  Biso   1.000  C
  C8       1.0000 0.19560  0.77500  0.83060  Biso   1.000  C
  C9       1.0000 0.31150  0.87700  0.82220  Biso   1.000  C
  H5       1.0000 0.35280  0.86040  0.87310  Biso   1.000  H
  C10      1.0000 0.13500  0.80170  0.91990  Biso   1.000  C
  H6       1.0000 0.07790  0.80850  0.87880  Biso   1.000  H
  H7       1.0000 0.16380  0.83120  0.94410  Biso   1.000  H
  H8       1.0000 0.12430  0.78250  0.99420  Biso   1.000  H
  O5       1.0000 0.09030  0.06516  0.49240  Biso   1.000  O
  O6       1.0000 0.09270  0.00949  0.34800  Biso   1.000  O
  C11      1.0000 0.18700  0.07450  0.32070  Biso   1.000  C
  C12      1.0000 0.11730  0.04740  0.39150  Biso   1.000  C
  C13      1.0000 0.30440  0.22500  0.33060  Biso   1.000  C
  C14      1.0000 0.18850  0.12300  0.32220  Biso   1.000  C
  H9       1.0000 0.14720  0.13960  0.37310  Biso   1.000  H
  C15      1.0000 0.36500  0.19830  0.41990  Biso   1.000  C
  H10      1.0000 0.42210  0.19150  0.37880  Biso   1.000  H
  H11      1.0000 0.33620  0.16880  0.44410  Biso   1.000  H
  H12      1.0000 0.37570  0.21750  0.49420  Biso   1.000  H
  O7       1.0000 0.59030  0.56516  0.99240  Biso   1.000  O
  O8       1.0000 0.59270  0.50949  0.84800  Biso   1.000  O
  C16      1.0000 0.68700  0.57450  0.82070  Biso   1.000  C
  C17      1.0000 0.61730  0.54740  0.89150  Biso   1.000  C
  C18      1.0000 0.80440  0.72500  0.83060  Biso   1.000  C
  C19      1.0000 0.68850  0.62300  0.82220  Biso   1.000  C
  H13      1.0000 0.64720  0.63960  0.87310  Biso   1.000  H
  C20      1.0000 0.86500  0.69830  0.91990  Biso   1.000  C
  H14      1.0000 0.92210  0.69150  0.87880  Biso   1.000  H
  H15      1.0000 0.83620  0.66880  0.94410  Biso   1.000  H
  H16      1.0000 0.87570  0.71750  0.99420  Biso   1.000  H
  O9       1.0000 0.09030  0.93484  0.50760  Biso   1.000  O
  O10      1.0000 0.09270  0.99051  0.65200  Biso   1.000  O
  C21      1.0000 0.18700  0.92550  0.67930  Biso   1.000  C
  C22      1.0000 0.11730  0.95260  0.60850  Biso   1.000  C
  C23      1.0000 0.30440  0.77500  0.66940  Biso   1.000  C
  C24      1.0000 0.18850  0.87700  0.67780  Biso   1.000  C
  H17      1.0000 0.14720  0.86040  0.62690  Biso   1.000  H
  C25      1.0000 0.36500  0.80170  0.58010  Biso   1.000  C
  H18      1.0000 0.42210  0.80850  0.62120  Biso   1.000  H
  H19      1.0000 0.33620  0.83120  0.55590  Biso   1.000  H
  H20      1.0000 0.37570  0.78250  0.50580  Biso   1.000  H
  O11      1.0000 0.59030  0.43484  0.00760  Biso   1.000  O
  O12      1.0000 0.59270  0.49051  0.15200  Biso   1.000  O
  C26      1.0000 0.68700  0.42550  0.17930  Biso   1.000  C
  C27      1.0000 0.61730  0.45260  0.10850  Biso   1.000  C
  C28      1.0000 0.80440  0.27500  0.16940  Biso   1.000  C
  C29      1.0000 0.68850  0.37700  0.17780  Biso   1.000  C
  H21      1.0000 0.64720  0.36040  0.12690  Biso   1.000  H
  C30      1.0000 0.86500  0.30170  0.08010  Biso   1.000  C
  H22      1.0000 0.92210  0.30850  0.12120  Biso   1.000  H
  H23      1.0000 0.83620  0.33120  0.05590  Biso   1.000  H
  H24      1.0000 0.87570  0.28250  0.00580  Biso   1.000  H
  O13      1.0000 0.90970  0.56516  0.50760  Biso   1.000  O
  O14      1.0000 0.90730  0.50949  0.65200  Biso   1.000  O
  C31      1.0000 0.81300  0.57450  0.67930  Biso   1.000  C
  C32      1.0000 0.88270  0.54740  0.60850  Biso   1.000  C
  C33      1.0000 0.69560  0.72500  0.66940  Biso   1.000  C
  C34      1.0000 0.81150  0.62300  0.67780  Biso   1.000  C
  H25      1.0000 0.85280  0.63960  0.62690  Biso   1.000  H
  C35      1.0000 0.63500  0.69830  0.58010  Biso   1.000  C
  H26      1.0000 0.57790  0.69150  0.62120  Biso   1.000  H
  H27      1.0000 0.66380  0.66880  0.55590  Biso   1.000  H
  H28      1.0000 0.62430  0.71750  0.50580  Biso   1.000  H
  O15      1.0000 0.40970  0.06516  0.00760  Biso   1.000  O
  O16      1.0000 0.40730  0.00949  0.15200  Biso   1.000  O
  C36      1.0000 0.31300  0.07450  0.17930  Biso   1.000  C
  C37      1.0000 0.38270  0.04740  0.10850  Biso   1.000  C
  C38      1.0000 0.19560  0.22500  0.16940  Biso   1.000  C
  C39      1.0000 0.31150  0.12300  0.17780  Biso   1.000  C
  H29      1.0000 0.35280  0.13960  0.12690  Biso   1.000  H
  C40      1.0000 0.13500  0.19830  0.08010  Biso   1.000  C
  H30      1.0000 0.07790  0.19150  0.12120  Biso   1.000  H
  H31      1.0000 0.16380  0.16880  0.05590  Biso   1.000  H
  H32      1.0000 0.12430  0.21750  0.00580  Biso   1.000  H
  O17      1.0000 0.09030  0.56516  0.50760  Biso   1.000  O
  O18      1.0000 0.09270  0.50949  0.65200  Biso   1.000  O
  C41      1.0000 0.18700  0.57450  0.67930  Biso   1.000  C
  C42      1.0000 0.11730  0.54740  0.60850  Biso   1.000  C
  C43      1.0000 0.30440  0.72500  0.66940  Biso   1.000  C
  C44      1.0000 0.18850  0.62300  0.67780  Biso   1.000  C
  H33      1.0000 0.14720  0.63960  0.62690  Biso   1.000  H
  C45      1.0000 0.36500  0.69830  0.58010  Biso   1.000  C
  H34      1.0000 0.42210  0.69150  0.62120  Biso   1.000  H
  H35      1.0000 0.33620  0.66880  0.55590  Biso   1.000  H
  H36      1.0000 0.37570  0.71750  0.50580  Biso   1.000  H
  O19      1.0000 0.59030  0.06516  0.00760  Biso   1.000  O
  O20      1.0000 0.59270  0.00949  0.15200  Biso   1.000  O
  C46      1.0000 0.68700  0.07450  0.17930  Biso   1.000  C
  C47      1.0000 0.61730  0.04740  0.10850  Biso   1.000  C
  C48      1.0000 0.80440  0.22500  0.16940  Biso   1.000  C
  C49      1.0000 0.68850  0.12300  0.17780  Biso   1.000  C
  H37      1.0000 0.64720  0.13960  0.12690  Biso   1.000  H
  C50      1.0000 0.86500  0.19830  0.08010  Biso   1.000  C
  H38      1.0000 0.92210  0.19150  0.12120  Biso   1.000  H
  H39      1.0000 0.83620  0.16880  0.05590  Biso   1.000  H
  H40      1.0000 0.87570  0.21750  0.00580  Biso   1.000  H
  O21      1.0000 0.90970  0.93484  0.50760  Biso   1.000  O
  O22      1.0000 0.90730  0.99051  0.65200  Biso   1.000  O
  C51      1.0000 0.81300  0.92550  0.67930  Biso   1.000  C
  C52      1.0000 0.88270  0.95260  0.60850  Biso   1.000  C
  C53      1.0000 0.69560  0.77500  0.66940  Biso   1.000  C
  C54      1.0000 0.81150  0.87700  0.67780  Biso   1.000  C
  H41      1.0000 0.85280  0.86040  0.62690  Biso   1.000  H
  C55      1.0000 0.63500  0.80170  0.58010  Biso   1.000  C
  H42      1.0000 0.57790  0.80850  0.62120  Biso   1.000  H
  H43      1.0000 0.66380  0.83120  0.55590  Biso   1.000  H
  H44      1.0000 0.62430  0.78250  0.50580  Biso   1.000  H
  O23      1.0000 0.40970  0.43484  0.00760  Biso   1.000  O
  O24      1.0000 0.40730  0.49051  0.15200  Biso   1.000  O
  C56      1.0000 0.31300  0.42550  0.17930  Biso   1.000  C
  C57      1.0000 0.38270  0.45260  0.10850  Biso   1.000  C
  C58      1.0000 0.19560  0.27500  0.16940  Biso   1.000  C
  C59      1.0000 0.31150  0.37700  0.17780  Biso   1.000  C
  H45      1.0000 0.35280  0.36040  0.12690  Biso   1.000  H
  C60      1.0000 0.13500  0.30170  0.08010  Biso   1.000  C
  H46      1.0000 0.07790  0.30850  0.12120  Biso   1.000  H
  H47      1.0000 0.16380  0.33120  0.05590  Biso   1.000  H
  H48      1.0000 0.12430  0.28250  0.00580  Biso   1.000  H
  O25      1.0000 0.90970  0.06516  0.49240  Biso   1.000  O
  O26      1.0000 0.90730  0.00949  0.34800  Biso   1.000  O
  C61      1.0000 0.81300  0.07450  0.32070  Biso   1.000  C
  C62      1.0000 0.88270  0.04740  0.39150  Biso   1.000  C
  C63      1.0000 0.69560  0.22500  0.33060  Biso   1.000  C
  C64      1.0000 0.81150  0.12300  0.32220  Biso   1.000  C
  H49      1.0000 0.85280  0.13960  0.37310  Biso   1.000  H
  C65      1.0000 0.63500  0.19830  0.41990  Biso   1.000  C
  H50      1.0000 0.57790  0.19150  0.37880  Biso   1.000  H
  H51      1.0000 0.66380  0.16880  0.44410  Biso   1.000  H
  H52      1.0000 0.62430  0.21750  0.49420  Biso   1.000  H
  O27      1.0000 0.40970  0.56516  0.99240  Biso   1.000  O
  O28      1.0000 0.40730  0.50949  0.84800  Biso   1.000  O
  C66      1.0000 0.31300  0.57450  0.82070  Biso   1.000  C
  C67      1.0000 0.38270  0.54740  0.89150  Biso   1.000  C
  C68      1.0000 0.19560  0.72500  0.83060  Biso   1.000  C
  C69      1.0000 0.31150  0.62300  0.82220  Biso   1.000  C
  H53      1.0000 0.35280  0.63960  0.87310  Biso   1.000  H
  C70      1.0000 0.13500  0.69830  0.91990  Biso   1.000  C
  H54      1.0000 0.07790  0.69150  0.87880  Biso   1.000  H
  H55      1.0000 0.16380  0.66880  0.94410  Biso   1.000  H
  H56      1.0000 0.12430  0.71750  0.99420  Biso   1.000  H
  O29      1.0000 0.09030  0.43484  0.49240  Biso   1.000  O
  O30      1.0000 0.09270  0.49051  0.34800  Biso   1.000  O
  C71      1.0000 0.18700  0.42550  0.32070  Biso   1.000  C
  C72      1.0000 0.11730  0.45260  0.39150  Biso   1.000  C
  C73      1.0000 0.30440  0.27500  0.33060  Biso   1.000  C
  C74      1.0000 0.18850  0.37700  0.32220  Biso   1.000  C
  H57      1.0000 0.14720  0.36040  0.37310  Biso   1.000  H
  C75      1.0000 0.36500  0.30170  0.41990  Biso   1.000  C
  H58      1.0000 0.42210  0.30850  0.37880  Biso   1.000  H
  H59      1.0000 0.33620  0.33120  0.44410  Biso   1.000  H
  H60      1.0000 0.37570  0.28250  0.49420  Biso   1.000  H
  O31      1.0000 0.59030  0.93484  0.99240  Biso   1.000  O
  O32      1.0000 0.59270  0.99051  0.84800  Biso   1.000  O
  C76      1.0000 0.68700  0.92550  0.82070  Biso   1.000  C
  C77      1.0000 0.61730  0.95260  0.89150  Biso   1.000  C
  C78      1.0000 0.80440  0.77500  0.83060  Biso   1.000  C
  C79      1.0000 0.68850  0.87700  0.82220  Biso   1.000  C
  H61      1.0000 0.64720  0.86040  0.87310  Biso   1.000  H
  C80      1.0000 0.86500  0.80170  0.91990  Biso   1.000  C
  H62      1.0000 0.92210  0.80850  0.87880  Biso   1.000  H
  H63      1.0000 0.83620  0.83120  0.94410  Biso   1.000  H
  H64      1.0000 0.87570  0.78250  0.99420  Biso   1.000  H
  Cu1      1.0000 0.00000  0.46710  0.58893  Biso   1.000  Cu
  Cu2      1.0000 0.50000  0.96710  0.08893  Biso   1.000  Cu
  Cu3      1.0000 0.00000  0.03290  0.58893  Biso   1.000  Cu
  Cu4      1.0000 0.50000  0.53290  0.08893  Biso   1.000  Cu
  Cu5      1.0000 0.00000  0.96710  0.41107  Biso   1.000  Cu
  Cu6      1.0000 0.50000  0.46710  0.91107  Biso   1.000  Cu
  Cu7      1.0000 0.00000  0.53290  0.41107  Biso   1.000  Cu
  Cu8      1.0000 0.50000  0.03290  0.91107  Biso   1.000  Cu
  C81      1.0000 0.75000  0.35180  0.25000  Biso   1.000  C
  C82      1.0000 0.75000  0.44870  0.25000  Biso   1.000  C
  H65      1.0000 0.75000  0.48210  0.25000  Biso   1.000  H
  C83      1.0000 0.75000  0.29920  0.25000  Biso   1.000  C
  C84      1.0000 0.25000  0.14820  0.25000  Biso   1.000  C
  C85      1.0000 0.25000  0.05130  0.25000  Biso   1.000  C
  H66      1.0000 0.25000  0.01790  0.25000  Biso   1.000  H
  C86      1.0000 0.25000  0.20080  0.25000  Biso   1.000  C
  C87      1.0000 0.25000  0.85180  0.75000  Biso   1.000  C
  C88      1.0000 0.25000  0.94870  0.75000  Biso   1.000  C
  H67      1.0000 0.25000  0.98210  0.75000  Biso   1.000  H
  C89      1.0000 0.25000  0.79920  0.75000  Biso   1.000  C
  C90      1.0000 0.75000  0.64820  0.75000  Biso   1.000  C
  C91      1.0000 0.75000  0.55130  0.75000  Biso   1.000  C
  H68      1.0000 0.75000  0.51790  0.75000  Biso   1.000  H
  C92      1.0000 0.75000  0.70080  0.75000  Biso   1.000  C
  C93      1.0000 0.25000  0.64820  0.75000  Biso   1.000  C
  C94      1.0000 0.25000  0.55130  0.75000  Biso   1.000  C
  H69      1.0000 0.25000  0.51790  0.75000  Biso   1.000  H
  C95      1.0000 0.25000  0.70080  0.75000  Biso   1.000  C
  C96      1.0000 0.75000  0.85180  0.75000  Biso   1.000  C
  C97      1.0000 0.75000  0.94870  0.75000  Biso   1.000  C
  H70      1.0000 0.75000  0.98210  0.75000  Biso   1.000  H
  C98      1.0000 0.75000  0.79920  0.75000  Biso   1.000  C
  C99      1.0000 0.75000  0.14820  0.25000  Biso   1.000  C
  C100     1.0000 0.75000  0.05130  0.25000  Biso   1.000  C
  H71      1.0000 0.75000  0.01790  0.25000  Biso   1.000  H
  C101     1.0000 0.75000  0.20080  0.25000  Biso   1.000  C
  C102     1.0000 0.25000  0.35180  0.25000  Biso   1.000  C
  C103     1.0000 0.25000  0.44870  0.25000  Biso   1.000  C
  H72      1.0000 0.25000  0.48210  0.25000  Biso   1.000  H
  C104     1.0000 0.25000  0.29920  0.25000  Biso   1.000  C
