data_image0
_cell_length_a       19.4032
_cell_length_b       19.4032
_cell_length_c       26.787
_cell_angle_alpha    90
_cell_angle_beta     90
_cell_angle_gamma    90

_symmetry_space_group_name_H-M    "P 1"
_symmetry_int_tables_number       1

loop_
  _symmetry_equiv_pos_as_xyz
  'x, y, z'

loop_
  _atom_site_label
  _atom_site_occupancy
  _atom_site_fract_x
  _atom_site_fract_y
  _atom_site_fract_z
  _atom_site_thermal_displace_type
  _atom_site_B_iso_or_equiv
  _atom_site_type_symbol
  O1       1.0000 0.44850  0.44730  0.43200  Biso   1.000  O
  O2       1.0000 0.31360  0.31050  0.30890  Biso   1.000  O
  O3       1.0000 0.38700  0.51120  0.48390  Biso   1.000  O
  O4       1.0000 0.20290  0.33480  0.29570  Biso   1.000  O
  C1       1.0000 0.21280  0.45150  0.35630  Biso   1.000  C
  H1       1.0000 0.17210  0.44520  0.33850  Biso   1.000  H
  C2       1.0000 0.16510  0.61670  0.35390  Biso   1.000  C
  C3       1.0000 0.21860  0.50810  0.38750  Biso   1.000  C
  C4       1.0000 0.16350  0.56360  0.38820  Biso   1.000  C
  C5       1.0000 0.27590  0.51510  0.41750  Biso   1.000  C
  H2       1.0000 0.27870  0.55110  0.44040  Biso   1.000  H
  C6       1.0000 0.26490  0.40460  0.35060  Biso   1.000  C
  C7       1.0000 0.10920  0.55920  0.42370  Biso   1.000  C
  C8       1.0000 0.33130  0.46630  0.41320  Biso   1.000  C
  C9       1.0000 0.32660  0.41310  0.38040  Biso   1.000  C
  H3       1.0000 0.36300  0.38230  0.37710  Biso   1.000  H
  C10      1.0000 0.25860  0.34470  0.31600  Biso   1.000  C
  C11      1.0000 0.22550  0.61830  0.31680  Biso   1.000  C
  H4       1.0000 0.21110  0.59900  0.28560  Biso   1.000  H
  H5       1.0000 0.26320  0.59190  0.33000  Biso   1.000  H
  H6       1.0000 0.24000  0.66510  0.31180  Biso   1.000  H
  C12      1.0000 0.10830  0.50070  0.46040  Biso   1.000  C
  H7       1.0000 0.11430  0.51850  0.49360  Biso   1.000  H
  H8       1.0000 0.14510  0.46930  0.45280  Biso   1.000  H
  H9       1.0000 0.06500  0.47700  0.45830  Biso   1.000  H
  C13      1.0000 0.39350  0.47560  0.44630  Biso   1.000  C
  O5       1.0000 0.05150  0.05270  0.43200  Biso   1.000  O
  O6       1.0000 0.18640  0.18950  0.30890  Biso   1.000  O
  O7       1.0000 0.11300  0.98880  0.48390  Biso   1.000  O
  O8       1.0000 0.29710  0.16520  0.29570  Biso   1.000  O
  C14      1.0000 0.28720  0.04850  0.35630  Biso   1.000  C
  H10      1.0000 0.32790  0.05480  0.33850  Biso   1.000  H
  C15      1.0000 0.33490  0.88330  0.35390  Biso   1.000  C
  C16      1.0000 0.28140  0.99190  0.38750  Biso   1.000  C
  C17      1.0000 0.33650  0.93640  0.38820  Biso   1.000  C
  C18      1.0000 0.22410  0.98490  0.41750  Biso   1.000  C
  H11      1.0000 0.22130  0.94890  0.44040  Biso   1.000  H
  C19      1.0000 0.23510  0.09540  0.35060  Biso   1.000  C
  C20      1.0000 0.39080  0.94080  0.42370  Biso   1.000  C
  C21      1.0000 0.16870  0.03370  0.41320  Biso   1.000  C
  C22      1.0000 0.17340  0.08690  0.38040  Biso   1.000  C
  H12      1.0000 0.13700  0.11770  0.37710  Biso   1.000  H
  C23      1.0000 0.24140  0.15530  0.31600  Biso   1.000  C
  C24      1.0000 0.27450  0.88170  0.31680  Biso   1.000  C
  H13      1.0000 0.28890  0.90100  0.28560  Biso   1.000  H
  H14      1.0000 0.23680  0.90810  0.33000  Biso   1.000  H
  H15      1.0000 0.26000  0.83490  0.31180  Biso   1.000  H
  C25      1.0000 0.39170  0.99930  0.46040  Biso   1.000  C
  H16      1.0000 0.38570  0.98150  0.49360  Biso   1.000  H
  H17      1.0000 0.35490  0.03070  0.45280  Biso   1.000  H
  H18      1.0000 0.43500  0.02300  0.45830  Biso   1.000  H
  C26      1.0000 0.10650  0.02440  0.44630  Biso   1.000  C
  O9       1.0000 0.05270  0.44850  0.93200  Biso   1.000  O
  O10      1.0000 0.18950  0.31360  0.80890  Biso   1.000  O
  O11      1.0000 0.98880  0.38700  0.98390  Biso   1.000  O
  O12      1.0000 0.16520  0.20290  0.79570  Biso   1.000  O
  C27      1.0000 0.04850  0.21280  0.85630  Biso   1.000  C
  H19      1.0000 0.05480  0.17210  0.83850  Biso   1.000  H
  C28      1.0000 0.88330  0.16510  0.85390  Biso   1.000  C
  C29      1.0000 0.99190  0.21860  0.88750  Biso   1.000  C
  C30      1.0000 0.93640  0.16350  0.88820  Biso   1.000  C
  C31      1.0000 0.98490  0.27590  0.91750  Biso   1.000  C
  H20      1.0000 0.94890  0.27870  0.94040  Biso   1.000  H
  C32      1.0000 0.09540  0.26490  0.85060  Biso   1.000  C
  C33      1.0000 0.94080  0.10920  0.92370  Biso   1.000  C
  C34      1.0000 0.03370  0.33130  0.91320  Biso   1.000  C
  C35      1.0000 0.08690  0.32660  0.88040  Biso   1.000  C
  H21      1.0000 0.11770  0.36300  0.87710  Biso   1.000  H
  C36      1.0000 0.15530  0.25860  0.81600  Biso   1.000  C
  C37      1.0000 0.88170  0.22550  0.81680  Biso   1.000  C
  H22      1.0000 0.90100  0.21110  0.78560  Biso   1.000  H
  H23      1.0000 0.90810  0.26320  0.83000  Biso   1.000  H
  H24      1.0000 0.83490  0.24000  0.81180  Biso   1.000  H
  C38      1.0000 0.99930  0.10830  0.96040  Biso   1.000  C
  H25      1.0000 0.98150  0.11430  0.99360  Biso   1.000  H
  H26      1.0000 0.03070  0.14510  0.95280  Biso   1.000  H
  H27      1.0000 0.02300  0.06500  0.95830  Biso   1.000  H
  C39      1.0000 0.02440  0.39350  0.94630  Biso   1.000  C
  O13      1.0000 0.44730  0.05150  0.93200  Biso   1.000  O
  O14      1.0000 0.31050  0.18640  0.80890  Biso   1.000  O
  O15      1.0000 0.51120  0.11300  0.98390  Biso   1.000  O
  O16      1.0000 0.33480  0.29710  0.79570  Biso   1.000  O
  C40      1.0000 0.45150  0.28720  0.85630  Biso   1.000  C
  H28      1.0000 0.44520  0.32790  0.83850  Biso   1.000  H
  C41      1.0000 0.61670  0.33490  0.85390  Biso   1.000  C
  C42      1.0000 0.50810  0.28140  0.88750  Biso   1.000  C
  C43      1.0000 0.56360  0.33650  0.88820  Biso   1.000  C
  C44      1.0000 0.51510  0.22410  0.91750  Biso   1.000  C
  H29      1.0000 0.55110  0.22130  0.94040  Biso   1.000  H
  C45      1.0000 0.40460  0.23510  0.85060  Biso   1.000  C
  C46      1.0000 0.55920  0.39080  0.92370  Biso   1.000  C
  C47      1.0000 0.46630  0.16870  0.91320  Biso   1.000  C
  C48      1.0000 0.41310  0.17340  0.88040  Biso   1.000  C
  H30      1.0000 0.38230  0.13700  0.87710  Biso   1.000  H
  C49      1.0000 0.34470  0.24140  0.81600  Biso   1.000  C
  C50      1.0000 0.61830  0.27450  0.81680  Biso   1.000  C
  H31      1.0000 0.59900  0.28890  0.78560  Biso   1.000  H
  H32      1.0000 0.59190  0.23680  0.83000  Biso   1.000  H
  H33      1.0000 0.66510  0.26000  0.81180  Biso   1.000  H
  C51      1.0000 0.50070  0.39170  0.96040  Biso   1.000  C
  H34      1.0000 0.51850  0.38570  0.99360  Biso   1.000  H
  H35      1.0000 0.46930  0.35490  0.95280  Biso   1.000  H
  H36      1.0000 0.47700  0.43500  0.95830  Biso   1.000  H
  C52      1.0000 0.47560  0.10650  0.94630  Biso   1.000  C
  O17      1.0000 0.05150  0.44730  0.06800  Biso   1.000  O
  O18      1.0000 0.18640  0.31050  0.19110  Biso   1.000  O
  O19      1.0000 0.11300  0.51120  0.01610  Biso   1.000  O
  O20      1.0000 0.29710  0.33480  0.20430  Biso   1.000  O
  C53      1.0000 0.28720  0.45150  0.14370  Biso   1.000  C
  H37      1.0000 0.32790  0.44520  0.16150  Biso   1.000  H
  C54      1.0000 0.33490  0.61670  0.14610  Biso   1.000  C
  C55      1.0000 0.28140  0.50810  0.11250  Biso   1.000  C
  C56      1.0000 0.33650  0.56360  0.11180  Biso   1.000  C
  C57      1.0000 0.22410  0.51510  0.08250  Biso   1.000  C
  H38      1.0000 0.22130  0.55110  0.05960  Biso   1.000  H
  C58      1.0000 0.23510  0.40460  0.14940  Biso   1.000  C
  C59      1.0000 0.39080  0.55920  0.07630  Biso   1.000  C
  C60      1.0000 0.16870  0.46630  0.08680  Biso   1.000  C
  C61      1.0000 0.17340  0.41310  0.11960  Biso   1.000  C
  H39      1.0000 0.13700  0.38230  0.12290  Biso   1.000  H
  C62      1.0000 0.24140  0.34470  0.18400  Biso   1.000  C
  C63      1.0000 0.27450  0.61830  0.18320  Biso   1.000  C
  H40      1.0000 0.28890  0.59900  0.21440  Biso   1.000  H
  H41      1.0000 0.23680  0.59190  0.17000  Biso   1.000  H
  H42      1.0000 0.26000  0.66510  0.18820  Biso   1.000  H
  C64      1.0000 0.39170  0.50070  0.03960  Biso   1.000  C
  H43      1.0000 0.38570  0.51850  0.00640  Biso   1.000  H
  H44      1.0000 0.35490  0.46930  0.04720  Biso   1.000  H
  H45      1.0000 0.43500  0.47700  0.04170  Biso   1.000  H
  C65      1.0000 0.10650  0.47560  0.05370  Biso   1.000  C
  O21      1.0000 0.44850  0.05270  0.06800  Biso   1.000  O
  O22      1.0000 0.31360  0.18950  0.19110  Biso   1.000  O
  O23      1.0000 0.38700  0.98880  0.01610  Biso   1.000  O
  O24      1.0000 0.20290  0.16520  0.20430  Biso   1.000  O
  C66      1.0000 0.21280  0.04850  0.14370  Biso   1.000  C
  H46      1.0000 0.17210  0.05480  0.16150  Biso   1.000  H
  C67      1.0000 0.16510  0.88330  0.14610  Biso   1.000  C
  C68      1.0000 0.21860  0.99190  0.11250  Biso   1.000  C
  C69      1.0000 0.16350  0.93640  0.11180  Biso   1.000  C
  C70      1.0000 0.27590  0.98490  0.08250  Biso   1.000  C
  H47      1.0000 0.27870  0.94890  0.05960  Biso   1.000  H
  C71      1.0000 0.26490  0.09540  0.14940  Biso   1.000  C
  C72      1.0000 0.10920  0.94080  0.07630  Biso   1.000  C
  C73      1.0000 0.33130  0.03370  0.08680  Biso   1.000  C
  C74      1.0000 0.32660  0.08690  0.11960  Biso   1.000  C
  H48      1.0000 0.36300  0.11770  0.12290  Biso   1.000  H
  C75      1.0000 0.25860  0.15530  0.18400  Biso   1.000  C
  C76      1.0000 0.22550  0.88170  0.18320  Biso   1.000  C
  H49      1.0000 0.21110  0.90100  0.21440  Biso   1.000  H
  H50      1.0000 0.26320  0.90810  0.17000  Biso   1.000  H
  H51      1.0000 0.24000  0.83490  0.18820  Biso   1.000  H
  C77      1.0000 0.10830  0.99930  0.03960  Biso   1.000  C
  H52      1.0000 0.11430  0.98150  0.00640  Biso   1.000  H
  H53      1.0000 0.14510  0.03070  0.04720  Biso   1.000  H
  H54      1.0000 0.06500  0.02300  0.04170  Biso   1.000  H
  C78      1.0000 0.39350  0.02440  0.05370  Biso   1.000  C
  O25      1.0000 0.44730  0.44850  0.56800  Biso   1.000  O
  O26      1.0000 0.31050  0.31360  0.69110  Biso   1.000  O
  O27      1.0000 0.51120  0.38700  0.51610  Biso   1.000  O
  O28      1.0000 0.33480  0.20290  0.70430  Biso   1.000  O
  C79      1.0000 0.45150  0.21280  0.64370  Biso   1.000  C
  H55      1.0000 0.44520  0.17210  0.66150  Biso   1.000  H
  C80      1.0000 0.61670  0.16510  0.64610  Biso   1.000  C
  C81      1.0000 0.50810  0.21860  0.61250  Biso   1.000  C
  C82      1.0000 0.56360  0.16350  0.61180  Biso   1.000  C
  C83      1.0000 0.51510  0.27590  0.58250  Biso   1.000  C
  H56      1.0000 0.55110  0.27870  0.55960  Biso   1.000  H
  C84      1.0000 0.40460  0.26490  0.64940  Biso   1.000  C
  C85      1.0000 0.55920  0.10920  0.57630  Biso   1.000  C
  C86      1.0000 0.46630  0.33130  0.58680  Biso   1.000  C
  C87      1.0000 0.41310  0.32660  0.61960  Biso   1.000  C
  H57      1.0000 0.38230  0.36300  0.62290  Biso   1.000  H
  C88      1.0000 0.34470  0.25860  0.68400  Biso   1.000  C
  C89      1.0000 0.61830  0.22550  0.68320  Biso   1.000  C
  H58      1.0000 0.59900  0.21110  0.71440  Biso   1.000  H
  H59      1.0000 0.59190  0.26320  0.67000  Biso   1.000  H
  H60      1.0000 0.66510  0.24000  0.68820  Biso   1.000  H
  C90      1.0000 0.50070  0.10830  0.53960  Biso   1.000  C
  H61      1.0000 0.51850  0.11430  0.50640  Biso   1.000  H
  H62      1.0000 0.46930  0.14510  0.54720  Biso   1.000  H
  H63      1.0000 0.47700  0.06500  0.54170  Biso   1.000  H
  C91      1.0000 0.47560  0.39350  0.55370  Biso   1.000  C
  O29      1.0000 0.05270  0.05150  0.56800  Biso   1.000  O
  O30      1.0000 0.18950  0.18640  0.69110  Biso   1.000  O
  O31      1.0000 0.98880  0.11300  0.51610  Biso   1.000  O
  O32      1.0000 0.16520  0.29710  0.70430  Biso   1.000  O
  C92      1.0000 0.04850  0.28720  0.64370  Biso   1.000  C
  H64      1.0000 0.05480  0.32790  0.66150  Biso   1.000  H
  C93      1.0000 0.88330  0.33490  0.64610  Biso   1.000  C
  C94      1.0000 0.99190  0.28140  0.61250  Biso   1.000  C
  C95      1.0000 0.93640  0.33650  0.61180  Biso   1.000  C
  C96      1.0000 0.98490  0.22410  0.58250  Biso   1.000  C
  H65      1.0000 0.94890  0.22130  0.55960  Biso   1.000  H
  C97      1.0000 0.09540  0.23510  0.64940  Biso   1.000  C
  C98      1.0000 0.94080  0.39080  0.57630  Biso   1.000  C
  C99      1.0000 0.03370  0.16870  0.58680  Biso   1.000  C
  C100     1.0000 0.08690  0.17340  0.61960  Biso   1.000  C
  H66      1.0000 0.11770  0.13700  0.62290  Biso   1.000  H
  C101     1.0000 0.15530  0.24140  0.68400  Biso   1.000  C
  C102     1.0000 0.88170  0.27450  0.68320  Biso   1.000  C
  H67      1.0000 0.90100  0.28890  0.71440  Biso   1.000  H
  H68      1.0000 0.90810  0.23680  0.67000  Biso   1.000  H
  H69      1.0000 0.83490  0.26000  0.68820  Biso   1.000  H
  C103     1.0000 0.99930  0.39170  0.53960  Biso   1.000  C
  H70      1.0000 0.98150  0.38570  0.50640  Biso   1.000  H
  H71      1.0000 0.03070  0.35490  0.54720  Biso   1.000  H
  H72      1.0000 0.02300  0.43500  0.54170  Biso   1.000  H
  C104     1.0000 0.02440  0.10650  0.55370  Biso   1.000  C
  O33      1.0000 0.55150  0.55270  0.56800  Biso   1.000  O
  O34      1.0000 0.68640  0.68950  0.69110  Biso   1.000  O
  O35      1.0000 0.61300  0.48880  0.51610  Biso   1.000  O
  O36      1.0000 0.79710  0.66520  0.70430  Biso   1.000  O
  C105     1.0000 0.78720  0.54850  0.64370  Biso   1.000  C
  H73      1.0000 0.82790  0.55480  0.66150  Biso   1.000  H
  C106     1.0000 0.83490  0.38330  0.64610  Biso   1.000  C
  C107     1.0000 0.78140  0.49190  0.61250  Biso   1.000  C
  C108     1.0000 0.83650  0.43640  0.61180  Biso   1.000  C
  C109     1.0000 0.72410  0.48490  0.58250  Biso   1.000  C
  H74      1.0000 0.72130  0.44890  0.55960  Biso   1.000  H
  C110     1.0000 0.73510  0.59540  0.64940  Biso   1.000  C
  C111     1.0000 0.89080  0.44080  0.57630  Biso   1.000  C
  C112     1.0000 0.66870  0.53370  0.58680  Biso   1.000  C
  C113     1.0000 0.67340  0.58690  0.61960  Biso   1.000  C
  H75      1.0000 0.63700  0.61770  0.62290  Biso   1.000  H
  C114     1.0000 0.74140  0.65530  0.68400  Biso   1.000  C
  C115     1.0000 0.77450  0.38170  0.68320  Biso   1.000  C
  H76      1.0000 0.78890  0.40100  0.71440  Biso   1.000  H
  H77      1.0000 0.73680  0.40810  0.67000  Biso   1.000  H
  H78      1.0000 0.76000  0.33490  0.68820  Biso   1.000  H
  C116     1.0000 0.89170  0.49930  0.53960  Biso   1.000  C
  H79      1.0000 0.88570  0.48150  0.50640  Biso   1.000  H
  H80      1.0000 0.85490  0.53070  0.54720  Biso   1.000  H
  H81      1.0000 0.93500  0.52300  0.54170  Biso   1.000  H
  C117     1.0000 0.60650  0.52440  0.55370  Biso   1.000  C
  O37      1.0000 0.94850  0.94730  0.56800  Biso   1.000  O
  O38      1.0000 0.81360  0.81050  0.69110  Biso   1.000  O
  O39      1.0000 0.88700  0.01120  0.51610  Biso   1.000  O
  O40      1.0000 0.70290  0.83480  0.70430  Biso   1.000  O
  C118     1.0000 0.71280  0.95150  0.64370  Biso   1.000  C
  H82      1.0000 0.67210  0.94520  0.66150  Biso   1.000  H
  C119     1.0000 0.66510  0.11670  0.64610  Biso   1.000  C
  C120     1.0000 0.71860  0.00810  0.61250  Biso   1.000  C
  C121     1.0000 0.66350  0.06360  0.61180  Biso   1.000  C
  C122     1.0000 0.77590  0.01510  0.58250  Biso   1.000  C
  H83      1.0000 0.77870  0.05110  0.55960  Biso   1.000  H
  C123     1.0000 0.76490  0.90460  0.64940  Biso   1.000  C
  C124     1.0000 0.60920  0.05920  0.57630  Biso   1.000  C
  C125     1.0000 0.83130  0.96630  0.58680  Biso   1.000  C
  C126     1.0000 0.82660  0.91310  0.61960  Biso   1.000  C
  H84      1.0000 0.86300  0.88230  0.62290  Biso   1.000  H
  C127     1.0000 0.75860  0.84470  0.68400  Biso   1.000  C
  C128     1.0000 0.72550  0.11830  0.68320  Biso   1.000  C
  H85      1.0000 0.71110  0.09900  0.71440  Biso   1.000  H
  H86      1.0000 0.76320  0.09190  0.67000  Biso   1.000  H
  H87      1.0000 0.74000  0.16510  0.68820  Biso   1.000  H
  C129     1.0000 0.60830  0.00070  0.53960  Biso   1.000  C
  H88      1.0000 0.61430  0.01850  0.50640  Biso   1.000  H
  H89      1.0000 0.64510  0.96930  0.54720  Biso   1.000  H
  H90      1.0000 0.56500  0.97700  0.54170  Biso   1.000  H
  C130     1.0000 0.89350  0.97560  0.55370  Biso   1.000  C
  O41      1.0000 0.94730  0.55150  0.06800  Biso   1.000  O
  O42      1.0000 0.81050  0.68640  0.19110  Biso   1.000  O
  O43      1.0000 0.01120  0.61300  0.01610  Biso   1.000  O
  O44      1.0000 0.83480  0.79710  0.20430  Biso   1.000  O
  C131     1.0000 0.95150  0.78720  0.14370  Biso   1.000  C
  H91      1.0000 0.94520  0.82790  0.16150  Biso   1.000  H
  C132     1.0000 0.11670  0.83490  0.14610  Biso   1.000  C
  C133     1.0000 0.00810  0.78140  0.11250  Biso   1.000  C
  C134     1.0000 0.06360  0.83650  0.11180  Biso   1.000  C
  C135     1.0000 0.01510  0.72410  0.08250  Biso   1.000  C
  H92      1.0000 0.05110  0.72130  0.05960  Biso   1.000  H
  C136     1.0000 0.90460  0.73510  0.14940  Biso   1.000  C
  C137     1.0000 0.05920  0.89080  0.07630  Biso   1.000  C
  C138     1.0000 0.96630  0.66870  0.08680  Biso   1.000  C
  C139     1.0000 0.91310  0.67340  0.11960  Biso   1.000  C
  H93      1.0000 0.88230  0.63700  0.12290  Biso   1.000  H
  C140     1.0000 0.84470  0.74140  0.18400  Biso   1.000  C
  C141     1.0000 0.11830  0.77450  0.18320  Biso   1.000  C
  H94      1.0000 0.09900  0.78890  0.21440  Biso   1.000  H
  H95      1.0000 0.09190  0.73680  0.17000  Biso   1.000  H
  H96      1.0000 0.16510  0.76000  0.18820  Biso   1.000  H
  C142     1.0000 0.00070  0.89170  0.03960  Biso   1.000  C
  H97      1.0000 0.01850  0.88570  0.00640  Biso   1.000  H
  H98      1.0000 0.96930  0.85490  0.04720  Biso   1.000  H
  H99      1.0000 0.97700  0.93500  0.04170  Biso   1.000  H
  C143     1.0000 0.97560  0.60650  0.05370  Biso   1.000  C
  O45      1.0000 0.55270  0.94850  0.06800  Biso   1.000  O
  O46      1.0000 0.68950  0.81360  0.19110  Biso   1.000  O
  O47      1.0000 0.48880  0.88700  0.01610  Biso   1.000  O
  O48      1.0000 0.66520  0.70290  0.20430  Biso   1.000  O
  C144     1.0000 0.54850  0.71280  0.14370  Biso   1.000  C
  H100     1.0000 0.55480  0.67210  0.16150  Biso   1.000  H
  C145     1.0000 0.38330  0.66510  0.14610  Biso   1.000  C
  C146     1.0000 0.49190  0.71860  0.11250  Biso   1.000  C
  C147     1.0000 0.43640  0.66350  0.11180  Biso   1.000  C
  C148     1.0000 0.48490  0.77590  0.08250  Biso   1.000  C
  H101     1.0000 0.44890  0.77870  0.05960  Biso   1.000  H
  C149     1.0000 0.59540  0.76490  0.14940  Biso   1.000  C
  C150     1.0000 0.44080  0.60920  0.07630  Biso   1.000  C
  C151     1.0000 0.53370  0.83130  0.08680  Biso   1.000  C
  C152     1.0000 0.58690  0.82660  0.11960  Biso   1.000  C
  H102     1.0000 0.61770  0.86300  0.12290  Biso   1.000  H
  C153     1.0000 0.65530  0.75860  0.18400  Biso   1.000  C
  C154     1.0000 0.38170  0.72550  0.18320  Biso   1.000  C
  H103     1.0000 0.40100  0.71110  0.21440  Biso   1.000  H
  H104     1.0000 0.40810  0.76320  0.17000  Biso   1.000  H
  H105     1.0000 0.33490  0.74000  0.18820  Biso   1.000  H
  C155     1.0000 0.49930  0.60830  0.03960  Biso   1.000  C
  H106     1.0000 0.48150  0.61430  0.00640  Biso   1.000  H
  H107     1.0000 0.53070  0.64510  0.04720  Biso   1.000  H
  H108     1.0000 0.52300  0.56500  0.04170  Biso   1.000  H
  C156     1.0000 0.52440  0.89350  0.05370  Biso   1.000  C
  O49      1.0000 0.94850  0.55270  0.93200  Biso   1.000  O
  O50      1.0000 0.81360  0.68950  0.80890  Biso   1.000  O
  O51      1.0000 0.88700  0.48880  0.98390  Biso   1.000  O
  O52      1.0000 0.70290  0.66520  0.79570  Biso   1.000  O
  C157     1.0000 0.71280  0.54850  0.85630  Biso   1.000  C
  H109     1.0000 0.67210  0.55480  0.83850  Biso   1.000  H
  C158     1.0000 0.66510  0.38330  0.85390  Biso   1.000  C
  C159     1.0000 0.71860  0.49190  0.88750  Biso   1.000  C
  C160     1.0000 0.66350  0.43640  0.88820  Biso   1.000  C
  C161     1.0000 0.77590  0.48490  0.91750  Biso   1.000  C
  H110     1.0000 0.77870  0.44890  0.94040  Biso   1.000  H
  C162     1.0000 0.76490  0.59540  0.85060  Biso   1.000  C
  C163     1.0000 0.60920  0.44080  0.92370  Biso   1.000  C
  C164     1.0000 0.83130  0.53370  0.91320  Biso   1.000  C
  C165     1.0000 0.82660  0.58690  0.88040  Biso   1.000  C
  H111     1.0000 0.86300  0.61770  0.87710  Biso   1.000  H
  C166     1.0000 0.75860  0.65530  0.81600  Biso   1.000  C
  C167     1.0000 0.72550  0.38170  0.81680  Biso   1.000  C
  H112     1.0000 0.71110  0.40100  0.78560  Biso   1.000  H
  H113     1.0000 0.76320  0.40810  0.83000  Biso   1.000  H
  H114     1.0000 0.74000  0.33490  0.81180  Biso   1.000  H
  C168     1.0000 0.60830  0.49930  0.96040  Biso   1.000  C
  H115     1.0000 0.61430  0.48150  0.99360  Biso   1.000  H
  H116     1.0000 0.64510  0.53070  0.95280  Biso   1.000  H
  H117     1.0000 0.56500  0.52300  0.95830  Biso   1.000  H
  C169     1.0000 0.89350  0.52440  0.94630  Biso   1.000  C
  O53      1.0000 0.55150  0.94730  0.93200  Biso   1.000  O
  O54      1.0000 0.68640  0.81050  0.80890  Biso   1.000  O
  O55      1.0000 0.61300  0.01120  0.98390  Biso   1.000  O
  O56      1.0000 0.79710  0.83480  0.79570  Biso   1.000  O
  C170     1.0000 0.78720  0.95150  0.85630  Biso   1.000  C
  H118     1.0000 0.82790  0.94520  0.83850  Biso   1.000  H
  C171     1.0000 0.83490  0.11670  0.85390  Biso   1.000  C
  C172     1.0000 0.78140  0.00810  0.88750  Biso   1.000  C
  C173     1.0000 0.83650  0.06360  0.88820  Biso   1.000  C
  C174     1.0000 0.72410  0.01510  0.91750  Biso   1.000  C
  H119     1.0000 0.72130  0.05110  0.94040  Biso   1.000  H
  C175     1.0000 0.73510  0.90460  0.85060  Biso   1.000  C
  C176     1.0000 0.89080  0.05920  0.92370  Biso   1.000  C
  C177     1.0000 0.66870  0.96630  0.91320  Biso   1.000  C
  C178     1.0000 0.67340  0.91310  0.88040  Biso   1.000  C
  H120     1.0000 0.63700  0.88230  0.87710  Biso   1.000  H
  C179     1.0000 0.74140  0.84470  0.81600  Biso   1.000  C
  C180     1.0000 0.77450  0.11830  0.81680  Biso   1.000  C
  H121     1.0000 0.78890  0.09900  0.78560  Biso   1.000  H
  H122     1.0000 0.73680  0.09190  0.83000  Biso   1.000  H
  H123     1.0000 0.76000  0.16510  0.81180  Biso   1.000  H
  C181     1.0000 0.89170  0.00070  0.96040  Biso   1.000  C
  H124     1.0000 0.88570  0.01850  0.99360  Biso   1.000  H
  H125     1.0000 0.85490  0.96930  0.95280  Biso   1.000  H
  H126     1.0000 0.93500  0.97700  0.95830  Biso   1.000  H
  C182     1.0000 0.60650  0.97560  0.94630  Biso   1.000  C
  O57      1.0000 0.55270  0.55150  0.43200  Biso   1.000  O
  O58      1.0000 0.68950  0.68640  0.30890  Biso   1.000  O
  O59      1.0000 0.48880  0.61300  0.48390  Biso   1.000  O
  O60      1.0000 0.66520  0.79710  0.29570  Biso   1.000  O
  C183     1.0000 0.54850  0.78720  0.35630  Biso   1.000  C
  H127     1.0000 0.55480  0.82790  0.33850  Biso   1.000  H
  C184     1.0000 0.38330  0.83490  0.35390  Biso   1.000  C
  C185     1.0000 0.49190  0.78140  0.38750  Biso   1.000  C
  C186     1.0000 0.43640  0.83650  0.38820  Biso   1.000  C
  C187     1.0000 0.48490  0.72410  0.41750  Biso   1.000  C
  H128     1.0000 0.44890  0.72130  0.44040  Biso   1.000  H
  C188     1.0000 0.59540  0.73510  0.35060  Biso   1.000  C
  C189     1.0000 0.44080  0.89080  0.42370  Biso   1.000  C
  C190     1.0000 0.53370  0.66870  0.41320  Biso   1.000  C
  C191     1.0000 0.58690  0.67340  0.38040  Biso   1.000  C
  H129     1.0000 0.61770  0.63700  0.37710  Biso   1.000  H
  C192     1.0000 0.65530  0.74140  0.31600  Biso   1.000  C
  C193     1.0000 0.38170  0.77450  0.31680  Biso   1.000  C
  H130     1.0000 0.40100  0.78890  0.28560  Biso   1.000  H
  H131     1.0000 0.40810  0.73680  0.33000  Biso   1.000  H
  H132     1.0000 0.33490  0.76000  0.31180  Biso   1.000  H
  C194     1.0000 0.49930  0.89170  0.46040  Biso   1.000  C
  H133     1.0000 0.48150  0.88570  0.49360  Biso   1.000  H
  H134     1.0000 0.53070  0.85490  0.45280  Biso   1.000  H
  H135     1.0000 0.52300  0.93500  0.45830  Biso   1.000  H
  C195     1.0000 0.52440  0.60650  0.44630  Biso   1.000  C
  O61      1.0000 0.94730  0.94850  0.43200  Biso   1.000  O
  O62      1.0000 0.81050  0.81360  0.30890  Biso   1.000  O
  O63      1.0000 0.01120  0.88700  0.48390  Biso   1.000  O
  O64      1.0000 0.83480  0.70290  0.29570  Biso   1.000  O
  C196     1.0000 0.95150  0.71280  0.35630  Biso   1.000  C
  H136     1.0000 0.94520  0.67210  0.33850  Biso   1.000  H
  C197     1.0000 0.11670  0.66510  0.35390  Biso   1.000  C
  C198     1.0000 0.00810  0.71860  0.38750  Biso   1.000  C
  C199     1.0000 0.06360  0.66350  0.38820  Biso   1.000  C
  C200     1.0000 0.01510  0.77590  0.41750  Biso   1.000  C
  H137     1.0000 0.05110  0.77870  0.44040  Biso   1.000  H
  C201     1.0000 0.90460  0.76490  0.35060  Biso   1.000  C
  C202     1.0000 0.05920  0.60920  0.42370  Biso   1.000  C
  C203     1.0000 0.96630  0.83130  0.41320  Biso   1.000  C
  C204     1.0000 0.91310  0.82660  0.38040  Biso   1.000  C
  H138     1.0000 0.88230  0.86300  0.37710  Biso   1.000  H
  C205     1.0000 0.84470  0.75860  0.31600  Biso   1.000  C
  C206     1.0000 0.11830  0.72550  0.31680  Biso   1.000  C
  H139     1.0000 0.09900  0.71110  0.28560  Biso   1.000  H
  H140     1.0000 0.09190  0.76320  0.33000  Biso   1.000  H
  H141     1.0000 0.16510  0.74000  0.31180  Biso   1.000  H
  C207     1.0000 0.00070  0.60830  0.46040  Biso   1.000  C
  H142     1.0000 0.01850  0.61430  0.49360  Biso   1.000  H
  H143     1.0000 0.96930  0.64510  0.45280  Biso   1.000  H
  H144     1.0000 0.97700  0.56500  0.45830  Biso   1.000  H
  C208     1.0000 0.97560  0.89350  0.44630  Biso   1.000  C
  Zn1      1.0000 0.54185  0.45815  0.46478  Biso   1.000  Zn
  Zn2      1.0000 0.95815  0.04185  0.46478  Biso   1.000  Zn
  Zn3      1.0000 0.04185  0.54185  0.96478  Biso   1.000  Zn
  Zn4      1.0000 0.45815  0.95815  0.96478  Biso   1.000  Zn
  Zn5      1.0000 0.95815  0.45815  0.03522  Biso   1.000  Zn
  Zn6      1.0000 0.54185  0.04185  0.03522  Biso   1.000  Zn
  Zn7      1.0000 0.45815  0.54185  0.53522  Biso   1.000  Zn
  Zn8      1.0000 0.04185  0.95815  0.53522  Biso   1.000  Zn
  Zn9      1.0000 0.32637  0.25000  0.25000  Biso   1.000  Zn
  Zn10     1.0000 0.17363  0.25000  0.25000  Biso   1.000  Zn
  Zn11     1.0000 0.25000  0.32637  0.75000  Biso   1.000  Zn
  Zn12     1.0000 0.25000  0.17363  0.75000  Biso   1.000  Zn
  Zn13     1.0000 0.67363  0.75000  0.75000  Biso   1.000  Zn
  Zn14     1.0000 0.82637  0.75000  0.75000  Biso   1.000  Zn
  Zn15     1.0000 0.75000  0.67363  0.25000  Biso   1.000  Zn
  Zn16     1.0000 0.75000  0.82637  0.25000  Biso   1.000  Zn
