data_image0
_cell_length_a       14.7488
_cell_length_b       10.7434
_cell_length_c       28.8774
_cell_angle_alpha    90
_cell_angle_beta     90
_cell_angle_gamma    90

_symmetry_space_group_name_H-M    "P 1"
_symmetry_int_tables_number       1

loop_
  _symmetry_equiv_pos_as_xyz
  'x, y, z'

loop_
  _atom_site_label
  _atom_site_occupancy
  _atom_site_fract_x
  _atom_site_fract_y
  _atom_site_fract_z
  _atom_site_thermal_displace_type
  _atom_site_B_iso_or_equiv
  _atom_site_type_symbol
  O1       1.0000 0.65590  0.25180  0.31899  Biso   1.000  O
  O2       1.0000 0.65470  0.39380  0.26314  Biso   1.000  O
  C1       1.0000 0.56060  0.42620  0.32743  Biso   1.000  C
  C2       1.0000 0.62950  0.35150  0.30069  Biso   1.000  C
  C3       1.0000 0.55940  0.42440  0.37539  Biso   1.000  C
  H1       1.0000 0.59870  0.37190  0.39130  Biso   1.000  H
  C4       1.0000 0.44880  0.41480  0.47561  Biso   1.000  C
  C5       1.0000 0.40130  0.30480  0.44870  Biso   1.000  C
  H2       1.0000 0.33730  0.32060  0.44670  Biso   1.000  H
  H3       1.0000 0.41140  0.22810  0.46490  Biso   1.000  H
  H4       1.0000 0.42620  0.29890  0.41810  Biso   1.000  H
  O3       1.0000 0.15590  0.75180  0.81899  Biso   1.000  O
  O4       1.0000 0.15470  0.89380  0.76314  Biso   1.000  O
  C6       1.0000 0.06060  0.92620  0.82743  Biso   1.000  C
  C7       1.0000 0.12950  0.85150  0.80069  Biso   1.000  C
  C8       1.0000 0.05940  0.92440  0.87539  Biso   1.000  C
  H5       1.0000 0.09870  0.87190  0.89130  Biso   1.000  H
  C9       1.0000 0.94880  0.91480  0.97561  Biso   1.000  C
  C10      1.0000 0.90130  0.80480  0.94870  Biso   1.000  C
  H6       1.0000 0.83730  0.82060  0.94670  Biso   1.000  H
  H7       1.0000 0.91140  0.72810  0.96490  Biso   1.000  H
  H8       1.0000 0.92620  0.79890  0.91810  Biso   1.000  H
  O5       1.0000 0.84410  0.25180  0.68101  Biso   1.000  O
  O6       1.0000 0.84530  0.39380  0.73686  Biso   1.000  O
  C11      1.0000 0.93940  0.42620  0.67257  Biso   1.000  C
  C12      1.0000 0.87050  0.35150  0.69931  Biso   1.000  C
  C13      1.0000 0.94060  0.42440  0.62461  Biso   1.000  C
  H9       1.0000 0.90130  0.37190  0.60870  Biso   1.000  H
  C14      1.0000 0.05120  0.41480  0.52439  Biso   1.000  C
  C15      1.0000 0.09870  0.30480  0.55130  Biso   1.000  C
  H10      1.0000 0.16270  0.32060  0.55330  Biso   1.000  H
  H11      1.0000 0.08860  0.22810  0.53510  Biso   1.000  H
  H12      1.0000 0.07380  0.29890  0.58190  Biso   1.000  H
  O7       1.0000 0.34410  0.75180  0.18101  Biso   1.000  O
  O8       1.0000 0.34530  0.89380  0.23686  Biso   1.000  O
  C16      1.0000 0.43940  0.92620  0.17257  Biso   1.000  C
  C17      1.0000 0.37050  0.85150  0.19931  Biso   1.000  C
  C18      1.0000 0.44060  0.92440  0.12461  Biso   1.000  C
  H13      1.0000 0.40130  0.87190  0.10870  Biso   1.000  H
  C19      1.0000 0.55120  0.91480  0.02439  Biso   1.000  C
  C20      1.0000 0.59870  0.80480  0.05130  Biso   1.000  C
  H14      1.0000 0.66270  0.82060  0.05330  Biso   1.000  H
  H15      1.0000 0.58860  0.72810  0.03510  Biso   1.000  H
  H16      1.0000 0.57380  0.79890  0.08190  Biso   1.000  H
  O9       1.0000 0.15590  0.74820  0.68101  Biso   1.000  O
  O10      1.0000 0.15470  0.60620  0.73686  Biso   1.000  O
  C21      1.0000 0.06060  0.57380  0.67257  Biso   1.000  C
  C22      1.0000 0.12950  0.64850  0.69931  Biso   1.000  C
  C23      1.0000 0.05940  0.57560  0.62461  Biso   1.000  C
  H17      1.0000 0.09870  0.62810  0.60870  Biso   1.000  H
  C24      1.0000 0.94880  0.58520  0.52439  Biso   1.000  C
  C25      1.0000 0.90130  0.69520  0.55130  Biso   1.000  C
  H18      1.0000 0.83730  0.67940  0.55330  Biso   1.000  H
  H19      1.0000 0.91140  0.77190  0.53510  Biso   1.000  H
  H20      1.0000 0.92620  0.70110  0.58190  Biso   1.000  H
  O11      1.0000 0.65590  0.24820  0.18101  Biso   1.000  O
  O12      1.0000 0.65470  0.10620  0.23686  Biso   1.000  O
  C26      1.0000 0.56060  0.07380  0.17257  Biso   1.000  C
  C27      1.0000 0.62950  0.14850  0.19931  Biso   1.000  C
  C28      1.0000 0.55940  0.07560  0.12461  Biso   1.000  C
  H21      1.0000 0.59870  0.12810  0.10870  Biso   1.000  H
  C29      1.0000 0.44880  0.08520  0.02439  Biso   1.000  C
  C30      1.0000 0.40130  0.19520  0.05130  Biso   1.000  C
  H22      1.0000 0.33730  0.17940  0.05330  Biso   1.000  H
  H23      1.0000 0.41140  0.27190  0.03510  Biso   1.000  H
  H24      1.0000 0.42620  0.20110  0.08190  Biso   1.000  H
  O13      1.0000 0.34410  0.74820  0.31899  Biso   1.000  O
  O14      1.0000 0.34530  0.60620  0.26314  Biso   1.000  O
  C31      1.0000 0.43940  0.57380  0.32743  Biso   1.000  C
  C32      1.0000 0.37050  0.64850  0.30069  Biso   1.000  C
  C33      1.0000 0.44060  0.57560  0.37539  Biso   1.000  C
  H25      1.0000 0.40130  0.62810  0.39130  Biso   1.000  H
  C34      1.0000 0.55120  0.58520  0.47561  Biso   1.000  C
  C35      1.0000 0.59870  0.69520  0.44870  Biso   1.000  C
  H26      1.0000 0.66270  0.67940  0.44670  Biso   1.000  H
  H27      1.0000 0.58860  0.77190  0.46490  Biso   1.000  H
  H28      1.0000 0.57380  0.70110  0.41810  Biso   1.000  H
  O15      1.0000 0.84410  0.24820  0.81899  Biso   1.000  O
  O16      1.0000 0.84530  0.10620  0.76314  Biso   1.000  O
  C36      1.0000 0.93940  0.07380  0.82743  Biso   1.000  C
  C37      1.0000 0.87050  0.14850  0.80069  Biso   1.000  C
  C38      1.0000 0.94060  0.07560  0.87539  Biso   1.000  C
  H29      1.0000 0.90130  0.12810  0.89130  Biso   1.000  H
  C39      1.0000 0.05120  0.08520  0.97561  Biso   1.000  C
  C40      1.0000 0.09870  0.19520  0.94870  Biso   1.000  C
  H30      1.0000 0.16270  0.17940  0.94670  Biso   1.000  H
  H31      1.0000 0.08860  0.27190  0.96490  Biso   1.000  H
  H32      1.0000 0.07380  0.20110  0.91810  Biso   1.000  H
  O17      1.0000 0.34410  0.74820  0.68101  Biso   1.000  O
  O18      1.0000 0.34530  0.60620  0.73686  Biso   1.000  O
  C41      1.0000 0.43940  0.57380  0.67257  Biso   1.000  C
  C42      1.0000 0.37050  0.64850  0.69931  Biso   1.000  C
  C43      1.0000 0.44060  0.57560  0.62461  Biso   1.000  C
  H33      1.0000 0.40130  0.62810  0.60870  Biso   1.000  H
  C44      1.0000 0.55120  0.58520  0.52439  Biso   1.000  C
  C45      1.0000 0.59870  0.69520  0.55130  Biso   1.000  C
  H34      1.0000 0.66270  0.67940  0.55330  Biso   1.000  H
  H35      1.0000 0.58860  0.77190  0.53510  Biso   1.000  H
  H36      1.0000 0.57380  0.70110  0.58190  Biso   1.000  H
  O19      1.0000 0.84410  0.24820  0.18101  Biso   1.000  O
  O20      1.0000 0.84530  0.10620  0.23686  Biso   1.000  O
  C46      1.0000 0.93940  0.07380  0.17257  Biso   1.000  C
  C47      1.0000 0.87050  0.14850  0.19931  Biso   1.000  C
  C48      1.0000 0.94060  0.07560  0.12461  Biso   1.000  C
  H37      1.0000 0.90130  0.12810  0.10870  Biso   1.000  H
  C49      1.0000 0.05120  0.08520  0.02439  Biso   1.000  C
  C50      1.0000 0.09870  0.19520  0.05130  Biso   1.000  C
  H38      1.0000 0.16270  0.17940  0.05330  Biso   1.000  H
  H39      1.0000 0.08860  0.27190  0.03510  Biso   1.000  H
  H40      1.0000 0.07380  0.20110  0.08190  Biso   1.000  H
  O21      1.0000 0.15590  0.74820  0.31899  Biso   1.000  O
  O22      1.0000 0.15470  0.60620  0.26314  Biso   1.000  O
  C51      1.0000 0.06060  0.57380  0.32743  Biso   1.000  C
  C52      1.0000 0.12950  0.64850  0.30069  Biso   1.000  C
  C53      1.0000 0.05940  0.57560  0.37539  Biso   1.000  C
  H41      1.0000 0.09870  0.62810  0.39130  Biso   1.000  H
  C54      1.0000 0.94880  0.58520  0.47561  Biso   1.000  C
  C55      1.0000 0.90130  0.69520  0.44870  Biso   1.000  C
  H42      1.0000 0.83730  0.67940  0.44670  Biso   1.000  H
  H43      1.0000 0.91140  0.77190  0.46490  Biso   1.000  H
  H44      1.0000 0.92620  0.70110  0.41810  Biso   1.000  H
  O23      1.0000 0.65590  0.24820  0.81899  Biso   1.000  O
  O24      1.0000 0.65470  0.10620  0.76314  Biso   1.000  O
  C56      1.0000 0.56060  0.07380  0.82743  Biso   1.000  C
  C57      1.0000 0.62950  0.14850  0.80069  Biso   1.000  C
  C58      1.0000 0.55940  0.07560  0.87539  Biso   1.000  C
  H45      1.0000 0.59870  0.12810  0.89130  Biso   1.000  H
  C59      1.0000 0.44880  0.08520  0.97561  Biso   1.000  C
  C60      1.0000 0.40130  0.19520  0.94870  Biso   1.000  C
  H46      1.0000 0.33730  0.17940  0.94670  Biso   1.000  H
  H47      1.0000 0.41140  0.27190  0.96490  Biso   1.000  H
  H48      1.0000 0.42620  0.20110  0.91810  Biso   1.000  H
  O25      1.0000 0.84410  0.25180  0.31899  Biso   1.000  O
  O26      1.0000 0.84530  0.39380  0.26314  Biso   1.000  O
  C61      1.0000 0.93940  0.42620  0.32743  Biso   1.000  C
  C62      1.0000 0.87050  0.35150  0.30069  Biso   1.000  C
  C63      1.0000 0.94060  0.42440  0.37539  Biso   1.000  C
  H49      1.0000 0.90130  0.37190  0.39130  Biso   1.000  H
  C64      1.0000 0.05120  0.41480  0.47561  Biso   1.000  C
  C65      1.0000 0.09870  0.30480  0.44870  Biso   1.000  C
  H50      1.0000 0.16270  0.32060  0.44670  Biso   1.000  H
  H51      1.0000 0.08860  0.22810  0.46490  Biso   1.000  H
  H52      1.0000 0.07380  0.29890  0.41810  Biso   1.000  H
  O27      1.0000 0.34410  0.75180  0.81899  Biso   1.000  O
  O28      1.0000 0.34530  0.89380  0.76314  Biso   1.000  O
  C66      1.0000 0.43940  0.92620  0.82743  Biso   1.000  C
  C67      1.0000 0.37050  0.85150  0.80069  Biso   1.000  C
  C68      1.0000 0.44060  0.92440  0.87539  Biso   1.000  C
  H53      1.0000 0.40130  0.87190  0.89130  Biso   1.000  H
  C69      1.0000 0.55120  0.91480  0.97561  Biso   1.000  C
  C70      1.0000 0.59870  0.80480  0.94870  Biso   1.000  C
  H54      1.0000 0.66270  0.82060  0.94670  Biso   1.000  H
  H55      1.0000 0.58860  0.72810  0.96490  Biso   1.000  H
  H56      1.0000 0.57380  0.79890  0.91810  Biso   1.000  H
  O29      1.0000 0.65590  0.25180  0.68101  Biso   1.000  O
  O30      1.0000 0.65470  0.39380  0.73686  Biso   1.000  O
  C71      1.0000 0.56060  0.42620  0.67257  Biso   1.000  C
  C72      1.0000 0.62950  0.35150  0.69931  Biso   1.000  C
  C73      1.0000 0.55940  0.42440  0.62461  Biso   1.000  C
  H57      1.0000 0.59870  0.37190  0.60870  Biso   1.000  H
  C74      1.0000 0.44880  0.41480  0.52439  Biso   1.000  C
  C75      1.0000 0.40130  0.30480  0.55130  Biso   1.000  C
  H58      1.0000 0.33730  0.32060  0.55330  Biso   1.000  H
  H59      1.0000 0.41140  0.22810  0.53510  Biso   1.000  H
  H60      1.0000 0.42620  0.29890  0.58190  Biso   1.000  H
  O31      1.0000 0.15590  0.75180  0.18101  Biso   1.000  O
  O32      1.0000 0.15470  0.89380  0.23686  Biso   1.000  O
  C76      1.0000 0.06060  0.92620  0.17257  Biso   1.000  C
  C77      1.0000 0.12950  0.85150  0.19931  Biso   1.000  C
  C78      1.0000 0.05940  0.92440  0.12461  Biso   1.000  C
  H61      1.0000 0.09870  0.87190  0.10870  Biso   1.000  H
  C79      1.0000 0.94880  0.91480  0.02439  Biso   1.000  C
  C80      1.0000 0.90130  0.80480  0.05130  Biso   1.000  C
  H62      1.0000 0.83730  0.82060  0.05330  Biso   1.000  H
  H63      1.0000 0.91140  0.72810  0.03510  Biso   1.000  H
  H64      1.0000 0.92620  0.79890  0.08190  Biso   1.000  H
  Co1      1.0000 0.75000  0.15388  0.28526  Biso   1.000  Co
  Co2      1.0000 0.25000  0.65388  0.78526  Biso   1.000  Co
  Co3      1.0000 0.75000  0.15388  0.71474  Biso   1.000  Co
  Co4      1.0000 0.25000  0.65388  0.21474  Biso   1.000  Co
  Co5      1.0000 0.25000  0.84612  0.71474  Biso   1.000  Co
  Co6      1.0000 0.75000  0.34612  0.21474  Biso   1.000  Co
  Co7      1.0000 0.25000  0.84612  0.28526  Biso   1.000  Co
  Co8      1.0000 0.75000  0.34612  0.78526  Biso   1.000  Co
  C81      1.0000 0.50000  0.50000  0.30370  Biso   1.000  C
  H65      1.0000 0.50000  0.50000  0.27150  Biso   1.000  H
  C82      1.0000 0.50000  0.50000  0.40000  Biso   1.000  C
  C83      1.0000 0.50000  0.50000  0.45190  Biso   1.000  C
  C84      1.0000 0.00000  0.00000  0.80370  Biso   1.000  C
  H66      1.0000 0.00000  0.00000  0.77150  Biso   1.000  H
  C85      1.0000 0.00000  0.00000  0.90000  Biso   1.000  C
  C86      1.0000 0.00000  0.00000  0.95190  Biso   1.000  C
  C87      1.0000 0.00000  0.50000  0.69630  Biso   1.000  C
  H67      1.0000 0.00000  0.50000  0.72850  Biso   1.000  H
  C88      1.0000 0.00000  0.50000  0.60000  Biso   1.000  C
  C89      1.0000 0.00000  0.50000  0.54810  Biso   1.000  C
  C90      1.0000 0.50000  0.00000  0.19630  Biso   1.000  C
  H68      1.0000 0.50000  0.00000  0.22850  Biso   1.000  H
  C91      1.0000 0.50000  0.00000  0.10000  Biso   1.000  C
  C92      1.0000 0.50000  0.00000  0.04810  Biso   1.000  C
  C93      1.0000 0.50000  0.50000  0.69630  Biso   1.000  C
  H69      1.0000 0.50000  0.50000  0.72850  Biso   1.000  H
  C94      1.0000 0.50000  0.50000  0.60000  Biso   1.000  C
  C95      1.0000 0.50000  0.50000  0.54810  Biso   1.000  C
  C96      1.0000 0.00000  0.00000  0.19630  Biso   1.000  C
  H70      1.0000 0.00000  0.00000  0.22850  Biso   1.000  H
  C97      1.0000 0.00000  0.00000  0.10000  Biso   1.000  C
  C98      1.0000 0.00000  0.00000  0.04810  Biso   1.000  C
  C99      1.0000 0.00000  0.50000  0.30370  Biso   1.000  C
  H71      1.0000 0.00000  0.50000  0.27150  Biso   1.000  H
  C100     1.0000 0.00000  0.50000  0.40000  Biso   1.000  C
  C101     1.0000 0.00000  0.50000  0.45190  Biso   1.000  C
  C102     1.0000 0.50000  0.00000  0.80370  Biso   1.000  C
  H72      1.0000 0.50000  0.00000  0.77150  Biso   1.000  H
  C103     1.0000 0.50000  0.00000  0.90000  Biso   1.000  C
  C104     1.0000 0.50000  0.00000  0.95190  Biso   1.000  C
