data_image0
_cell_length_a       14.3929
_cell_length_b       17.8516
_cell_length_c       26.7111
_cell_angle_alpha    90
_cell_angle_beta     90
_cell_angle_gamma    90

_symmetry_space_group_name_H-M    "P 1"
_symmetry_int_tables_number       1

loop_
  _symmetry_equiv_pos_as_xyz
  'x, y, z'

loop_
  _atom_site_label
  _atom_site_occupancy
  _atom_site_fract_x
  _atom_site_fract_y
  _atom_site_fract_z
  _atom_site_thermal_displace_type
  _atom_site_B_iso_or_equiv
  _atom_site_type_symbol
  Zn1      1.0000 0.56416  0.47132  0.70404  Biso   1.000  Zn
  Zn2      1.0000 0.75417  0.53592  0.34199  Biso   1.000  Zn
  Zn3      1.0000 0.86657  0.45782  0.44410  Biso   1.000  Zn
  O1       1.0000 0.54260  0.49660  0.63409  Biso   1.000  O
  O2       1.0000 0.49120  0.38450  0.61425  Biso   1.000  O
  O3       1.0000 0.66560  0.49590  0.39668  Biso   1.000  O
  O4       1.0000 0.80420  0.43680  0.32442  Biso   1.000  O
  O5       1.0000 0.88220  0.38760  0.38887  Biso   1.000  O
  O6       1.0000 0.74120  0.47530  0.46711  Biso   1.000  O
  O7       1.0000 0.91930  0.40130  0.49837  Biso   1.000  O
  O8       1.0000 0.05780  0.42000  0.46580  Biso   1.000  O
  O9       1.0000 0.08270  0.44710  0.57753  Biso   1.000  O
  O10      1.0000 0.20080  0.38480  0.61193  Biso   1.000  O
  O11      1.0000 0.94630  0.43349  0.24126  Biso   1.000  O
  O12      1.0000 0.81340  0.40380  0.20426  Biso   1.000  O
  O13      1.0000 0.48060  0.39065  0.73022  Biso   1.000  O
  O14      1.0000 0.35560  0.44775  0.70171  Biso   1.000  O
  O15      1.0000 0.16050  0.42250  0.71520  Biso   1.000  O
  O16      1.0000 0.17430  0.40210  0.79566  Biso   1.000  O
  C1       1.0000 0.50950  0.45070  0.60410  Biso   1.000  C
  C2       1.0000 0.50130  0.47720  0.55040  Biso   1.000  C
  C3       1.0000 0.57930  0.47490  0.52131  Biso   1.000  C
  H1       1.0000 0.63460  0.45910  0.53590  Biso   1.000  H
  C4       1.0000 0.58040  0.49500  0.47105  Biso   1.000  C
  C5       1.0000 0.66900  0.48800  0.44238  Biso   1.000  C
  C6       1.0000 0.85100  0.38740  0.34508  Biso   1.000  C
  C7       1.0000 0.00530  0.38710  0.49390  Biso   1.000  C
  C8       1.0000 0.03750  0.31770  0.52140  Biso   1.000  C
  C9       1.0000 0.09610  0.31750  0.56182  Biso   1.000  C
  C10      1.0000 0.13020  0.38840  0.58530  Biso   1.000  C
  C11      1.0000 0.86870  0.31800  0.31526  Biso   1.000  C
  C12      1.0000 0.87470  0.31830  0.26298  Biso   1.000  C
  C13      1.0000 0.87630  0.39070  0.23377  Biso   1.000  C
  C14      1.0000 0.39620  0.39010  0.71842  Biso   1.000  C
  C15      1.0000 0.34340  0.31840  0.72577  Biso   1.000  C
  C16      1.0000 0.25190  0.31780  0.74116  Biso   1.000  C
  C17      1.0000 0.19310  0.38690  0.75098  Biso   1.000  C
  Zn4      1.0000 0.93584  0.52868  0.20404  Biso   1.000  Zn
  Zn5      1.0000 0.74583  0.46408  0.84199  Biso   1.000  Zn
  Zn6      1.0000 0.63343  0.54218  0.94410  Biso   1.000  Zn
  O17      1.0000 0.95740  0.50340  0.13409  Biso   1.000  O
  O18      1.0000 0.00880  0.61550  0.11425  Biso   1.000  O
  O19      1.0000 0.83440  0.50410  0.89668  Biso   1.000  O
  O20      1.0000 0.69580  0.56320  0.82442  Biso   1.000  O
  O21      1.0000 0.61780  0.61240  0.88887  Biso   1.000  O
  O22      1.0000 0.75880  0.52470  0.96711  Biso   1.000  O
  O23      1.0000 0.58070  0.59870  0.99837  Biso   1.000  O
  O24      1.0000 0.44220  0.58000  0.96580  Biso   1.000  O
  O25      1.0000 0.41730  0.55290  0.07753  Biso   1.000  O
  O26      1.0000 0.29920  0.61520  0.11193  Biso   1.000  O
  O27      1.0000 0.55370  0.56651  0.74126  Biso   1.000  O
  O28      1.0000 0.68660  0.59620  0.70426  Biso   1.000  O
  O29      1.0000 0.01940  0.60935  0.23022  Biso   1.000  O
  O30      1.0000 0.14440  0.55225  0.20171  Biso   1.000  O
  O31      1.0000 0.33950  0.57750  0.21520  Biso   1.000  O
  O32      1.0000 0.32570  0.59790  0.29566  Biso   1.000  O
  C18      1.0000 0.99050  0.54930  0.10410  Biso   1.000  C
  C19      1.0000 0.99870  0.52280  0.05040  Biso   1.000  C
  C20      1.0000 0.92070  0.52510  0.02131  Biso   1.000  C
  H2       1.0000 0.86540  0.54090  0.03590  Biso   1.000  H
  C21      1.0000 0.91960  0.50500  0.97105  Biso   1.000  C
  C22      1.0000 0.83100  0.51200  0.94238  Biso   1.000  C
  C23      1.0000 0.64900  0.61260  0.84508  Biso   1.000  C
  C24      1.0000 0.49470  0.61290  0.99390  Biso   1.000  C
  C25      1.0000 0.46250  0.68230  0.02140  Biso   1.000  C
  C26      1.0000 0.40390  0.68250  0.06182  Biso   1.000  C
  C27      1.0000 0.36980  0.61160  0.08530  Biso   1.000  C
  C28      1.0000 0.63130  0.68200  0.81526  Biso   1.000  C
  C29      1.0000 0.62530  0.68170  0.76298  Biso   1.000  C
  C30      1.0000 0.62370  0.60930  0.73377  Biso   1.000  C
  C31      1.0000 0.10380  0.60990  0.21842  Biso   1.000  C
  C32      1.0000 0.15660  0.68160  0.22577  Biso   1.000  C
  C33      1.0000 0.24810  0.68220  0.24116  Biso   1.000  C
  C34      1.0000 0.30690  0.61310  0.25098  Biso   1.000  C
  Zn7      1.0000 0.43584  0.97132  0.29596  Biso   1.000  Zn
  Zn8      1.0000 0.24583  0.03592  0.65801  Biso   1.000  Zn
  Zn9      1.0000 0.13343  0.95782  0.55590  Biso   1.000  Zn
  O33      1.0000 0.45740  0.99660  0.36591  Biso   1.000  O
  O34      1.0000 0.50880  0.88450  0.38575  Biso   1.000  O
  O35      1.0000 0.33440  0.99590  0.60332  Biso   1.000  O
  O36      1.0000 0.19580  0.93680  0.67558  Biso   1.000  O
  O37      1.0000 0.11780  0.88760  0.61113  Biso   1.000  O
  O38      1.0000 0.25880  0.97530  0.53289  Biso   1.000  O
  O39      1.0000 0.08070  0.90130  0.50163  Biso   1.000  O
  O40      1.0000 0.94220  0.92000  0.53420  Biso   1.000  O
  O41      1.0000 0.91730  0.94710  0.42247  Biso   1.000  O
  O42      1.0000 0.79920  0.88480  0.38807  Biso   1.000  O
  O43      1.0000 0.05370  0.93349  0.75874  Biso   1.000  O
  O44      1.0000 0.18660  0.90380  0.79574  Biso   1.000  O
  O45      1.0000 0.51940  0.89065  0.26978  Biso   1.000  O
  O46      1.0000 0.64440  0.94775  0.29829  Biso   1.000  O
  O47      1.0000 0.83950  0.92250  0.28480  Biso   1.000  O
  O48      1.0000 0.82570  0.90210  0.20434  Biso   1.000  O
  C35      1.0000 0.49050  0.95070  0.39590  Biso   1.000  C
  C36      1.0000 0.49870  0.97720  0.44960  Biso   1.000  C
  C37      1.0000 0.42070  0.97490  0.47869  Biso   1.000  C
  H3       1.0000 0.36540  0.95910  0.46410  Biso   1.000  H
  C38      1.0000 0.41960  0.99500  0.52895  Biso   1.000  C
  C39      1.0000 0.33100  0.98800  0.55762  Biso   1.000  C
  C40      1.0000 0.14900  0.88740  0.65492  Biso   1.000  C
  C41      1.0000 0.99470  0.88710  0.50610  Biso   1.000  C
  C42      1.0000 0.96250  0.81770  0.47860  Biso   1.000  C
  C43      1.0000 0.90390  0.81750  0.43818  Biso   1.000  C
  C44      1.0000 0.86980  0.88840  0.41470  Biso   1.000  C
  C45      1.0000 0.13130  0.81800  0.68474  Biso   1.000  C
  C46      1.0000 0.12530  0.81830  0.73702  Biso   1.000  C
  C47      1.0000 0.12370  0.89070  0.76623  Biso   1.000  C
  C48      1.0000 0.60380  0.89010  0.28158  Biso   1.000  C
  C49      1.0000 0.65660  0.81840  0.27423  Biso   1.000  C
  C50      1.0000 0.74810  0.81780  0.25884  Biso   1.000  C
  C51      1.0000 0.80690  0.88690  0.24902  Biso   1.000  C
  Zn10     1.0000 0.06416  0.02868  0.79596  Biso   1.000  Zn
  Zn11     1.0000 0.25417  0.96408  0.15801  Biso   1.000  Zn
  Zn12     1.0000 0.36657  0.04218  0.05590  Biso   1.000  Zn
  O49      1.0000 0.04260  0.00340  0.86591  Biso   1.000  O
  O50      1.0000 0.99120  0.11550  0.88575  Biso   1.000  O
  O51      1.0000 0.16560  0.00410  0.10332  Biso   1.000  O
  O52      1.0000 0.30420  0.06320  0.17558  Biso   1.000  O
  O53      1.0000 0.38220  0.11240  0.11113  Biso   1.000  O
  O54      1.0000 0.24120  0.02470  0.03289  Biso   1.000  O
  O55      1.0000 0.41930  0.09870  0.00163  Biso   1.000  O
  O56      1.0000 0.55780  0.08000  0.03420  Biso   1.000  O
  O57      1.0000 0.58270  0.05290  0.92247  Biso   1.000  O
  O58      1.0000 0.70080  0.11520  0.88807  Biso   1.000  O
  O59      1.0000 0.44630  0.06651  0.25874  Biso   1.000  O
  O60      1.0000 0.31340  0.09620  0.29574  Biso   1.000  O
  O61      1.0000 0.98060  0.10935  0.76978  Biso   1.000  O
  O62      1.0000 0.85560  0.05225  0.79829  Biso   1.000  O
  O63      1.0000 0.66050  0.07750  0.78480  Biso   1.000  O
  O64      1.0000 0.67430  0.09790  0.70434  Biso   1.000  O
  C52      1.0000 0.00950  0.04930  0.89590  Biso   1.000  C
  C53      1.0000 0.00130  0.02280  0.94960  Biso   1.000  C
  C54      1.0000 0.07930  0.02510  0.97869  Biso   1.000  C
  H4       1.0000 0.13460  0.04090  0.96410  Biso   1.000  H
  C55      1.0000 0.08040  0.00500  0.02895  Biso   1.000  C
  C56      1.0000 0.16900  0.01200  0.05762  Biso   1.000  C
  C57      1.0000 0.35100  0.11260  0.15492  Biso   1.000  C
  C58      1.0000 0.50530  0.11290  0.00610  Biso   1.000  C
  C59      1.0000 0.53750  0.18230  0.97860  Biso   1.000  C
  C60      1.0000 0.59610  0.18250  0.93818  Biso   1.000  C
  C61      1.0000 0.63020  0.11160  0.91470  Biso   1.000  C
  C62      1.0000 0.36870  0.18200  0.18474  Biso   1.000  C
  C63      1.0000 0.37470  0.18170  0.23702  Biso   1.000  C
  C64      1.0000 0.37630  0.10930  0.26623  Biso   1.000  C
  C65      1.0000 0.89620  0.10990  0.78158  Biso   1.000  C
  C66      1.0000 0.84340  0.18160  0.77423  Biso   1.000  C
  C67      1.0000 0.75190  0.18220  0.75884  Biso   1.000  C
  C68      1.0000 0.69310  0.11310  0.74902  Biso   1.000  C
  Zn13     1.0000 0.43584  0.52868  0.29596  Biso   1.000  Zn
  Zn14     1.0000 0.24583  0.46408  0.65801  Biso   1.000  Zn
  Zn15     1.0000 0.13343  0.54218  0.55590  Biso   1.000  Zn
  O65      1.0000 0.45740  0.50340  0.36591  Biso   1.000  O
  O66      1.0000 0.50880  0.61550  0.38575  Biso   1.000  O
  O67      1.0000 0.33440  0.50410  0.60332  Biso   1.000  O
  O68      1.0000 0.19580  0.56320  0.67558  Biso   1.000  O
  O69      1.0000 0.11780  0.61240  0.61113  Biso   1.000  O
  O70      1.0000 0.25880  0.52470  0.53289  Biso   1.000  O
  O71      1.0000 0.08070  0.59870  0.50163  Biso   1.000  O
  O72      1.0000 0.94220  0.58000  0.53420  Biso   1.000  O
  O73      1.0000 0.91730  0.55290  0.42247  Biso   1.000  O
  O74      1.0000 0.79920  0.61520  0.38807  Biso   1.000  O
  O75      1.0000 0.05370  0.56651  0.75874  Biso   1.000  O
  O76      1.0000 0.18660  0.59620  0.79574  Biso   1.000  O
  O77      1.0000 0.51940  0.60935  0.26978  Biso   1.000  O
  O78      1.0000 0.64440  0.55225  0.29829  Biso   1.000  O
  O79      1.0000 0.83950  0.57750  0.28480  Biso   1.000  O
  O80      1.0000 0.82570  0.59790  0.20434  Biso   1.000  O
  C69      1.0000 0.49050  0.54930  0.39590  Biso   1.000  C
  C70      1.0000 0.49870  0.52280  0.44960  Biso   1.000  C
  C71      1.0000 0.42070  0.52510  0.47869  Biso   1.000  C
  H5       1.0000 0.36540  0.54090  0.46410  Biso   1.000  H
  C72      1.0000 0.41960  0.50500  0.52895  Biso   1.000  C
  C73      1.0000 0.33100  0.51200  0.55762  Biso   1.000  C
  C74      1.0000 0.14900  0.61260  0.65492  Biso   1.000  C
  C75      1.0000 0.99470  0.61290  0.50610  Biso   1.000  C
  C76      1.0000 0.96250  0.68230  0.47860  Biso   1.000  C
  C77      1.0000 0.90390  0.68250  0.43818  Biso   1.000  C
  C78      1.0000 0.86980  0.61160  0.41470  Biso   1.000  C
  C79      1.0000 0.13130  0.68200  0.68474  Biso   1.000  C
  C80      1.0000 0.12530  0.68170  0.73702  Biso   1.000  C
  C81      1.0000 0.12370  0.60930  0.76623  Biso   1.000  C
  C82      1.0000 0.60380  0.60990  0.28158  Biso   1.000  C
  C83      1.0000 0.65660  0.68160  0.27423  Biso   1.000  C
  C84      1.0000 0.74810  0.68220  0.25884  Biso   1.000  C
  C85      1.0000 0.80690  0.61310  0.24902  Biso   1.000  C
  Zn16     1.0000 0.06416  0.47132  0.79596  Biso   1.000  Zn
  Zn17     1.0000 0.25417  0.53592  0.15801  Biso   1.000  Zn
  Zn18     1.0000 0.36657  0.45782  0.05590  Biso   1.000  Zn
  O81      1.0000 0.04260  0.49660  0.86591  Biso   1.000  O
  O82      1.0000 0.99120  0.38450  0.88575  Biso   1.000  O
  O83      1.0000 0.16560  0.49590  0.10332  Biso   1.000  O
  O84      1.0000 0.30420  0.43680  0.17558  Biso   1.000  O
  O85      1.0000 0.38220  0.38760  0.11113  Biso   1.000  O
  O86      1.0000 0.24120  0.47530  0.03289  Biso   1.000  O
  O87      1.0000 0.41930  0.40130  0.00163  Biso   1.000  O
  O88      1.0000 0.55780  0.42000  0.03420  Biso   1.000  O
  O89      1.0000 0.58270  0.44710  0.92247  Biso   1.000  O
  O90      1.0000 0.70080  0.38480  0.88807  Biso   1.000  O
  O91      1.0000 0.44630  0.43349  0.25874  Biso   1.000  O
  O92      1.0000 0.31340  0.40380  0.29574  Biso   1.000  O
  O93      1.0000 0.98060  0.39065  0.76978  Biso   1.000  O
  O94      1.0000 0.85560  0.44775  0.79829  Biso   1.000  O
  O95      1.0000 0.66050  0.42250  0.78480  Biso   1.000  O
  O96      1.0000 0.67430  0.40210  0.70434  Biso   1.000  O
  C86      1.0000 0.00950  0.45070  0.89590  Biso   1.000  C
  C87      1.0000 0.00130  0.47720  0.94960  Biso   1.000  C
  C88      1.0000 0.07930  0.47490  0.97869  Biso   1.000  C
  H6       1.0000 0.13460  0.45910  0.96410  Biso   1.000  H
  C89      1.0000 0.08040  0.49500  0.02895  Biso   1.000  C
  C90      1.0000 0.16900  0.48800  0.05762  Biso   1.000  C
  C91      1.0000 0.35100  0.38740  0.15492  Biso   1.000  C
  C92      1.0000 0.50530  0.38710  0.00610  Biso   1.000  C
  C93      1.0000 0.53750  0.31770  0.97860  Biso   1.000  C
  C94      1.0000 0.59610  0.31750  0.93818  Biso   1.000  C
  C95      1.0000 0.63020  0.38840  0.91470  Biso   1.000  C
  C96      1.0000 0.36870  0.31800  0.18474  Biso   1.000  C
  C97      1.0000 0.37470  0.31830  0.23702  Biso   1.000  C
  C98      1.0000 0.37630  0.39070  0.26623  Biso   1.000  C
  C99      1.0000 0.89620  0.39010  0.78158  Biso   1.000  C
  C100     1.0000 0.84340  0.31840  0.77423  Biso   1.000  C
  C101     1.0000 0.75190  0.31780  0.75884  Biso   1.000  C
  C102     1.0000 0.69310  0.38690  0.74902  Biso   1.000  C
  Zn19     1.0000 0.56416  0.02868  0.70404  Biso   1.000  Zn
  Zn20     1.0000 0.75417  0.96408  0.34199  Biso   1.000  Zn
  Zn21     1.0000 0.86657  0.04218  0.44410  Biso   1.000  Zn
  O97      1.0000 0.54260  0.00340  0.63409  Biso   1.000  O
  O98      1.0000 0.49120  0.11550  0.61425  Biso   1.000  O
  O99      1.0000 0.66560  0.00410  0.39668  Biso   1.000  O
  O100     1.0000 0.80420  0.06320  0.32442  Biso   1.000  O
  O101     1.0000 0.88220  0.11240  0.38887  Biso   1.000  O
  O102     1.0000 0.74120  0.02470  0.46711  Biso   1.000  O
  O103     1.0000 0.91930  0.09870  0.49837  Biso   1.000  O
  O104     1.0000 0.05780  0.08000  0.46580  Biso   1.000  O
  O105     1.0000 0.08270  0.05290  0.57753  Biso   1.000  O
  O106     1.0000 0.20080  0.11520  0.61193  Biso   1.000  O
  O107     1.0000 0.94630  0.06651  0.24126  Biso   1.000  O
  O108     1.0000 0.81340  0.09620  0.20426  Biso   1.000  O
  O109     1.0000 0.48060  0.10935  0.73022  Biso   1.000  O
  O110     1.0000 0.35560  0.05225  0.70171  Biso   1.000  O
  O111     1.0000 0.16050  0.07750  0.71520  Biso   1.000  O
  O112     1.0000 0.17430  0.09790  0.79566  Biso   1.000  O
  C103     1.0000 0.50950  0.04930  0.60410  Biso   1.000  C
  C104     1.0000 0.50130  0.02280  0.55040  Biso   1.000  C
  C105     1.0000 0.57930  0.02510  0.52131  Biso   1.000  C
  H7       1.0000 0.63460  0.04090  0.53590  Biso   1.000  H
  C106     1.0000 0.58040  0.00500  0.47105  Biso   1.000  C
  C107     1.0000 0.66900  0.01200  0.44238  Biso   1.000  C
  C108     1.0000 0.85100  0.11260  0.34508  Biso   1.000  C
  C109     1.0000 0.00530  0.11290  0.49390  Biso   1.000  C
  C110     1.0000 0.03750  0.18230  0.52140  Biso   1.000  C
  C111     1.0000 0.09610  0.18250  0.56182  Biso   1.000  C
  C112     1.0000 0.13020  0.11160  0.58530  Biso   1.000  C
  C113     1.0000 0.86870  0.18200  0.31526  Biso   1.000  C
  C114     1.0000 0.87470  0.18170  0.26298  Biso   1.000  C
  C115     1.0000 0.87630  0.10930  0.23377  Biso   1.000  C
  C116     1.0000 0.39620  0.10990  0.71842  Biso   1.000  C
  C117     1.0000 0.34340  0.18160  0.72577  Biso   1.000  C
  C118     1.0000 0.25190  0.18220  0.74116  Biso   1.000  C
  C119     1.0000 0.19310  0.11310  0.75098  Biso   1.000  C
  Zn22     1.0000 0.93584  0.97132  0.20404  Biso   1.000  Zn
  Zn23     1.0000 0.74583  0.03592  0.84199  Biso   1.000  Zn
  Zn24     1.0000 0.63343  0.95782  0.94410  Biso   1.000  Zn
  O113     1.0000 0.95740  0.99660  0.13409  Biso   1.000  O
  O114     1.0000 0.00880  0.88450  0.11425  Biso   1.000  O
  O115     1.0000 0.83440  0.99590  0.89668  Biso   1.000  O
  O116     1.0000 0.69580  0.93680  0.82442  Biso   1.000  O
  O117     1.0000 0.61780  0.88760  0.88887  Biso   1.000  O
  O118     1.0000 0.75880  0.97530  0.96711  Biso   1.000  O
  O119     1.0000 0.58070  0.90130  0.99837  Biso   1.000  O
  O120     1.0000 0.44220  0.92000  0.96580  Biso   1.000  O
  O121     1.0000 0.41730  0.94710  0.07753  Biso   1.000  O
  O122     1.0000 0.29920  0.88480  0.11193  Biso   1.000  O
  O123     1.0000 0.55370  0.93349  0.74126  Biso   1.000  O
  O124     1.0000 0.68660  0.90380  0.70426  Biso   1.000  O
  O125     1.0000 0.01940  0.89065  0.23022  Biso   1.000  O
  O126     1.0000 0.14440  0.94775  0.20171  Biso   1.000  O
  O127     1.0000 0.33950  0.92250  0.21520  Biso   1.000  O
  O128     1.0000 0.32570  0.90210  0.29566  Biso   1.000  O
  C120     1.0000 0.99050  0.95070  0.10410  Biso   1.000  C
  C121     1.0000 0.99870  0.97720  0.05040  Biso   1.000  C
  C122     1.0000 0.92070  0.97490  0.02131  Biso   1.000  C
  H8       1.0000 0.86540  0.95910  0.03590  Biso   1.000  H
  C123     1.0000 0.91960  0.99500  0.97105  Biso   1.000  C
  C124     1.0000 0.83100  0.98800  0.94238  Biso   1.000  C
  C125     1.0000 0.64900  0.88740  0.84508  Biso   1.000  C
  C126     1.0000 0.49470  0.88710  0.99390  Biso   1.000  C
  C127     1.0000 0.46250  0.81770  0.02140  Biso   1.000  C
  C128     1.0000 0.40390  0.81750  0.06182  Biso   1.000  C
  C129     1.0000 0.36980  0.88840  0.08530  Biso   1.000  C
  C130     1.0000 0.63130  0.81800  0.81526  Biso   1.000  C
  C131     1.0000 0.62530  0.81830  0.76298  Biso   1.000  C
  C132     1.0000 0.62370  0.89070  0.73377  Biso   1.000  C
  C133     1.0000 0.10380  0.89010  0.21842  Biso   1.000  C
  C134     1.0000 0.15660  0.81840  0.22577  Biso   1.000  C
  C135     1.0000 0.24810  0.81780  0.24116  Biso   1.000  C
  C136     1.0000 0.30690  0.88690  0.25098  Biso   1.000  C
  C137     1.0000 0.12550  0.25000  0.58210  Biso   1.000  C
  H9       1.0000 0.16520  0.25000  0.60960  Biso   1.000  H
  C138     1.0000 0.00870  0.25000  0.50110  Biso   1.000  C
  H10      1.0000 0.96940  0.25000  0.47350  Biso   1.000  H
  C139     1.0000 0.87950  0.25000  0.23740  Biso   1.000  C
  H11      1.0000 0.88590  0.25000  0.20280  Biso   1.000  H
  C140     1.0000 0.86690  0.25000  0.34020  Biso   1.000  C
  H12      1.0000 0.86440  0.25000  0.37500  Biso   1.000  H
  C141     1.0000 0.20700  0.25000  0.74990  Biso   1.000  C
  H13      1.0000 0.14620  0.25000  0.76180  Biso   1.000  H
  C142     1.0000 0.38980  0.25000  0.71970  Biso   1.000  C
  H14      1.0000 0.45260  0.25000  0.71140  Biso   1.000  H
  C143     1.0000 0.37450  0.75000  0.08210  Biso   1.000  C
  H15      1.0000 0.33480  0.75000  0.10960  Biso   1.000  H
  C144     1.0000 0.49130  0.75000  0.00110  Biso   1.000  C
  H16      1.0000 0.53060  0.75000  0.97350  Biso   1.000  H
  C145     1.0000 0.62050  0.75000  0.73740  Biso   1.000  C
  H17      1.0000 0.61410  0.75000  0.70280  Biso   1.000  H
  C146     1.0000 0.63310  0.75000  0.84020  Biso   1.000  C
  H18      1.0000 0.63560  0.75000  0.87500  Biso   1.000  H
  C147     1.0000 0.29300  0.75000  0.24990  Biso   1.000  C
  H19      1.0000 0.35380  0.75000  0.26180  Biso   1.000  H
  C148     1.0000 0.11020  0.75000  0.21970  Biso   1.000  C
  H20      1.0000 0.04740  0.75000  0.21140  Biso   1.000  H
  C149     1.0000 0.87450  0.75000  0.41790  Biso   1.000  C
  H21      1.0000 0.83480  0.75000  0.39040  Biso   1.000  H
  C150     1.0000 0.99130  0.75000  0.49890  Biso   1.000  C
  H22      1.0000 0.03060  0.75000  0.52650  Biso   1.000  H
  C151     1.0000 0.12050  0.75000  0.76260  Biso   1.000  C
  H23      1.0000 0.11410  0.75000  0.79720  Biso   1.000  H
  C152     1.0000 0.13310  0.75000  0.65980  Biso   1.000  C
  H24      1.0000 0.13560  0.75000  0.62500  Biso   1.000  H
  C153     1.0000 0.79300  0.75000  0.25010  Biso   1.000  C
  H25      1.0000 0.85380  0.75000  0.23820  Biso   1.000  H
  C154     1.0000 0.61020  0.75000  0.28030  Biso   1.000  C
  H26      1.0000 0.54740  0.75000  0.28860  Biso   1.000  H
  C155     1.0000 0.62550  0.25000  0.91790  Biso   1.000  C
  H27      1.0000 0.66520  0.25000  0.89040  Biso   1.000  H
  C156     1.0000 0.50870  0.25000  0.99890  Biso   1.000  C
  H28      1.0000 0.46940  0.25000  0.02650  Biso   1.000  H
  C157     1.0000 0.37950  0.25000  0.26260  Biso   1.000  C
  H29      1.0000 0.38590  0.25000  0.29720  Biso   1.000  H
  C158     1.0000 0.36690  0.25000  0.15980  Biso   1.000  C
  H30      1.0000 0.36440  0.25000  0.12500  Biso   1.000  H
  C159     1.0000 0.70700  0.25000  0.75010  Biso   1.000  C
  H31      1.0000 0.64620  0.25000  0.73820  Biso   1.000  H
  C160     1.0000 0.88980  0.25000  0.78030  Biso   1.000  C
  H32      1.0000 0.95260  0.25000  0.78860  Biso   1.000  H
