data_NATHOH_ion_b
_audit_creation_date              2014-07-02
_audit_creation_method            'Materials Studio'
_symmetry_space_group_name_H-M    'P1'
_symmetry_Int_Tables_number       1
_symmetry_cell_setting            triclinic
loop_
_symmetry_equiv_pos_as_xyz
  x,y,z
_cell_length_a                    17.0497
_cell_length_b                    17.0497
_cell_length_c                    24.9080
_cell_angle_alpha                 120.0714
_cell_angle_beta                  120.0714
_cell_angle_gamma                 50.5976
loop_
_atom_site_label
_atom_site_type_symbol
_atom_site_fract_x
_atom_site_fract_y
_atom_site_fract_z
_atom_site_U_iso_or_equiv
_atom_site_adp_type
_atom_site_occupancy
O1     O     0.53154   0.19274   0.14680   0.00000  Uiso   1.00
O2     O     0.69492   0.07652   0.10970   0.00000  Uiso   1.00
O3     O     0.44680   0.49000   0.17450   0.00000  Uiso   1.00
O4     O     0.53593   0.22413   0.06140   0.00000  Uiso   1.00
O6     O     0.39062   0.16822   0.02920   0.00000  Uiso   1.00
O8     O     0.60028   0.97988   0.09770   0.00000  Uiso   1.00
O10    O     0.60042   0.01662   0.98000   0.00000  Uiso   1.00
O12    O     0.77290   0.87530   0.05290   0.00000  Uiso   1.00
O14    O     0.72169   0.11149   0.02130   0.00000  Uiso   1.00
O15    O     0.42129   0.19249   0.94010   0.00000  Uiso   1.00
O17    O     0.35250   0.37870   0.10650   0.00000  Uiso   1.00
O19    O     0.41654   0.13514   0.13870   0.00000  Uiso   1.00
O21    O     0.71470   0.05930   0.22340   0.00000  Uiso   1.00
O23    O     0.79990   0.83530   0.16140   0.00000  Uiso   1.00
O24    O     0.80020   0.89060   0.95530   0.00000  Uiso   1.00
O25    O     0.59560   0.07640   0.88980   0.00000  Uiso   1.00
O26    O     0.22860   0.34100   0.97510   0.00000  Uiso   1.00
O27    O     0.22600   0.30940   0.09250   0.00000  Uiso   1.00
O28    O     0.59310   0.98490   0.21150   0.00000  Uiso   1.00
O29    O     0.37190   0.34170   0.20820   0.00000  Uiso   1.00
O30    O     0.53250   0.19730   0.26100   0.00000  Uiso   1.00
O31    O     0.42430   0.37430   0.32580   0.00000  Uiso   1.00
O32    O     0.53970   0.35070   0.27710   0.00000  Uiso   1.00
O33    O     0.64500   0.26360   0.17840   0.00000  Uiso   1.00
O34    O     0.88770   0.93810   0.17530   0.00000  Uiso   1.00
O35    O     0.89070   0.96270   0.08450   0.00000  Uiso   1.00
O36    O     0.04960   0.91260   0.17580   0.00000  Uiso   1.00
O37    O     0.37342   0.39902   0.01300   0.00000  Uiso   1.00
O38    O     0.41360   0.46160   0.96360   0.00000  Uiso   1.00
O39    O     0.53979   0.27859   0.97570   0.00000  Uiso   1.00
O40    O     0.52243   0.43483   0.07360   0.00000  Uiso   1.00
O41    O     0.89520   0.09340   0.19450   0.00000  Uiso   1.00
P42    P     0.60321   0.19223   0.12555   0.00000  Uiso   1.00
P43    P     0.46291   0.39241   0.00625   0.00000  Uiso   1.00
P44    P     0.46913   0.31755   0.26889   0.00000  Uiso   1.00
P45    P     0.93071   0.97691   0.15769   0.00000  Uiso   1.00
Mo46   Mo    0.35405   0.26769   0.11144   0.00000  Uiso   1.00
Mo47   Mo    0.57973   0.06705   0.18489   0.00000  Uiso   1.00
Mo48   Mo    0.35602   0.29486   0.01822   0.00000  Uiso   1.00
Mo49   Mo    0.58378   0.13044   0.96514   0.00000  Uiso   1.00
Mo50   Mo    0.74899   0.98077   0.01788   0.00000  Uiso   1.00
Mo51   Mo    0.74723   0.94621   0.14469   0.00000  Uiso   1.00
N52    N     0.31700   0.62060   0.40130   0.00000  Uiso   1.00
N53    N     0.16030   0.75250   0.38030   0.00000  Uiso   1.00
H54    H     0.09300   0.79200   0.37430   0.00000  Uiso   1.00
N55    N     0.28140   0.84020   0.27090   0.00000  Uiso   1.00
N56    N     0.44660   0.77580   0.28400   0.00000  Uiso   1.00
H57    H     0.51200   0.72980   0.28520   0.00000  Uiso   1.00
C58    C     0.21460   0.64420   0.37200   0.00000  Uiso   1.00
H59    H     0.18790   0.59950   0.35180   0.00000  Uiso   1.00
C60    C     0.32370   0.70130   0.41060   0.00000  Uiso   1.00
H61    H     0.38650   0.69870   0.42310   0.00000  Uiso   1.00
C62    C     0.22190   0.79050   0.39860   0.00000  Uiso   1.00
H63    H     0.20270   0.85730   0.40230   0.00000  Uiso   1.00
C64    C     0.36930   0.75690   0.26200   0.00000  Uiso   1.00
H65    H     0.37860   0.68960   0.24200   0.00000  Uiso   1.00
C66    C     0.29460   0.92400   0.29510   0.00000  Uiso   1.00
H67    H     0.24250   0.99490   0.30380   0.00000  Uiso   1.00
C68    C     0.40020   0.88440   0.30440   0.00000  Uiso   1.00
H69    H     0.43250   0.92290   0.32080   0.00000  Uiso   1.00
Na70   Na    0.72543   0.21023   0.29401   0.00000  Uiso   1.00
Zn71   Zn    0.43896   0.47748   0.40729   0.00000  Uiso   1.00
O72    O     0.80726   0.46846   0.35320   0.00000  Uiso   1.00
O73    O     0.92348   0.30508   0.39030   0.00000  Uiso   1.00
O74    O     0.51000   0.55320   0.32550   0.00000  Uiso   1.00
O75    O     0.77587   0.46407   0.43860   0.00000  Uiso   1.00
O77    O     0.83178   0.60938   0.47080   0.00000  Uiso   1.00
O79    O     0.02012   0.39972   0.40230   0.00000  Uiso   1.00
O81    O     0.98338   0.39958   0.52000   0.00000  Uiso   1.00
O83    O     0.12470   0.22710   0.44710   0.00000  Uiso   1.00
O85    O     0.88851   0.27831   0.47870   0.00000  Uiso   1.00
O86    O     0.80751   0.57871   0.55990   0.00000  Uiso   1.00
O88    O     0.62130   0.64750   0.39350   0.00000  Uiso   1.00
O90    O     0.86486   0.58346   0.36130   0.00000  Uiso   1.00
O92    O     0.94070   0.28530   0.27660   0.00000  Uiso   1.00
O94    O     0.16470   0.20010   0.33860   0.00000  Uiso   1.00
O95    O     0.10940   0.19980   0.54470   0.00000  Uiso   1.00
O96    O     0.92360   0.40440   0.61020   0.00000  Uiso   1.00
O97    O     0.65900   0.77140   0.52490   0.00000  Uiso   1.00
O98    O     0.69060   0.77400   0.40750   0.00000  Uiso   1.00
O99    O     0.01510   0.40690   0.28850   0.00000  Uiso   1.00
O100   O     0.65830   0.62810   0.29180   0.00000  Uiso   1.00
O101   O     0.80270   0.46750   0.23900   0.00000  Uiso   1.00
O102   O     0.62570   0.57570   0.17420   0.00000  Uiso   1.00
O103   O     0.64930   0.46030   0.22290   0.00000  Uiso   1.00
O104   O     0.73640   0.35500   0.32160   0.00000  Uiso   1.00
O105   O     0.06190   0.11230   0.32470   0.00000  Uiso   1.00
O106   O     0.03730   0.10930   0.41550   0.00000  Uiso   1.00
O107   O     0.08740   0.95040   0.32420   0.00000  Uiso   1.00
O108   O     0.60098   0.62658   0.48700   0.00000  Uiso   1.00
O109   O     0.53840   0.58640   0.53640   0.00000  Uiso   1.00
O110   O     0.72141   0.46021   0.52430   0.00000  Uiso   1.00
O111   O     0.56517   0.47757   0.42640   0.00000  Uiso   1.00
O112   O     0.90660   0.10480   0.30550   0.00000  Uiso   1.00
P113   P     0.80777   0.39679   0.37445   0.00000  Uiso   1.00
P114   P     0.60759   0.53709   0.49375   0.00000  Uiso   1.00
P115   P     0.68245   0.53087   0.23111   0.00000  Uiso   1.00
P116   P     0.02309   0.06929   0.34231   0.00000  Uiso   1.00
Mo117  Mo    0.73231   0.64595   0.38856   0.00000  Uiso   1.00
Mo118  Mo    0.93295   0.42027   0.31511   0.00000  Uiso   1.00
Mo119  Mo    0.70514   0.64398   0.48178   0.00000  Uiso   1.00
Mo120  Mo    0.86956   0.41622   0.53486   0.00000  Uiso   1.00
Mo121  Mo    0.01923   0.25101   0.48212   0.00000  Uiso   1.00
Mo122  Mo    0.05379   0.25277   0.35531   0.00000  Uiso   1.00
N123   N     0.37940   0.68300   0.09870   0.00000  Uiso   1.00
N124   N     0.24750   0.83970   0.11970   0.00000  Uiso   1.00
H125   H     0.20800   0.90700   0.12570   0.00000  Uiso   1.00
N126   N     0.15980   0.71860   0.22910   0.00000  Uiso   1.00
N127   N     0.22420   0.55340   0.21600   0.00000  Uiso   1.00
H128   H     0.27020   0.48800   0.21480   0.00000  Uiso   1.00
C129   C     0.35580   0.78540   0.12800   0.00000  Uiso   1.00
H130   H     0.40050   0.81210   0.14820   0.00000  Uiso   1.00
C131   C     0.29870   0.67630   0.08940   0.00000  Uiso   1.00
H132   H     0.30130   0.61350   0.07690   0.00000  Uiso   1.00
C133   C     0.20950   0.77810   0.10140   0.00000  Uiso   1.00
H134   H     0.14270   0.79730   0.09770   0.00000  Uiso   1.00
C135   C     0.24310   0.63070   0.23800   0.00000  Uiso   1.00
H136   H     0.31040   0.62140   0.25800   0.00000  Uiso   1.00
C137   C     0.07600   0.70540   0.20490   0.00000  Uiso   1.00
H138   H     0.00510   0.75750   0.19620   0.00000  Uiso   1.00
C139   C     0.11560   0.59980   0.19560   0.00000  Uiso   1.00
H140   H     0.07710   0.56750   0.17920   0.00000  Uiso   1.00
Na141  Na    0.78977   0.27457   0.20599   0.00000  Uiso   1.00
Zn142  Zn    0.52252   0.56104   0.09271   0.00000  Uiso   1.00
O143   O     0.46846   0.80726   0.85320   0.00000  Uiso   1.00
O144   O     0.30508   0.92348   0.89030   0.00000  Uiso   1.00
O145   O     0.55320   0.51000   0.82550   0.00000  Uiso   1.00
O146   O     0.46407   0.77587   0.93860   0.00000  Uiso   1.00
O148   O     0.60938   0.83178   0.97080   0.00000  Uiso   1.00
O150   O     0.39972   0.02012   0.90230   0.00000  Uiso   1.00
O152   O     0.39958   0.98338   0.02000   0.00000  Uiso   1.00
O154   O     0.22710   0.12470   0.94710   0.00000  Uiso   1.00
O156   O     0.27831   0.88851   0.97870   0.00000  Uiso   1.00
O157   O     0.57871   0.80751   0.05990   0.00000  Uiso   1.00
O159   O     0.64750   0.62130   0.89350   0.00000  Uiso   1.00
O161   O     0.58346   0.86486   0.86130   0.00000  Uiso   1.00
O163   O     0.28530   0.94070   0.77660   0.00000  Uiso   1.00
O165   O     0.20010   0.16470   0.83860   0.00000  Uiso   1.00
O166   O     0.19980   0.10940   0.04470   0.00000  Uiso   1.00
O167   O     0.40440   0.92360   0.11020   0.00000  Uiso   1.00
O168   O     0.77140   0.65900   0.02490   0.00000  Uiso   1.00
O169   O     0.77400   0.69060   0.90750   0.00000  Uiso   1.00
O170   O     0.40690   0.01510   0.78850   0.00000  Uiso   1.00
O171   O     0.62810   0.65830   0.79180   0.00000  Uiso   1.00
O172   O     0.46750   0.80270   0.73900   0.00000  Uiso   1.00
O173   O     0.57570   0.62570   0.67420   0.00000  Uiso   1.00
O174   O     0.46030   0.64930   0.72290   0.00000  Uiso   1.00
O175   O     0.35500   0.73640   0.82160   0.00000  Uiso   1.00
O176   O     0.11230   0.06190   0.82470   0.00000  Uiso   1.00
O177   O     0.10930   0.03730   0.91550   0.00000  Uiso   1.00
O178   O     0.95040   0.08740   0.82420   0.00000  Uiso   1.00
O179   O     0.62658   0.60098   0.98700   0.00000  Uiso   1.00
O180   O     0.58640   0.53840   0.03640   0.00000  Uiso   1.00
O181   O     0.46021   0.72141   0.02430   0.00000  Uiso   1.00
O182   O     0.47757   0.56517   0.92640   0.00000  Uiso   1.00
O183   O     0.10480   0.90660   0.80550   0.00000  Uiso   1.00
P184   P     0.39679   0.80777   0.87445   0.00000  Uiso   1.00
P185   P     0.53709   0.60759   0.99375   0.00000  Uiso   1.00
P186   P     0.53087   0.68245   0.73111   0.00000  Uiso   1.00
P187   P     0.06929   0.02309   0.84231   0.00000  Uiso   1.00
Mo188  Mo    0.64595   0.73231   0.88856   0.00000  Uiso   1.00
Mo189  Mo    0.42027   0.93295   0.81511   0.00000  Uiso   1.00
Mo190  Mo    0.64398   0.70514   0.98178   0.00000  Uiso   1.00
Mo191  Mo    0.41622   0.86956   0.03486   0.00000  Uiso   1.00
Mo192  Mo    0.25101   0.01923   0.98212   0.00000  Uiso   1.00
Mo193  Mo    0.25277   0.05379   0.85531   0.00000  Uiso   1.00
N194   N     0.68300   0.37940   0.59870   0.00000  Uiso   1.00
N195   N     0.83970   0.24750   0.61970   0.00000  Uiso   1.00
H196   H     0.90700   0.20800   0.62570   0.00000  Uiso   1.00
N197   N     0.71860   0.15980   0.72910   0.00000  Uiso   1.00
N198   N     0.55340   0.22420   0.71600   0.00000  Uiso   1.00
H199   H     0.48800   0.27020   0.71480   0.00000  Uiso   1.00
C200   C     0.78540   0.35580   0.62800   0.00000  Uiso   1.00
H201   H     0.81210   0.40050   0.64820   0.00000  Uiso   1.00
C202   C     0.67630   0.29870   0.58940   0.00000  Uiso   1.00
H203   H     0.61350   0.30130   0.57690   0.00000  Uiso   1.00
C204   C     0.77810   0.20950   0.60140   0.00000  Uiso   1.00
H205   H     0.79730   0.14270   0.59770   0.00000  Uiso   1.00
C206   C     0.63070   0.24310   0.73800   0.00000  Uiso   1.00
H207   H     0.62140   0.31040   0.75800   0.00000  Uiso   1.00
C208   C     0.70540   0.07600   0.70490   0.00000  Uiso   1.00
H209   H     0.75750   0.00510   0.69620   0.00000  Uiso   1.00
C210   C     0.59980   0.11560   0.69560   0.00000  Uiso   1.00
H211   H     0.56750   0.07710   0.67920   0.00000  Uiso   1.00
Na212  Na    0.27457   0.78977   0.70599   0.00000  Uiso   1.00
Zn213  Zn    0.56104   0.52252   0.59271   0.00000  Uiso   1.00
O214   O     0.19274   0.53154   0.64680   0.00000  Uiso   1.00
O215   O     0.07652   0.69492   0.60970   0.00000  Uiso   1.00
O216   O     0.49000   0.44680   0.67450   0.00000  Uiso   1.00
O217   O     0.22413   0.53593   0.56140   0.00000  Uiso   1.00
O219   O     0.16822   0.39062   0.52920   0.00000  Uiso   1.00
O221   O     0.97988   0.60028   0.59770   0.00000  Uiso   1.00
O223   O     0.01662   0.60042   0.48000   0.00000  Uiso   1.00
O225   O     0.87530   0.77290   0.55290   0.00000  Uiso   1.00
O227   O     0.11149   0.72169   0.52130   0.00000  Uiso   1.00
O228   O     0.19249   0.42129   0.44010   0.00000  Uiso   1.00
O230   O     0.37870   0.35250   0.60650   0.00000  Uiso   1.00
O232   O     0.13514   0.41654   0.63870   0.00000  Uiso   1.00
O234   O     0.05930   0.71470   0.72340   0.00000  Uiso   1.00
O236   O     0.83530   0.79990   0.66140   0.00000  Uiso   1.00
O237   O     0.89060   0.80020   0.45530   0.00000  Uiso   1.00
O238   O     0.07640   0.59560   0.38980   0.00000  Uiso   1.00
O239   O     0.34100   0.22860   0.47510   0.00000  Uiso   1.00
O240   O     0.30940   0.22600   0.59250   0.00000  Uiso   1.00
O241   O     0.98490   0.59310   0.71150   0.00000  Uiso   1.00
O242   O     0.34170   0.37190   0.70820   0.00000  Uiso   1.00
O243   O     0.19730   0.53250   0.76100   0.00000  Uiso   1.00
O244   O     0.37430   0.42430   0.82580   0.00000  Uiso   1.00
O245   O     0.35070   0.53970   0.77710   0.00000  Uiso   1.00
O246   O     0.26360   0.64500   0.67840   0.00000  Uiso   1.00
O247   O     0.93810   0.88770   0.67530   0.00000  Uiso   1.00
O248   O     0.96270   0.89070   0.58450   0.00000  Uiso   1.00
O249   O     0.91260   0.04960   0.67580   0.00000  Uiso   1.00
O250   O     0.39902   0.37342   0.51300   0.00000  Uiso   1.00
O251   O     0.46160   0.41360   0.46360   0.00000  Uiso   1.00
O252   O     0.27859   0.53979   0.47570   0.00000  Uiso   1.00
O253   O     0.43483   0.52243   0.57360   0.00000  Uiso   1.00
O254   O     0.09340   0.89520   0.69450   0.00000  Uiso   1.00
P255   P     0.19223   0.60321   0.62555   0.00000  Uiso   1.00
P256   P     0.39241   0.46291   0.50625   0.00000  Uiso   1.00
P257   P     0.31755   0.46913   0.76889   0.00000  Uiso   1.00
P258   P     0.97691   0.93071   0.65769   0.00000  Uiso   1.00
Mo259  Mo    0.26769   0.35405   0.61144   0.00000  Uiso   1.00
Mo260  Mo    0.06705   0.57973   0.68489   0.00000  Uiso   1.00
Mo261  Mo    0.29486   0.35602   0.51822   0.00000  Uiso   1.00
Mo262  Mo    0.13044   0.58378   0.46514   0.00000  Uiso   1.00
Mo263  Mo    0.98077   0.74899   0.51788   0.00000  Uiso   1.00
Mo264  Mo    0.94621   0.74723   0.64469   0.00000  Uiso   1.00
N265   N     0.62060   0.31700   0.90130   0.00000  Uiso   1.00
N266   N     0.75250   0.16030   0.88030   0.00000  Uiso   1.00
H267   H     0.79200   0.09300   0.87430   0.00000  Uiso   1.00
N268   N     0.84020   0.28140   0.77090   0.00000  Uiso   1.00
N269   N     0.77580   0.44660   0.78400   0.00000  Uiso   1.00
H270   H     0.72980   0.51200   0.78520   0.00000  Uiso   1.00
C271   C     0.64420   0.21460   0.87200   0.00000  Uiso   1.00
H272   H     0.59950   0.18790   0.85180   0.00000  Uiso   1.00
C273   C     0.70130   0.32370   0.91060   0.00000  Uiso   1.00
H274   H     0.69870   0.38650   0.92310   0.00000  Uiso   1.00
C275   C     0.79050   0.22190   0.89860   0.00000  Uiso   1.00
H276   H     0.85730   0.20270   0.90230   0.00000  Uiso   1.00
C277   C     0.75690   0.36930   0.76200   0.00000  Uiso   1.00
H278   H     0.68960   0.37860   0.74200   0.00000  Uiso   1.00
C279   C     0.92400   0.29460   0.79510   0.00000  Uiso   1.00
H280   H     0.99490   0.24250   0.80380   0.00000  Uiso   1.00
C281   C     0.88440   0.40020   0.80440   0.00000  Uiso   1.00
H282   H     0.92290   0.43250   0.82080   0.00000  Uiso   1.00
Na283  Na    0.21023   0.72543   0.79401   0.00000  Uiso   1.00
Zn284  Zn    0.47748   0.43896   0.90729   0.00000  Uiso   1.00
Mn285  Mn    0.50000  -0.00000   0.00000   0.00000  Uiso   1.00
Mn286  Mn    0.00000   0.50000   0.50000   0.00000  Uiso   1.00
Mn287  Mn    0.58248   0.41752   0.25000   0.00000  Uiso   1.00
Zn288  Zn    0.14334   0.85666   0.25000   0.00000  Uiso   1.00
Mn289  Mn    0.41752   0.58248   0.75000   0.00000  Uiso   1.00
Zn290  Zn    0.85666   0.14334   0.75000   0.00000  Uiso   1.00
loop_
_geom_bond_atom_site_label_1
_geom_bond_atom_site_label_2
_geom_bond_distance
_geom_bond_site_symmetry_2
_ccdc_geom_bond_type
O1     P42     1.550   .     S
O1     Mo46    2.261   .     S
O1     Mo47    2.278   .     S
O2     P42     1.554   .     S
O2     Mo50    2.282   1_545 S
O2     Mo51    2.267   1_545 S
O3     Mn287   2.181   .     S
O4     P42     1.551   .     S
O4     Mo48    2.306   .     S
O4     Mo49    2.331   1_554 S
O6     Mo46    1.979   .     S
O6     Mo48    1.974   .     S
O6     Mn285   2.171   .     S
O8     Mo51    1.971   .     S
O8     Mo47    1.979   1_565 S
O8     Mn285   2.210   1_565 S
O10    Mo49    1.975   .     S
O10    Mo50    1.974   1_546 S
O10    Mn285   2.207   1_556 S
O12    Mo50    2.108   .     S
O12    Mo51    2.107   .     S
O14    Mo49    1.945   1_554 S
O14    Mo50    1.930   1_545 S
O15    Mo49    2.096   .     S
O15    Mo48    2.091   1_556 S
O17    Mo46    1.940   .     S
O17    Mo48    1.938   .     S
O19    Mo46    2.112   .     S
O19    Mo47    2.108   .     S
O21    Mo47    1.940   .     S
O21    Mo51    1.953   1_545 S
O23    Mo51    1.677   .     S
O24    Mo50    1.677   1_556 S
O25    Mo49    1.680   .     S
O26    Mo48    1.682   1_556 S
O27    Mo46    1.682   .     S
O28    Mo47    1.681   1_565 S
O29    P44     1.565   .     D
O29    Mo46    2.049   .     S
O30    P44     1.551   .     S
O30    Mo47    2.053   .     S
O31    P44     1.517   .     S
O31    Zn71    1.936   .     S
O32    P44     1.520   .     S
O32    Mn287   2.146   .     S
O33    P42     1.509   .     D
O33    Mn287   2.206   .     S
O34    P45     1.548   .     S
O34    Mo51    2.047   .     S
O35    P45     1.539   .     S
O35    Mo50    2.058   .     S
O36    Zn288   1.937   .     S
O36    P45     1.507   1_455 S
O37    P43     1.546   .     S
O37    Mo48    2.049   .     S
O38    Zn284   1.938   .     S
O38    P43     1.526   1_556 S
O39    Mo49    2.034   .     S
O39    P43     1.534   1_556 S
O40    P43     1.542   .     S
O40    Zn142   1.958   .     S
O41    P45     1.535   1_545 S
P43    O38     1.526   1_554 S
P43    O39     1.534   1_554 S
P45    O36     1.507   1_655 S
P45    O41     1.535   1_565 S
Mo46   Mo48    2.604   .     S
Mo47   O8      1.979   1_545 S
Mo47   O28     1.681   1_545 S
Mo47   Mo51    2.595   1_545 S
Mo48   O15     2.091   1_554 S
Mo48   O26     1.682   1_554 S
Mo49   O4      2.331   1_556 S
Mo49   O14     1.945   1_556 S
Mo49   Mo50    2.588   1_546 S
Mo50   O2      2.282   1_565 S
Mo50   O10     1.974   1_564 S
Mo50   O14     1.930   1_565 S
Mo50   O24     1.677   1_554 S
Mo50   Mo49    2.588   1_564 S
Mo51   O2      2.267   1_565 S
Mo51   O21     1.953   1_565 S
Mo51   Mo47    2.595   1_565 S
N52    C58     1.367   .     D
N52    C60     1.347   .     S
N52    Zn71    1.978   .     S
N53    H54     0.861   .     S
N53    C58     1.396   .     S
N53    C62     1.349   .     S
N55    C64     1.276   .     D
N55    C66     1.365   .     S
N55    Zn288   1.993   .     S
N56    H57     0.860   .     S
N56    C64     1.334   .     S
N56    C68     1.383   .     S
C58    H59     0.932   .     S
C60    H61     0.930   .     S
C60    C62     1.414   .     D
C62    H63     0.930   .     S
C64    H65     0.930   .     S
C66    H67     0.930   .     S
C66    C68     1.395   .     D
C68    H69     0.930   .     S
Zn71   O111    1.958   .     S
Zn71   O251    1.938   .     S
O72    P113    1.550   .     S
O72    Mo117   2.261   .     S
O72    Mo118   2.278   .     S
O73    P113    1.554   .     S
O73    Mo121   2.282   1_655 S
O73    Mo122   2.267   1_655 S
O74    Mn287   2.181   .     S
O75    P113    1.551   .     S
O75    Mo119   2.306   .     S
O75    Mo120   2.331   .     S
O77    Mo117   1.979   .     S
O77    Mo119   1.974   .     S
O77    Mn286   2.171   1_655 S
O79    Mo122   1.971   .     S
O79    Mn286   2.210   .     S
O79    Mo118   1.979   1_455 S
O81    Mo120   1.975   .     S
O81    Mo121   1.974   1_655 S
O81    Mn286   2.207   1_655 S
O83    Mo121   2.108   .     S
O83    Mo122   2.107   .     S
O85    Mo120   1.945   .     S
O85    Mo121   1.930   1_655 S
O86    Mo119   2.091   .     S
O86    Mo120   2.096   .     S
O88    Mo117   1.940   .     S
O88    Mo119   1.938   .     S
O90    Mo117   2.112   .     S
O90    Mo118   2.108   .     S
O92    Mo118   1.940   .     S
O92    Mo122   1.953   1_655 D
O94    Mo122   1.677   .     S
O95    Mo121   1.677   .     S
O96    Mo120   1.680   .     S
O97    Mo119   1.682   .     S
O98    Mo117   1.682   .     S
O99    Mo118   1.681   1_455 S
O100   P115    1.565   .     D
O100   Mo117   2.049   .     S
O101   P115    1.551   .     S
O101   Mo118   2.053   .     S
O102   P115    1.517   .     S
O102   Zn142   1.936   .     S
O103   P115    1.520   .     S
O103   Mn287   2.146   .     S
O104   P113    1.509   .     D
O104   Mn287   2.206   .     S
O105   P116    1.548   .     S
O105   Mo122   2.047   .     S
O106   P116    1.539   .     S
O106   Mo121   2.058   .     S
O107   Zn288   1.937   .     S
O107   P116    1.507   1_565 S
O108   P114    1.546   .     D
O108   Mo119   2.049   .     S
O109   P114    1.526   .     S
O109   Zn213   1.938   .     S
O110   P114    1.534   .     S
O110   Mo120   2.034   .     S
O111   P114    1.542   .     S
O112   P116    1.535   1_655 S
P116   O107    1.507   1_545 S
P116   O112    1.535   1_455 S
Mo117  Mo119   2.604   .     S
Mo118  O79     1.979   1_655 S
Mo118  O99     1.681   1_655 S
Mo118  Mo122   2.595   1_655 S
Mo120  Mo121   2.588   1_655 S
Mo121  O73     2.282   1_455 S
Mo121  O81     1.974   1_455 S
Mo121  O85     1.930   1_455 S
Mo121  Mo120   2.588   1_455 S
Mo122  O73     2.267   1_455 S
Mo122  O92     1.953   1_455 D
Mo122  Mo118   2.595   1_455 S
N123   C129    1.367   .     D
N123   C131    1.347   .     S
N123   Zn142   1.978   .     S
N124   H125    0.861   .     S
N124   C129    1.396   .     S
N124   C133    1.349   .     S
N126   C135    1.276   .     D
N126   C137    1.365   .     S
N126   Zn288   1.993   .     S
N127   H128    0.860   .     S
N127   C135    1.334   .     S
N127   C139    1.383   .     S
C129   H130    0.932   .     S
C131   H132    0.930   .     S
C131   C133    1.414   .     D
C133   H134    0.930   .     S
C135   H136    0.930   .     S
C137   H138    0.930   .     S
C137   C139    1.395   .     D
C139   H140    0.930   .     S
Zn142  O180    1.938   .     S
O143   P184    1.550   .     S
O143   Mo188   2.261   .     S
O143   Mo189   2.278   .     S
O144   P184    1.554   .     S
O144   Mo192   2.282   1_565 S
O144   Mo193   2.267   1_565 D
O145   Mn289   2.181   .     S
O146   P184    1.551   .     S
O146   Mo190   2.306   .     S
O146   Mo191   2.331   1_556 S
O148   Mo188   1.979   .     S
O148   Mo190   1.974   .     S
O148   Mn285   2.171   1_566 S
O150   Mo193   1.971   .     S
O150   Mo189   1.979   1_545 S
O150   Mn285   2.210   1_556 S
O152   Mo191   1.975   .     S
O152   Mo192   1.974   1_564 S
O152   Mn285   2.207   1_565 S
O154   Mo192   2.108   .     S
O154   Mo193   2.107   .     S
O156   Mo191   1.945   1_556 S
O156   Mo192   1.930   1_565 S
O157   Mo191   2.096   .     S
O157   Mo190   2.091   1_554 S
O159   Mo188   1.940   .     S
O159   Mo190   1.938   .     S
O161   Mo188   2.112   .     S
O161   Mo189   2.108   .     S
O163   Mo189   1.940   .     S
O163   Mo193   1.953   1_565 S
O165   Mo193   1.677   .     S
O166   Mo192   1.677   1_554 S
O167   Mo191   1.680   .     S
O168   Mo190   1.682   1_554 S
O169   Mo188   1.682   .     S
O170   Mo189   1.681   1_545 S
O171   P186    1.565   .     D
O171   Mo188   2.049   .     S
O172   P186    1.551   .     S
O172   Mo189   2.053   .     S
O173   P186    1.517   .     S
O173   Zn213   1.936   .     S
O174   P186    1.520   .     S
O174   Mn289   2.146   .     S
O175   P184    1.509   .     D
O175   Mn289   2.206   .     S
O176   P187    1.548   .     S
O176   Mo193   2.047   .     S
O177   P187    1.539   .     S
O177   Mo192   2.058   .     S
O178   Zn290   1.937   .     S
O178   P187    1.507   1_655 S
O179   P185    1.546   .     D
O179   Mo190   2.049   .     S
O180   P185    1.526   1_554 S
O181   Mo191   2.034   .     S
O181   P185    1.534   1_554 S
O182   P185    1.542   .     S
O182   Zn284   1.958   .     S
O183   P187    1.535   1_565 S
P185   O180    1.526   1_556 S
P185   O181    1.534   1_556 S
P187   O178    1.507   1_455 S
P187   O183    1.535   1_545 S
Mo188  Mo190   2.604   .     S
Mo189  O150    1.979   1_565 S
Mo189  O170    1.681   1_565 S
Mo189  Mo193   2.595   1_565 S
Mo190  O157    2.091   1_556 S
Mo190  O168    1.682   1_556 S
Mo191  O146    2.331   1_554 S
Mo191  O156    1.945   1_554 S
Mo191  Mo192   2.588   1_564 S
Mo192  O144    2.282   1_545 S
Mo192  O152    1.974   1_546 S
Mo192  O156    1.930   1_545 S
Mo192  O166    1.677   1_556 S
Mo192  Mo191   2.588   1_546 S
Mo193  O144    2.267   1_545 D
Mo193  O163    1.953   1_545 S
Mo193  Mo189   2.595   1_545 S
N194   C200    1.367   .     D
N194   C202    1.347   .     S
N194   Zn213   1.978   .     S
N195   H196    0.861   .     S
N195   C200    1.396   .     S
N195   C204    1.349   .     S
N197   C206    1.276   .     D
N197   C208    1.365   .     S
N197   Zn290   1.993   .     S
N198   H199    0.860   .     S
N198   C206    1.334   .     S
N198   C210    1.383   .     S
C200   H201    0.932   .     S
C202   H203    0.930   .     S
C202   C204    1.414   .     D
C204   H205    0.930   .     S
C206   H207    0.930   .     S
C208   H209    0.930   .     S
C208   C210    1.395   .     D
C210   H211    0.930   .     S
Zn213  O253    1.958   .     S
O214   P255    1.550   .     S
O214   Mo259   2.261   .     S
O214   Mo260   2.278   .     S
O215   P255    1.554   .     S
O215   Mo263   2.282   1_455 S
O215   Mo264   2.267   1_455 S
O216   Mn289   2.181   .     S
O217   P255    1.551   .     S
O217   Mo261   2.306   .     S
O217   Mo262   2.331   .     S
O219   Mo259   1.979   .     S
O219   Mo261   1.974   .     S
O219   Mn286   2.171   .     S
O221   Mo264   1.971   .     S
O221   Mo260   1.979   1_655 D
O221   Mn286   2.210   1_655 S
O223   Mo262   1.975   .     S
O223   Mn286   2.207   .     S
O223   Mo263   1.974   1_455 S
O225   Mo263   2.108   .     S
O225   Mo264   2.107   .     S
O227   Mo262   1.945   .     S
O227   Mo263   1.930   1_455 S
O228   Mo261   2.091   .     S
O228   Mo262   2.096   .     S
O230   Mo259   1.940   .     S
O230   Mo261   1.938   .     S
O232   Mo259   2.112   .     S
O232   Mo260   2.108   .     S
O234   Mo260   1.940   .     S
O234   Mo264   1.953   1_455 S
O236   Mo264   1.677   .     S
O237   Mo263   1.677   .     S
O238   Mo262   1.680   .     S
O239   Mo261   1.682   .     S
O240   Mo259   1.682   .     S
O241   Mo260   1.681   1_655 S
O242   P257    1.565   .     S
O242   Mo259   2.049   .     S
O243   P257    1.551   .     S
O243   Mo260   2.053   .     S
O244   P257    1.517   .     D
O244   Zn284   1.936   .     S
O245   P257    1.520   .     S
O245   Mn289   2.146   .     S
O246   P255    1.509   .     D
O246   Mn289   2.206   .     S
O247   P258    1.548   .     S
O247   Mo264   2.047   .     S
O248   P258    1.539   .     S
O248   Mo263   2.058   .     S
O249   Zn290   1.937   .     S
O249   P258    1.507   1_545 S
O250   P256    1.546   .     S
O250   Mo261   2.049   .     S
O251   P256    1.526   .     D
O252   P256    1.534   .     S
O252   Mo262   2.034   .     S
O253   P256    1.542   .     S
O254   P258    1.535   1_455 D
P258   O249    1.507   1_565 S
P258   O254    1.535   1_655 D
Mo259  Mo261   2.604   .     S
Mo260  O221    1.979   1_455 D
Mo260  O241    1.681   1_455 S
Mo260  Mo264   2.595   1_455 S
Mo262  Mo263   2.588   1_455 S
Mo263  O215    2.282   1_655 S
Mo263  O223    1.974   1_655 S
Mo263  O227    1.930   1_655 S
Mo263  Mo262   2.588   1_655 S
Mo264  O215    2.267   1_655 S
Mo264  O234    1.953   1_655 S
Mo264  Mo260   2.595   1_655 S
N265   C271    1.367   .     D
N265   C273    1.347   .     S
N265   Zn284   1.978   .     S
N266   H267    0.861   .     S
N266   C271    1.396   .     S
N266   C275    1.349   .     S
N268   C277    1.276   .     D
N268   C279    1.365   .     S
N268   Zn290   1.993   .     S
N269   H270    0.860   .     S
N269   C277    1.334   .     S
N269   C281    1.383   .     S
C271   H272    0.932   .     S
C273   H274    0.930   .     S
C273   C275    1.414   .     D
C275   H276    0.930   .     S
C277   H278    0.930   .     S
C279   H280    0.930   .     S
C279   C281    1.395   .     D
C281   H282    0.930   .     S
Mn285  O8      2.210   1_545 S
Mn285  O10     2.207   1_554 S
Mn285  O148    2.171   1_544 S
Mn285  O150    2.210   1_554 S
Mn285  O152    2.207   1_545 S
Mn286  O77     2.171   1_455 S
Mn286  O81     2.207   1_455 S
Mn286  O221    2.210   1_455 S
