data_image0
_cell_length_a       16.0604
_cell_length_b       16.0604
_cell_length_c       44.117
_cell_angle_alpha    90
_cell_angle_beta     90
_cell_angle_gamma    90

_symmetry_space_group_name_H-M    "P 1"
_symmetry_int_tables_number       1

loop_
  _symmetry_equiv_pos_as_xyz
  'x, y, z'

loop_
  _atom_site_label
  _atom_site_occupancy
  _atom_site_fract_x
  _atom_site_fract_y
  _atom_site_fract_z
  _atom_site_thermal_displace_type
  _atom_site_B_iso_or_equiv
  _atom_site_type_symbol
  Cu1      1.0000 0.45842  0.92949  0.71035  Biso   1.000  Cu
  O1       1.0000 0.38970  0.98560  0.68041  Biso   1.000  O
  O2       1.0000 0.46660  0.10170  0.67740  Biso   1.000  O
  C1       1.0000 0.03410  0.43020  0.48094  Biso   1.000  C
  N1       1.0000 0.19790  0.17240  0.57431  Biso   1.000  N
  C2       1.0000 0.93100  0.46700  0.43915  Biso   1.000  C
  C3       1.0000 0.34970  0.09010  0.64508  Biso   1.000  C
  C4       1.0000 0.10030  0.30670  0.51919  Biso   1.000  C
  N2       1.0000 0.67240  0.30110  0.34772  Biso   1.000  N
  C5       1.0000 0.13290  0.24300  0.53971  Biso   1.000  C
  C6       1.0000 0.80560  0.40190  0.40033  Biso   1.000  C
  C7       1.0000 0.84440  0.48350  0.44460  Biso   1.000  C
  H1       1.0000 0.82875  0.51610  0.46106  Biso   1.000  H
  C8       1.0000 0.08050  0.45070  0.50565  Biso   1.000  C
  H2       1.0000 0.08805  0.50663  0.51034  Biso   1.000  H
  C9       1.0000 0.40600  0.05660  0.66987  Biso   1.000  C
  C10      1.0000 0.78360  0.45090  0.42546  Biso   1.000  C
  H3       1.0000 0.72772  0.46183  0.42935  Biso   1.000  H
  N3       1.0000 0.10610  0.16110  0.53915  Biso   1.000  N
  C11      1.0000 0.19190  0.25110  0.56186  Biso   1.000  C
  H4       1.0000 0.22120  0.29870  0.56731  Biso   1.000  H
  N4       1.0000 0.14510  0.11780  0.56039  Biso   1.000  N
  C12      1.0000 0.94830  0.41930  0.41391  Biso   1.000  C
  H5       1.0000 0.00369  0.40749  0.40952  Biso   1.000  H
  C13      1.0000 0.37580  0.15680  0.62855  Biso   1.000  C
  H6       1.0000 0.42573  0.18352  0.63291  Biso   1.000  H
  C14      1.0000 0.88840  0.38850  0.39507  Biso   1.000  C
  H7       1.0000 0.90435  0.35767  0.37820  Biso   1.000  H
  C15      1.0000 0.74690  0.31580  0.35708  Biso   1.000  C
  H8       1.0000 0.79586  0.29528  0.34869  Biso   1.000  H
  C16      1.0000 0.05240  0.28630  0.49454  Biso   1.000  C
  H9       1.0000 0.04148  0.23066  0.49025  Biso   1.000  H
  C17      1.0000 0.11710  0.39060  0.52416  Biso   1.000  C
  H10      1.0000 0.15259  0.40646  0.53977  Biso   1.000  H
  C18      1.0000 0.02030  0.34800  0.47603  Biso   1.000  C
  H11      1.0000 0.98792  0.33245  0.45950  Biso   1.000  H
  C19      1.0000 0.25000  0.14450  0.59887  Biso   1.000  C
  C20      1.0000 0.27490  0.04880  0.63856  Biso   1.000  C
  H12      1.0000 0.25921  0.00195  0.64953  Biso   1.000  H
  C21      1.0000 0.22610  0.07820  0.61613  Biso   1.000  C
  H13      1.0000 0.17508  0.05285  0.61235  Biso   1.000  H
  C22      1.0000 0.32370  0.18420  0.60422  Biso   1.000  C
  H14      1.0000 0.33989  0.22883  0.59213  Biso   1.000  H
  C23      1.0000 0.74090  0.36560  0.38081  Biso   1.000  C
  C24      1.0000 0.64370  0.24600  0.32294  Biso   1.000  C
  N5       1.0000 0.66180  0.37630  0.38580  Biso   1.000  N
  N6       1.0000 0.61820  0.33960  0.36460  Biso   1.000  N
  C25      1.0000 0.69450  0.19180  0.31105  Biso   1.000  C
  H15      1.0000 0.74814  0.18526  0.31864  Biso   1.000  H
  C26      1.0000 0.66640  0.14340  0.28640  Biso   1.000  C
  H16      1.0000 0.70266  0.10595  0.27720  Biso   1.000  H
  C27      1.0000 0.56210  0.25840  0.31252  Biso   1.000  C
  H17      1.0000 0.52686  0.29702  0.32158  Biso   1.000  H
  C28      1.0000 0.53630  0.21020  0.28796  Biso   1.000  C
  H18      1.0000 0.48369  0.21908  0.27978  Biso   1.000  H
  C29      1.0000 0.58570  0.15070  0.27571  Biso   1.000  C
  C30      1.0000 0.55390  0.09410  0.25114  Biso   1.000  C
  O3       1.0000 0.48000  0.10560  0.24306  Biso   1.000  O
  O4       1.0000 0.60520  0.04210  0.24041  Biso   1.000  O
  Cu2      1.0000 0.54158  0.07051  0.71035  Biso   1.000  Cu
  O5       1.0000 0.61030  0.01440  0.68041  Biso   1.000  O
  O6       1.0000 0.53340  0.89830  0.67740  Biso   1.000  O
  C31      1.0000 0.96590  0.56980  0.48094  Biso   1.000  C
  N7       1.0000 0.80210  0.82760  0.57431  Biso   1.000  N
  C32      1.0000 0.06900  0.53300  0.43915  Biso   1.000  C
  C33      1.0000 0.65030  0.90990  0.64508  Biso   1.000  C
  C34      1.0000 0.89970  0.69330  0.51919  Biso   1.000  C
  N8       1.0000 0.32760  0.69890  0.34772  Biso   1.000  N
  C35      1.0000 0.86710  0.75700  0.53971  Biso   1.000  C
  C36      1.0000 0.19440  0.59810  0.40033  Biso   1.000  C
  C37      1.0000 0.15560  0.51650  0.44460  Biso   1.000  C
  H19      1.0000 0.17125  0.48390  0.46106  Biso   1.000  H
  C38      1.0000 0.91950  0.54930  0.50565  Biso   1.000  C
  H20      1.0000 0.91195  0.49337  0.51034  Biso   1.000  H
  C39      1.0000 0.59400  0.94340  0.66987  Biso   1.000  C
  C40      1.0000 0.21640  0.54910  0.42546  Biso   1.000  C
  H21      1.0000 0.27228  0.53817  0.42935  Biso   1.000  H
  N9       1.0000 0.89390  0.83890  0.53915  Biso   1.000  N
  C41      1.0000 0.80810  0.74890  0.56186  Biso   1.000  C
  H22      1.0000 0.77880  0.70130  0.56731  Biso   1.000  H
  N10      1.0000 0.85490  0.88220  0.56039  Biso   1.000  N
  C42      1.0000 0.05170  0.58070  0.41391  Biso   1.000  C
  H23      1.0000 0.99631  0.59251  0.40952  Biso   1.000  H
  C43      1.0000 0.62420  0.84320  0.62855  Biso   1.000  C
  H24      1.0000 0.57427  0.81648  0.63291  Biso   1.000  H
  C44      1.0000 0.11160  0.61150  0.39507  Biso   1.000  C
  H25      1.0000 0.09565  0.64233  0.37820  Biso   1.000  H
  C45      1.0000 0.25310  0.68420  0.35708  Biso   1.000  C
  H26      1.0000 0.20414  0.70472  0.34869  Biso   1.000  H
  C46      1.0000 0.94760  0.71370  0.49454  Biso   1.000  C
  H27      1.0000 0.95852  0.76934  0.49025  Biso   1.000  H
  C47      1.0000 0.88290  0.60940  0.52416  Biso   1.000  C
  H28      1.0000 0.84741  0.59354  0.53977  Biso   1.000  H
  C48      1.0000 0.97970  0.65200  0.47603  Biso   1.000  C
  H29      1.0000 0.01208  0.66755  0.45950  Biso   1.000  H
  C49      1.0000 0.75000  0.85550  0.59887  Biso   1.000  C
  C50      1.0000 0.72510  0.95120  0.63856  Biso   1.000  C
  H30      1.0000 0.74079  0.99805  0.64953  Biso   1.000  H
  C51      1.0000 0.77390  0.92180  0.61613  Biso   1.000  C
  H31      1.0000 0.82492  0.94715  0.61235  Biso   1.000  H
  C52      1.0000 0.67630  0.81580  0.60422  Biso   1.000  C
  H32      1.0000 0.66011  0.77117  0.59213  Biso   1.000  H
  C53      1.0000 0.25910  0.63440  0.38081  Biso   1.000  C
  C54      1.0000 0.35630  0.75400  0.32294  Biso   1.000  C
  N11      1.0000 0.33820  0.62370  0.38580  Biso   1.000  N
  N12      1.0000 0.38180  0.66040  0.36460  Biso   1.000  N
  C55      1.0000 0.30550  0.80820  0.31105  Biso   1.000  C
  H33      1.0000 0.25186  0.81474  0.31864  Biso   1.000  H
  C56      1.0000 0.33360  0.85660  0.28640  Biso   1.000  C
  H34      1.0000 0.29734  0.89405  0.27720  Biso   1.000  H
  C57      1.0000 0.43790  0.74160  0.31252  Biso   1.000  C
  H35      1.0000 0.47314  0.70298  0.32158  Biso   1.000  H
  C58      1.0000 0.46370  0.78980  0.28796  Biso   1.000  C
  H36      1.0000 0.51631  0.78092  0.27978  Biso   1.000  H
  C59      1.0000 0.41430  0.84930  0.27571  Biso   1.000  C
  C60      1.0000 0.44610  0.90590  0.25114  Biso   1.000  C
  O7       1.0000 0.52000  0.89440  0.24306  Biso   1.000  O
  O8       1.0000 0.39480  0.95790  0.24041  Biso   1.000  O
  Cu3      1.0000 0.57051  0.95842  0.21035  Biso   1.000  Cu
  O9       1.0000 0.51440  0.88970  0.18041  Biso   1.000  O
  O10      1.0000 0.39830  0.96660  0.17740  Biso   1.000  O
  C61      1.0000 0.06980  0.53410  0.98094  Biso   1.000  C
  N13      1.0000 0.32760  0.69790  0.07431  Biso   1.000  N
  C62      1.0000 0.03300  0.43100  0.93915  Biso   1.000  C
  C63      1.0000 0.40990  0.84970  0.14508  Biso   1.000  C
  C64      1.0000 0.19330  0.60030  0.01919  Biso   1.000  C
  N14      1.0000 0.19890  0.17240  0.84772  Biso   1.000  N
  C65      1.0000 0.25700  0.63290  0.03971  Biso   1.000  C
  C66      1.0000 0.09810  0.30560  0.90033  Biso   1.000  C
  C67      1.0000 0.01650  0.34440  0.94460  Biso   1.000  C
  H37      1.0000 0.98390  0.32875  0.96106  Biso   1.000  H
  C68      1.0000 0.04930  0.58050  0.00565  Biso   1.000  C
  H38      1.0000 0.99337  0.58805  0.01034  Biso   1.000  H
  C69      1.0000 0.44340  0.90600  0.16987  Biso   1.000  C
  C70      1.0000 0.04910  0.28360  0.92546  Biso   1.000  C
  H39      1.0000 0.03817  0.22772  0.92935  Biso   1.000  H
  N15      1.0000 0.33890  0.60610  0.03915  Biso   1.000  N
  C71      1.0000 0.24890  0.69190  0.06186  Biso   1.000  C
  H40      1.0000 0.20130  0.72120  0.06731  Biso   1.000  H
  N16      1.0000 0.38220  0.64510  0.06039  Biso   1.000  N
  C72      1.0000 0.08070  0.44830  0.91391  Biso   1.000  C
  H41      1.0000 0.09251  0.50369  0.90952  Biso   1.000  H
  C73      1.0000 0.34320  0.87580  0.12855  Biso   1.000  C
  H42      1.0000 0.31648  0.92573  0.13291  Biso   1.000  H
  C74      1.0000 0.11150  0.38840  0.89507  Biso   1.000  C
  H43      1.0000 0.14233  0.40435  0.87820  Biso   1.000  H
  C75      1.0000 0.18420  0.24690  0.85708  Biso   1.000  C
  H44      1.0000 0.20472  0.29586  0.84869  Biso   1.000  H
  C76      1.0000 0.21370  0.55240  0.99454  Biso   1.000  C
  H45      1.0000 0.26934  0.54148  0.99025  Biso   1.000  H
  C77      1.0000 0.10940  0.61710  0.02416  Biso   1.000  C
  H46      1.0000 0.09354  0.65259  0.03977  Biso   1.000  H
  C78      1.0000 0.15200  0.52030  0.97603  Biso   1.000  C
  H47      1.0000 0.16755  0.48792  0.95950  Biso   1.000  H
  C79      1.0000 0.35550  0.75000  0.09887  Biso   1.000  C
  C80      1.0000 0.45120  0.77490  0.13856  Biso   1.000  C
  H48      1.0000 0.49805  0.75921  0.14953  Biso   1.000  H
  C81      1.0000 0.42180  0.72610  0.11613  Biso   1.000  C
  H49      1.0000 0.44715  0.67508  0.11235  Biso   1.000  H
  C82      1.0000 0.31580  0.82370  0.10422  Biso   1.000  C
  H50      1.0000 0.27117  0.83989  0.09213  Biso   1.000  H
  C83      1.0000 0.13440  0.24090  0.88081  Biso   1.000  C
  C84      1.0000 0.25400  0.14370  0.82294  Biso   1.000  C
  N17      1.0000 0.12370  0.16180  0.88580  Biso   1.000  N
  N18      1.0000 0.16040  0.11820  0.86460  Biso   1.000  N
  C85      1.0000 0.30820  0.19450  0.81105  Biso   1.000  C
  H51      1.0000 0.31474  0.24814  0.81864  Biso   1.000  H
  C86      1.0000 0.35660  0.16640  0.78640  Biso   1.000  C
  H52      1.0000 0.39405  0.20266  0.77720  Biso   1.000  H
  C87      1.0000 0.24160  0.06210  0.81252  Biso   1.000  C
  H53      1.0000 0.20298  0.02686  0.82158  Biso   1.000  H
  C88      1.0000 0.28980  0.03630  0.78796  Biso   1.000  C
  H54      1.0000 0.28092  0.98369  0.77978  Biso   1.000  H
  C89      1.0000 0.34930  0.08570  0.77571  Biso   1.000  C
  C90      1.0000 0.40590  0.05390  0.75114  Biso   1.000  C
  O11      1.0000 0.39440  0.98000  0.74306  Biso   1.000  O
  O12      1.0000 0.45790  0.10520  0.74041  Biso   1.000  O
  Cu4      1.0000 0.42949  0.04158  0.21035  Biso   1.000  Cu
  O13      1.0000 0.48560  0.11030  0.18041  Biso   1.000  O
  O14      1.0000 0.60170  0.03340  0.17740  Biso   1.000  O
  C91      1.0000 0.93020  0.46590  0.98094  Biso   1.000  C
  N19      1.0000 0.67240  0.30210  0.07431  Biso   1.000  N
  C92      1.0000 0.96700  0.56900  0.93915  Biso   1.000  C
  C93      1.0000 0.59010  0.15030  0.14508  Biso   1.000  C
  C94      1.0000 0.80670  0.39970  0.01919  Biso   1.000  C
  N20      1.0000 0.80110  0.82760  0.84772  Biso   1.000  N
  C95      1.0000 0.74300  0.36710  0.03971  Biso   1.000  C
  C96      1.0000 0.90190  0.69440  0.90033  Biso   1.000  C
  C97      1.0000 0.98350  0.65560  0.94460  Biso   1.000  C
  H55      1.0000 0.01610  0.67125  0.96106  Biso   1.000  H
  C98      1.0000 0.95070  0.41950  0.00565  Biso   1.000  C
  H56      1.0000 0.00663  0.41195  0.01034  Biso   1.000  H
  C99      1.0000 0.55660  0.09400  0.16987  Biso   1.000  C
  C100     1.0000 0.95090  0.71640  0.92546  Biso   1.000  C
  H57      1.0000 0.96183  0.77228  0.92935  Biso   1.000  H
  N21      1.0000 0.66110  0.39390  0.03915  Biso   1.000  N
  C101     1.0000 0.75110  0.30810  0.06186  Biso   1.000  C
  H58      1.0000 0.79870  0.27880  0.06731  Biso   1.000  H
  N22      1.0000 0.61780  0.35490  0.06039  Biso   1.000  N
  C102     1.0000 0.91930  0.55170  0.91391  Biso   1.000  C
  H59      1.0000 0.90749  0.49631  0.90952  Biso   1.000  H
  C103     1.0000 0.65680  0.12420  0.12855  Biso   1.000  C
  H60      1.0000 0.68352  0.07427  0.13291  Biso   1.000  H
  C104     1.0000 0.88850  0.61160  0.89507  Biso   1.000  C
  H61      1.0000 0.85767  0.59565  0.87820  Biso   1.000  H
  C105     1.0000 0.81580  0.75310  0.85708  Biso   1.000  C
  H62      1.0000 0.79528  0.70414  0.84869  Biso   1.000  H
  C106     1.0000 0.78630  0.44760  0.99454  Biso   1.000  C
  H63      1.0000 0.73066  0.45852  0.99025  Biso   1.000  H
  C107     1.0000 0.89060  0.38290  0.02416  Biso   1.000  C
  H64      1.0000 0.90646  0.34741  0.03977  Biso   1.000  H
  C108     1.0000 0.84800  0.47970  0.97603  Biso   1.000  C
  H65      1.0000 0.83245  0.51208  0.95950  Biso   1.000  H
  C109     1.0000 0.64450  0.25000  0.09887  Biso   1.000  C
  C110     1.0000 0.54880  0.22510  0.13856  Biso   1.000  C
  H66      1.0000 0.50195  0.24079  0.14953  Biso   1.000  H
  C111     1.0000 0.57820  0.27390  0.11613  Biso   1.000  C
  H67      1.0000 0.55285  0.32492  0.11235  Biso   1.000  H
  C112     1.0000 0.68420  0.17630  0.10422  Biso   1.000  C
  H68      1.0000 0.72883  0.16011  0.09213  Biso   1.000  H
  C113     1.0000 0.86560  0.75910  0.88081  Biso   1.000  C
  C114     1.0000 0.74600  0.85630  0.82294  Biso   1.000  C
  N23      1.0000 0.87630  0.83820  0.88580  Biso   1.000  N
  N24      1.0000 0.83960  0.88180  0.86460  Biso   1.000  N
  C115     1.0000 0.69180  0.80550  0.81105  Biso   1.000  C
  H69      1.0000 0.68526  0.75186  0.81864  Biso   1.000  H
  C116     1.0000 0.64340  0.83360  0.78640  Biso   1.000  C
  H70      1.0000 0.60595  0.79734  0.77720  Biso   1.000  H
  C117     1.0000 0.75840  0.93790  0.81252  Biso   1.000  C
  H71      1.0000 0.79702  0.97314  0.82158  Biso   1.000  H
  C118     1.0000 0.71020  0.96370  0.78796  Biso   1.000  C
  H72      1.0000 0.71908  0.01631  0.77978  Biso   1.000  H
  C119     1.0000 0.65070  0.91430  0.77571  Biso   1.000  C
  C120     1.0000 0.59410  0.94610  0.75114  Biso   1.000  C
  O15      1.0000 0.60560  0.02000  0.74306  Biso   1.000  O
  O16      1.0000 0.54210  0.89480  0.74041  Biso   1.000  O
  C121     1.0000 0.00000  0.50000  0.46021  Biso   1.000  C
  C122     1.0000 0.00000  0.50000  0.96021  Biso   1.000  C
  Cu5      1.0000 0.04158  0.42949  0.78965  Biso   1.000  Cu
  O17      1.0000 0.11030  0.48560  0.81959  Biso   1.000  O
  O18      1.0000 0.03340  0.60170  0.82260  Biso   1.000  O
  C123     1.0000 0.46590  0.93020  0.01906  Biso   1.000  C
  N25      1.0000 0.30210  0.67240  0.92569  Biso   1.000  N
  C124     1.0000 0.56900  0.96700  0.06085  Biso   1.000  C
  C125     1.0000 0.15030  0.59010  0.85492  Biso   1.000  C
  C126     1.0000 0.39970  0.80670  0.98081  Biso   1.000  C
  N26      1.0000 0.82760  0.80110  0.15228  Biso   1.000  N
  C127     1.0000 0.36710  0.74300  0.96029  Biso   1.000  C
  C128     1.0000 0.69440  0.90190  0.09967  Biso   1.000  C
  C129     1.0000 0.65560  0.98350  0.05540  Biso   1.000  C
  H73      1.0000 0.67125  0.01610  0.03894  Biso   1.000  H
  C130     1.0000 0.41950  0.95070  0.99435  Biso   1.000  C
  H74      1.0000 0.41195  0.00663  0.98966  Biso   1.000  H
  C131     1.0000 0.09400  0.55660  0.83013  Biso   1.000  C
  C132     1.0000 0.71640  0.95090  0.07454  Biso   1.000  C
  H75      1.0000 0.77228  0.96183  0.07065  Biso   1.000  H
  N27      1.0000 0.39390  0.66110  0.96085  Biso   1.000  N
  C133     1.0000 0.30810  0.75110  0.93814  Biso   1.000  C
  H76      1.0000 0.27880  0.79870  0.93269  Biso   1.000  H
  N28      1.0000 0.35490  0.61780  0.93961  Biso   1.000  N
  C134     1.0000 0.55170  0.91930  0.08609  Biso   1.000  C
  H77      1.0000 0.49631  0.90749  0.09048  Biso   1.000  H
  C135     1.0000 0.12420  0.65680  0.87145  Biso   1.000  C
  H78      1.0000 0.07427  0.68352  0.86709  Biso   1.000  H
  C136     1.0000 0.61160  0.88850  0.10493  Biso   1.000  C
  H79      1.0000 0.59565  0.85767  0.12180  Biso   1.000  H
  C137     1.0000 0.75310  0.81580  0.14292  Biso   1.000  C
  H80      1.0000 0.70414  0.79528  0.15131  Biso   1.000  H
  C138     1.0000 0.44760  0.78630  0.00546  Biso   1.000  C
  H81      1.0000 0.45852  0.73066  0.00975  Biso   1.000  H
  C139     1.0000 0.38290  0.89060  0.97584  Biso   1.000  C
  H82      1.0000 0.34741  0.90646  0.96023  Biso   1.000  H
  C140     1.0000 0.47970  0.84800  0.02397  Biso   1.000  C
  H83      1.0000 0.51208  0.83245  0.04050  Biso   1.000  H
  C141     1.0000 0.25000  0.64450  0.90113  Biso   1.000  C
  C142     1.0000 0.22510  0.54880  0.86144  Biso   1.000  C
  H84      1.0000 0.24079  0.50195  0.85047  Biso   1.000  H
  C143     1.0000 0.27390  0.57820  0.88387  Biso   1.000  C
  H85      1.0000 0.32492  0.55285  0.88765  Biso   1.000  H
  C144     1.0000 0.17630  0.68420  0.89578  Biso   1.000  C
  H86      1.0000 0.16011  0.72883  0.90787  Biso   1.000  H
  C145     1.0000 0.75910  0.86560  0.11919  Biso   1.000  C
  C146     1.0000 0.85630  0.74600  0.17706  Biso   1.000  C
  N29      1.0000 0.83820  0.87630  0.11420  Biso   1.000  N
  N30      1.0000 0.88180  0.83960  0.13540  Biso   1.000  N
  C147     1.0000 0.80550  0.69180  0.18895  Biso   1.000  C
  H87      1.0000 0.75186  0.68526  0.18136  Biso   1.000  H
  C148     1.0000 0.83360  0.64340  0.21360  Biso   1.000  C
  H88      1.0000 0.79734  0.60595  0.22280  Biso   1.000  H
  C149     1.0000 0.93790  0.75840  0.18748  Biso   1.000  C
  H89      1.0000 0.97314  0.79702  0.17842  Biso   1.000  H
  C150     1.0000 0.96370  0.71020  0.21204  Biso   1.000  C
  H90      1.0000 0.01631  0.71908  0.22022  Biso   1.000  H
  C151     1.0000 0.91430  0.65070  0.22429  Biso   1.000  C
  C152     1.0000 0.94610  0.59410  0.24886  Biso   1.000  C
  O19      1.0000 0.02000  0.60560  0.25694  Biso   1.000  O
  O20      1.0000 0.89480  0.54210  0.25959  Biso   1.000  O
  Cu6      1.0000 0.95842  0.57051  0.78965  Biso   1.000  Cu
  O21      1.0000 0.88970  0.51440  0.81959  Biso   1.000  O
  O22      1.0000 0.96660  0.39830  0.82260  Biso   1.000  O
  C153     1.0000 0.53410  0.06980  0.01906  Biso   1.000  C
  N31      1.0000 0.69790  0.32760  0.92569  Biso   1.000  N
  C154     1.0000 0.43100  0.03300  0.06085  Biso   1.000  C
  C155     1.0000 0.84970  0.40990  0.85492  Biso   1.000  C
  C156     1.0000 0.60030  0.19330  0.98081  Biso   1.000  C
  N32      1.0000 0.17240  0.19890  0.15228  Biso   1.000  N
  C157     1.0000 0.63290  0.25700  0.96029  Biso   1.000  C
  C158     1.0000 0.30560  0.09810  0.09967  Biso   1.000  C
  C159     1.0000 0.34440  0.01650  0.05540  Biso   1.000  C
  H91      1.0000 0.32875  0.98390  0.03894  Biso   1.000  H
  C160     1.0000 0.58050  0.04930  0.99435  Biso   1.000  C
  H92      1.0000 0.58805  0.99337  0.98966  Biso   1.000  H
  C161     1.0000 0.90600  0.44340  0.83013  Biso   1.000  C
  C162     1.0000 0.28360  0.04910  0.07454  Biso   1.000  C
  H93      1.0000 0.22772  0.03817  0.07065  Biso   1.000  H
  N33      1.0000 0.60610  0.33890  0.96085  Biso   1.000  N
  C163     1.0000 0.69190  0.24890  0.93814  Biso   1.000  C
  H94      1.0000 0.72120  0.20130  0.93269  Biso   1.000  H
  N34      1.0000 0.64510  0.38220  0.93961  Biso   1.000  N
  C164     1.0000 0.44830  0.08070  0.08609  Biso   1.000  C
  H95      1.0000 0.50369  0.09251  0.09048  Biso   1.000  H
  C165     1.0000 0.87580  0.34320  0.87145  Biso   1.000  C
  H96      1.0000 0.92573  0.31648  0.86709  Biso   1.000  H
  C166     1.0000 0.38840  0.11150  0.10493  Biso   1.000  C
  H97      1.0000 0.40435  0.14233  0.12180  Biso   1.000  H
  C167     1.0000 0.24690  0.18420  0.14292  Biso   1.000  C
  H98      1.0000 0.29586  0.20472  0.15131  Biso   1.000  H
  C168     1.0000 0.55240  0.21370  0.00546  Biso   1.000  C
  H99      1.0000 0.54148  0.26934  0.00975  Biso   1.000  H
  C169     1.0000 0.61710  0.10940  0.97584  Biso   1.000  C
  H100     1.0000 0.65259  0.09354  0.96023  Biso   1.000  H
  C170     1.0000 0.52030  0.15200  0.02397  Biso   1.000  C
  H101     1.0000 0.48792  0.16755  0.04050  Biso   1.000  H
  C171     1.0000 0.75000  0.35550  0.90113  Biso   1.000  C
  C172     1.0000 0.77490  0.45120  0.86144  Biso   1.000  C
  H102     1.0000 0.75921  0.49805  0.85047  Biso   1.000  H
  C173     1.0000 0.72610  0.42180  0.88387  Biso   1.000  C
  H103     1.0000 0.67508  0.44715  0.88765  Biso   1.000  H
  C174     1.0000 0.82370  0.31580  0.89578  Biso   1.000  C
  H104     1.0000 0.83989  0.27117  0.90787  Biso   1.000  H
  C175     1.0000 0.24090  0.13440  0.11919  Biso   1.000  C
  C176     1.0000 0.14370  0.25400  0.17706  Biso   1.000  C
  N35      1.0000 0.16180  0.12370  0.11420  Biso   1.000  N
  N36      1.0000 0.11820  0.16040  0.13540  Biso   1.000  N
  C177     1.0000 0.19450  0.30820  0.18895  Biso   1.000  C
  H105     1.0000 0.24814  0.31474  0.18136  Biso   1.000  H
  C178     1.0000 0.16640  0.35660  0.21360  Biso   1.000  C
  H106     1.0000 0.20266  0.39405  0.22280  Biso   1.000  H
  C179     1.0000 0.06210  0.24160  0.18748  Biso   1.000  C
  H107     1.0000 0.02686  0.20298  0.17842  Biso   1.000  H
  C180     1.0000 0.03630  0.28980  0.21204  Biso   1.000  C
  H108     1.0000 0.98369  0.28092  0.22022  Biso   1.000  H
  C181     1.0000 0.08570  0.34930  0.22429  Biso   1.000  C
  C182     1.0000 0.05390  0.40590  0.24886  Biso   1.000  C
  O23      1.0000 0.98000  0.39440  0.25694  Biso   1.000  O
  O24      1.0000 0.10520  0.45790  0.25959  Biso   1.000  O
  Cu7      1.0000 0.92949  0.45842  0.28965  Biso   1.000  Cu
  O25      1.0000 0.98560  0.38970  0.31959  Biso   1.000  O
  O26      1.0000 0.10170  0.46660  0.32260  Biso   1.000  O
  C183     1.0000 0.43020  0.03410  0.51906  Biso   1.000  C
  N37      1.0000 0.17240  0.19790  0.42569  Biso   1.000  N
  C184     1.0000 0.46700  0.93100  0.56085  Biso   1.000  C
  C185     1.0000 0.09010  0.34970  0.35492  Biso   1.000  C
  C186     1.0000 0.30670  0.10030  0.48081  Biso   1.000  C
  N38      1.0000 0.30110  0.67240  0.65228  Biso   1.000  N
  C187     1.0000 0.24300  0.13290  0.46029  Biso   1.000  C
  C188     1.0000 0.40190  0.80560  0.59967  Biso   1.000  C
  C189     1.0000 0.48350  0.84440  0.55540  Biso   1.000  C
  H109     1.0000 0.51610  0.82875  0.53894  Biso   1.000  H
  C190     1.0000 0.45070  0.08050  0.49435  Biso   1.000  C
  H110     1.0000 0.50663  0.08805  0.48966  Biso   1.000  H
  C191     1.0000 0.05660  0.40600  0.33013  Biso   1.000  C
  C192     1.0000 0.45090  0.78360  0.57454  Biso   1.000  C
  H111     1.0000 0.46183  0.72772  0.57065  Biso   1.000  H
  N39      1.0000 0.16110  0.10610  0.46085  Biso   1.000  N
  C193     1.0000 0.25110  0.19190  0.43814  Biso   1.000  C
  H112     1.0000 0.29870  0.22120  0.43269  Biso   1.000  H
  N40      1.0000 0.11780  0.14510  0.43961  Biso   1.000  N
  C194     1.0000 0.41930  0.94830  0.58609  Biso   1.000  C
  H113     1.0000 0.40749  0.00369  0.59048  Biso   1.000  H
  C195     1.0000 0.15680  0.37580  0.37145  Biso   1.000  C
  H114     1.0000 0.18352  0.42573  0.36709  Biso   1.000  H
  C196     1.0000 0.38850  0.88840  0.60493  Biso   1.000  C
  H115     1.0000 0.35767  0.90435  0.62180  Biso   1.000  H
  C197     1.0000 0.31580  0.74690  0.64292  Biso   1.000  C
  H116     1.0000 0.29528  0.79586  0.65131  Biso   1.000  H
  C198     1.0000 0.28630  0.05240  0.50546  Biso   1.000  C
  H117     1.0000 0.23066  0.04148  0.50975  Biso   1.000  H
  C199     1.0000 0.39060  0.11710  0.47584  Biso   1.000  C
  H118     1.0000 0.40646  0.15259  0.46023  Biso   1.000  H
  C200     1.0000 0.34800  0.02030  0.52397  Biso   1.000  C
  H119     1.0000 0.33245  0.98792  0.54050  Biso   1.000  H
  C201     1.0000 0.14450  0.25000  0.40113  Biso   1.000  C
  C202     1.0000 0.04880  0.27490  0.36144  Biso   1.000  C
  H120     1.0000 0.00195  0.25921  0.35047  Biso   1.000  H
  C203     1.0000 0.07820  0.22610  0.38387  Biso   1.000  C
  H121     1.0000 0.05285  0.17508  0.38765  Biso   1.000  H
  C204     1.0000 0.18420  0.32370  0.39578  Biso   1.000  C
  H122     1.0000 0.22883  0.33989  0.40787  Biso   1.000  H
  C205     1.0000 0.36560  0.74090  0.61919  Biso   1.000  C
  C206     1.0000 0.24600  0.64370  0.67706  Biso   1.000  C
  N41      1.0000 0.37630  0.66180  0.61420  Biso   1.000  N
  N42      1.0000 0.33960  0.61820  0.63540  Biso   1.000  N
  C207     1.0000 0.19180  0.69450  0.68895  Biso   1.000  C
  H123     1.0000 0.18526  0.74814  0.68136  Biso   1.000  H
  C208     1.0000 0.14340  0.66640  0.71360  Biso   1.000  C
  H124     1.0000 0.10595  0.70266  0.72280  Biso   1.000  H
  C209     1.0000 0.25840  0.56210  0.68748  Biso   1.000  C
  H125     1.0000 0.29702  0.52686  0.67842  Biso   1.000  H
  C210     1.0000 0.21020  0.53630  0.71204  Biso   1.000  C
  H126     1.0000 0.21908  0.48369  0.72022  Biso   1.000  H
  C211     1.0000 0.15070  0.58570  0.72429  Biso   1.000  C
  C212     1.0000 0.09410  0.55390  0.74886  Biso   1.000  C
  O27      1.0000 0.10560  0.48000  0.75694  Biso   1.000  O
  O28      1.0000 0.04210  0.60520  0.75959  Biso   1.000  O
  Cu8      1.0000 0.07051  0.54158  0.28965  Biso   1.000  Cu
  O29      1.0000 0.01440  0.61030  0.31959  Biso   1.000  O
  O30      1.0000 0.89830  0.53340  0.32260  Biso   1.000  O
  C213     1.0000 0.56980  0.96590  0.51906  Biso   1.000  C
  N43      1.0000 0.82760  0.80210  0.42569  Biso   1.000  N
  C214     1.0000 0.53300  0.06900  0.56085  Biso   1.000  C
  C215     1.0000 0.90990  0.65030  0.35492  Biso   1.000  C
  C216     1.0000 0.69330  0.89970  0.48081  Biso   1.000  C
  N44      1.0000 0.69890  0.32760  0.65228  Biso   1.000  N
  C217     1.0000 0.75700  0.86710  0.46029  Biso   1.000  C
  C218     1.0000 0.59810  0.19440  0.59967  Biso   1.000  C
  C219     1.0000 0.51650  0.15560  0.55540  Biso   1.000  C
  H127     1.0000 0.48390  0.17125  0.53894  Biso   1.000  H
  C220     1.0000 0.54930  0.91950  0.49435  Biso   1.000  C
  H128     1.0000 0.49337  0.91195  0.48966  Biso   1.000  H
  C221     1.0000 0.94340  0.59400  0.33013  Biso   1.000  C
  C222     1.0000 0.54910  0.21640  0.57454  Biso   1.000  C
  H129     1.0000 0.53817  0.27228  0.57065  Biso   1.000  H
  N45      1.0000 0.83890  0.89390  0.46085  Biso   1.000  N
  C223     1.0000 0.74890  0.80810  0.43814  Biso   1.000  C
  H130     1.0000 0.70130  0.77880  0.43269  Biso   1.000  H
  N46      1.0000 0.88220  0.85490  0.43961  Biso   1.000  N
  C224     1.0000 0.58070  0.05170  0.58609  Biso   1.000  C
  H131     1.0000 0.59251  0.99631  0.59048  Biso   1.000  H
  C225     1.0000 0.84320  0.62420  0.37145  Biso   1.000  C
  H132     1.0000 0.81648  0.57427  0.36709  Biso   1.000  H
  C226     1.0000 0.61150  0.11160  0.60493  Biso   1.000  C
  H133     1.0000 0.64233  0.09565  0.62180  Biso   1.000  H
  C227     1.0000 0.68420  0.25310  0.64292  Biso   1.000  C
  H134     1.0000 0.70472  0.20414  0.65131  Biso   1.000  H
  C228     1.0000 0.71370  0.94760  0.50546  Biso   1.000  C
  H135     1.0000 0.76934  0.95852  0.50975  Biso   1.000  H
  C229     1.0000 0.60940  0.88290  0.47584  Biso   1.000  C
  H136     1.0000 0.59354  0.84741  0.46023  Biso   1.000  H
  C230     1.0000 0.65200  0.97970  0.52397  Biso   1.000  C
  H137     1.0000 0.66755  0.01208  0.54050  Biso   1.000  H
  C231     1.0000 0.85550  0.75000  0.40113  Biso   1.000  C
  C232     1.0000 0.95120  0.72510  0.36144  Biso   1.000  C
  H138     1.0000 0.99805  0.74079  0.35047  Biso   1.000  H
  C233     1.0000 0.92180  0.77390  0.38387  Biso   1.000  C
  H139     1.0000 0.94715  0.82492  0.38765  Biso   1.000  H
  C234     1.0000 0.81580  0.67630  0.39578  Biso   1.000  C
  H140     1.0000 0.77117  0.66011  0.40787  Biso   1.000  H
  C235     1.0000 0.63440  0.25910  0.61919  Biso   1.000  C
  C236     1.0000 0.75400  0.35630  0.67706  Biso   1.000  C
  N47      1.0000 0.62370  0.33820  0.61420  Biso   1.000  N
  N48      1.0000 0.66040  0.38180  0.63540  Biso   1.000  N
  C237     1.0000 0.80820  0.30550  0.68895  Biso   1.000  C
  H141     1.0000 0.81474  0.25186  0.68136  Biso   1.000  H
  C238     1.0000 0.85660  0.33360  0.71360  Biso   1.000  C
  H142     1.0000 0.89405  0.29734  0.72280  Biso   1.000  H
  C239     1.0000 0.74160  0.43790  0.68748  Biso   1.000  C
  H143     1.0000 0.70298  0.47314  0.67842  Biso   1.000  H
  C240     1.0000 0.78980  0.46370  0.71204  Biso   1.000  C
  H144     1.0000 0.78092  0.51631  0.72022  Biso   1.000  H
  C241     1.0000 0.84930  0.41430  0.72429  Biso   1.000  C
  C242     1.0000 0.90590  0.44610  0.74886  Biso   1.000  C
  O31      1.0000 0.89440  0.52000  0.75694  Biso   1.000  O
  O32      1.0000 0.95790  0.39480  0.75959  Biso   1.000  O
  C243     1.0000 0.50000  0.00000  0.03979  Biso   1.000  C
  C244     1.0000 0.50000  0.00000  0.53979  Biso   1.000  C
