data_image0
_cell_length_a       22.805
_cell_length_b       22.805
_cell_length_c       44.0727
_cell_angle_alpha    90
_cell_angle_beta     90
_cell_angle_gamma    90

_symmetry_space_group_name_H-M    "P 1"
_symmetry_int_tables_number       1

loop_
  _symmetry_equiv_pos_as_xyz
  'x, y, z'

loop_
  _atom_site_label
  _atom_site_occupancy
  _atom_site_fract_x
  _atom_site_fract_y
  _atom_site_fract_z
  _atom_site_thermal_displace_type
  _atom_site_B_iso_or_equiv
  _atom_site_type_symbol
  Cu1      1.0000 0.55582  0.48451  0.36105  Biso   1.000  Cu
  O1       1.0000 0.53220  0.42960  0.33004  Biso   1.000  O
  O2       1.0000 0.43470  0.45550  0.32993  Biso   1.000  O
  O3       1.0000 0.07030  0.03290  0.89206  Biso   1.000  O
  O4       1.0000 0.04305  0.93870  0.89259  Biso   1.000  O
  N1       1.0000 0.43190  0.25440  0.22840  Biso   1.000  N
  N2       1.0000 0.37660  0.25230  0.21410  Biso   1.000  N
  N3       1.0000 0.38140  0.21100  0.19400  Biso   1.000  N
  N4       1.0000 0.27570  0.89150  0.03250  Biso   1.000  N
  N5       1.0000 0.23370  0.89040  0.01330  Biso   1.000  N
  N6       1.0000 0.24230  0.93520  0.99593  Biso   1.000  N
  C1       1.0000 0.47730  0.42460  0.32022  Biso   1.000  C
  C2       1.0000 0.46520  0.37850  0.29707  Biso   1.000  C
  C3       1.0000 0.50870  0.34650  0.28690  Biso   1.000  C
  H1       1.0000 0.54600  0.35100  0.29511  Biso   1.000  H
  C4       1.0000 0.49980  0.30720  0.26450  Biso   1.000  C
  H2       1.0000 0.53115  0.28485  0.25748  Biso   1.000  H
  C5       1.0000 0.44790  0.29970  0.25240  Biso   1.000  C
  C6       1.0000 0.39930  0.33200  0.26180  Biso   1.000  C
  H3       1.0000 0.36232  0.32719  0.25328  Biso   1.000  H
  C7       1.0000 0.40990  0.37160  0.28470  Biso   1.000  C
  H4       1.0000 0.37914  0.39422  0.29206  Biso   1.000  H
  C8       1.0000 0.46650  0.21530  0.21370  Biso   1.000  C
  H5       1.0000 0.50647  0.21021  0.21696  Biso   1.000  H
  C9       1.0000 0.43310  0.18450  0.19330  Biso   1.000  C
  C10      1.0000 0.45230  0.13930  0.17346  Biso   1.000  C
  C11      1.0000 0.50780  0.11460  0.17375  Biso   1.000  C
  H6       1.0000 0.53560  0.12782  0.18759  Biso   1.000  H
  C12      1.0000 0.52130  0.07270  0.15458  Biso   1.000  C
  H7       1.0000 0.55882  0.05687  0.15550  Biso   1.000  H
  C13      1.0000 0.48150  0.04990  0.13228  Biso   1.000  C
  C14      1.0000 0.42660  0.07440  0.13250  Biso   1.000  C
  H8       1.0000 0.39767  0.05948  0.11977  Biso   1.000  H
  C15      1.0000 0.41370  0.12230  0.15190  Biso   1.000  C
  H9       1.0000 0.37834  0.14219  0.14982  Biso   1.000  H
  C16      1.0000 0.44830  0.98290  0.08983  Biso   1.000  C
  C17      1.0000 0.42340  0.92870  0.08913  Biso   1.000  C
  H10      1.0000 0.43728  0.90075  0.10271  Biso   1.000  H
  C18      1.0000 0.37910  0.91240  0.06981  Biso   1.000  C
  H11      1.0000 0.36448  0.87435  0.07041  Biso   1.000  H
  C19      1.0000 0.35680  0.95160  0.04990  Biso   1.000  C
  C20      1.0000 0.38090  0.00950  0.04813  Biso   1.000  C
  H12      1.0000 0.36610  0.03775  0.03499  Biso   1.000  H
  C21      1.0000 0.42910  0.02080  0.06786  Biso   1.000  C
  H13      1.0000 0.44875  0.05631  0.06569  Biso   1.000  H
  C22      1.0000 0.30550  0.94030  0.02900  Biso   1.000  C
  C23      1.0000 0.28310  0.97010  0.00668  Biso   1.000  C
  H14      1.0000 0.29362  0.00723  0.99991  Biso   1.000  H
  C24      1.0000 0.20060  0.94400  0.97310  Biso   1.000  C
  C25      1.0000 0.16200  0.90370  0.96135  Biso   1.000  C
  H15      1.0000 0.16253  0.86616  0.96956  Biso   1.000  H
  C26      1.0000 0.12180  0.91480  0.93777  Biso   1.000  C
  H16      1.0000 0.09757  0.88512  0.93059  Biso   1.000  H
  C27      1.0000 0.11900  0.96960  0.92569  Biso   1.000  C
  C28      1.0000 0.15760  0.01300  0.93543  Biso   1.000  C
  H17      1.0000 0.15750  0.04963  0.92615  Biso   1.000  H
  C29      1.0000 0.19710  0.00110  0.95973  Biso   1.000  C
  H18      1.0000 0.22117  0.03090  0.96698  Biso   1.000  H
  C30      1.0000 0.07510  0.98020  0.90170  Biso   1.000  C
  Cu2      1.0000 0.44418  0.51549  0.36105  Biso   1.000  Cu
  O5       1.0000 0.46780  0.57040  0.33004  Biso   1.000  O
  O6       1.0000 0.56530  0.54450  0.32993  Biso   1.000  O
  O7       1.0000 0.92970  0.96710  0.89206  Biso   1.000  O
  O8       1.0000 0.95695  0.06130  0.89259  Biso   1.000  O
  N7       1.0000 0.56810  0.74560  0.22840  Biso   1.000  N
  N8       1.0000 0.62340  0.74770  0.21410  Biso   1.000  N
  N9       1.0000 0.61860  0.78900  0.19400  Biso   1.000  N
  N10      1.0000 0.72430  0.10850  0.03250  Biso   1.000  N
  N11      1.0000 0.76630  0.10960  0.01330  Biso   1.000  N
  N12      1.0000 0.75770  0.06480  0.99593  Biso   1.000  N
  C31      1.0000 0.52270  0.57540  0.32022  Biso   1.000  C
  C32      1.0000 0.53480  0.62150  0.29707  Biso   1.000  C
  C33      1.0000 0.49130  0.65350  0.28690  Biso   1.000  C
  H19      1.0000 0.45400  0.64900  0.29511  Biso   1.000  H
  C34      1.0000 0.50020  0.69280  0.26450  Biso   1.000  C
  H20      1.0000 0.46885  0.71515  0.25748  Biso   1.000  H
  C35      1.0000 0.55210  0.70030  0.25240  Biso   1.000  C
  C36      1.0000 0.60070  0.66800  0.26180  Biso   1.000  C
  H21      1.0000 0.63768  0.67281  0.25328  Biso   1.000  H
  C37      1.0000 0.59010  0.62840  0.28470  Biso   1.000  C
  H22      1.0000 0.62086  0.60578  0.29206  Biso   1.000  H
  C38      1.0000 0.53350  0.78470  0.21370  Biso   1.000  C
  H23      1.0000 0.49353  0.78979  0.21696  Biso   1.000  H
  C39      1.0000 0.56690  0.81550  0.19330  Biso   1.000  C
  C40      1.0000 0.54770  0.86070  0.17346  Biso   1.000  C
  C41      1.0000 0.49220  0.88540  0.17375  Biso   1.000  C
  H24      1.0000 0.46440  0.87218  0.18759  Biso   1.000  H
  C42      1.0000 0.47870  0.92730  0.15458  Biso   1.000  C
  H25      1.0000 0.44118  0.94313  0.15550  Biso   1.000  H
  C43      1.0000 0.51850  0.95010  0.13228  Biso   1.000  C
  C44      1.0000 0.57340  0.92560  0.13250  Biso   1.000  C
  H26      1.0000 0.60233  0.94052  0.11977  Biso   1.000  H
  C45      1.0000 0.58630  0.87770  0.15190  Biso   1.000  C
  H27      1.0000 0.62166  0.85781  0.14982  Biso   1.000  H
  C46      1.0000 0.55170  0.01710  0.08983  Biso   1.000  C
  C47      1.0000 0.57660  0.07130  0.08913  Biso   1.000  C
  H28      1.0000 0.56272  0.09925  0.10271  Biso   1.000  H
  C48      1.0000 0.62090  0.08760  0.06981  Biso   1.000  C
  H29      1.0000 0.63552  0.12565  0.07041  Biso   1.000  H
  C49      1.0000 0.64320  0.04840  0.04990  Biso   1.000  C
  C50      1.0000 0.61910  0.99050  0.04813  Biso   1.000  C
  H30      1.0000 0.63390  0.96225  0.03499  Biso   1.000  H
  C51      1.0000 0.57090  0.97920  0.06786  Biso   1.000  C
  H31      1.0000 0.55125  0.94369  0.06569  Biso   1.000  H
  C52      1.0000 0.69450  0.05970  0.02900  Biso   1.000  C
  C53      1.0000 0.71690  0.02990  0.00668  Biso   1.000  C
  H32      1.0000 0.70638  0.99277  0.99991  Biso   1.000  H
  C54      1.0000 0.79940  0.05600  0.97310  Biso   1.000  C
  C55      1.0000 0.83800  0.09630  0.96135  Biso   1.000  C
  H33      1.0000 0.83747  0.13384  0.96956  Biso   1.000  H
  C56      1.0000 0.87820  0.08520  0.93777  Biso   1.000  C
  H34      1.0000 0.90243  0.11488  0.93059  Biso   1.000  H
  C57      1.0000 0.88100  0.03040  0.92569  Biso   1.000  C
  C58      1.0000 0.84240  0.98700  0.93543  Biso   1.000  C
  H35      1.0000 0.84250  0.95037  0.92615  Biso   1.000  H
  C59      1.0000 0.80290  0.99890  0.95973  Biso   1.000  C
  H36      1.0000 0.77883  0.96910  0.96698  Biso   1.000  H
  C60      1.0000 0.92490  0.01980  0.90170  Biso   1.000  C
  Cu3      1.0000 0.01549  0.05582  0.86105  Biso   1.000  Cu
  O9       1.0000 0.07040  0.03220  0.83004  Biso   1.000  O
  O10      1.0000 0.04450  0.93470  0.82993  Biso   1.000  O
  O11      1.0000 0.46710  0.57030  0.39206  Biso   1.000  O
  O12      1.0000 0.56130  0.54305  0.39259  Biso   1.000  O
  N13      1.0000 0.24560  0.93190  0.72840  Biso   1.000  N
  N14      1.0000 0.24770  0.87660  0.71410  Biso   1.000  N
  N15      1.0000 0.28900  0.88140  0.69400  Biso   1.000  N
  N16      1.0000 0.60850  0.77570  0.53250  Biso   1.000  N
  N17      1.0000 0.60960  0.73370  0.51330  Biso   1.000  N
  N18      1.0000 0.56480  0.74230  0.49593  Biso   1.000  N
  C61      1.0000 0.07540  0.97730  0.82022  Biso   1.000  C
  C62      1.0000 0.12150  0.96520  0.79707  Biso   1.000  C
  C63      1.0000 0.15350  0.00870  0.78690  Biso   1.000  C
  H37      1.0000 0.14900  0.04600  0.79511  Biso   1.000  H
  C64      1.0000 0.19280  0.99980  0.76450  Biso   1.000  C
  H38      1.0000 0.21515  0.03115  0.75748  Biso   1.000  H
  C65      1.0000 0.20030  0.94790  0.75240  Biso   1.000  C
  C66      1.0000 0.16800  0.89930  0.76180  Biso   1.000  C
  H39      1.0000 0.17281  0.86232  0.75328  Biso   1.000  H
  C67      1.0000 0.12840  0.90990  0.78470  Biso   1.000  C
  H40      1.0000 0.10578  0.87914  0.79206  Biso   1.000  H
  C68      1.0000 0.28470  0.96650  0.71370  Biso   1.000  C
  H41      1.0000 0.28979  0.00647  0.71696  Biso   1.000  H
  C69      1.0000 0.31550  0.93310  0.69330  Biso   1.000  C
  C70      1.0000 0.36070  0.95230  0.67346  Biso   1.000  C
  C71      1.0000 0.38540  0.00780  0.67375  Biso   1.000  C
  H42      1.0000 0.37218  0.03560  0.68759  Biso   1.000  H
  C72      1.0000 0.42730  0.02130  0.65458  Biso   1.000  C
  H43      1.0000 0.44313  0.05882  0.65550  Biso   1.000  H
  C73      1.0000 0.45010  0.98150  0.63228  Biso   1.000  C
  C74      1.0000 0.42560  0.92660  0.63250  Biso   1.000  C
  H44      1.0000 0.44052  0.89767  0.61977  Biso   1.000  H
  C75      1.0000 0.37770  0.91370  0.65190  Biso   1.000  C
  H45      1.0000 0.35781  0.87834  0.64982  Biso   1.000  H
  C76      1.0000 0.51710  0.94830  0.58983  Biso   1.000  C
  C77      1.0000 0.57130  0.92340  0.58913  Biso   1.000  C
  H46      1.0000 0.59925  0.93728  0.60271  Biso   1.000  H
  C78      1.0000 0.58760  0.87910  0.56981  Biso   1.000  C
  H47      1.0000 0.62565  0.86448  0.57041  Biso   1.000  H
  C79      1.0000 0.54840  0.85680  0.54990  Biso   1.000  C
  C80      1.0000 0.49050  0.88090  0.54813  Biso   1.000  C
  H48      1.0000 0.46225  0.86610  0.53499  Biso   1.000  H
  C81      1.0000 0.47920  0.92910  0.56786  Biso   1.000  C
  H49      1.0000 0.44369  0.94875  0.56569  Biso   1.000  H
  C82      1.0000 0.55970  0.80550  0.52900  Biso   1.000  C
  C83      1.0000 0.52990  0.78310  0.50668  Biso   1.000  C
  H50      1.0000 0.49277  0.79362  0.49991  Biso   1.000  H
  C84      1.0000 0.55600  0.70060  0.47310  Biso   1.000  C
  C85      1.0000 0.59630  0.66200  0.46135  Biso   1.000  C
  H51      1.0000 0.63384  0.66253  0.46956  Biso   1.000  H
  C86      1.0000 0.58520  0.62180  0.43777  Biso   1.000  C
  H52      1.0000 0.61488  0.59757  0.43059  Biso   1.000  H
  C87      1.0000 0.53040  0.61900  0.42569  Biso   1.000  C
  C88      1.0000 0.48700  0.65760  0.43543  Biso   1.000  C
  H53      1.0000 0.45037  0.65750  0.42615  Biso   1.000  H
  C89      1.0000 0.49890  0.69710  0.45973  Biso   1.000  C
  H54      1.0000 0.46910  0.72117  0.46698  Biso   1.000  H
  C90      1.0000 0.51980  0.57510  0.40170  Biso   1.000  C
  Cu4      1.0000 0.98451  0.94418  0.86105  Biso   1.000  Cu
  O13      1.0000 0.92960  0.96780  0.83004  Biso   1.000  O
  O14      1.0000 0.95550  0.06530  0.82993  Biso   1.000  O
  O15      1.0000 0.53290  0.42970  0.39206  Biso   1.000  O
  O16      1.0000 0.43870  0.45695  0.39259  Biso   1.000  O
  N19      1.0000 0.75440  0.06810  0.72840  Biso   1.000  N
  N20      1.0000 0.75230  0.12340  0.71410  Biso   1.000  N
  N21      1.0000 0.71100  0.11860  0.69400  Biso   1.000  N
  N22      1.0000 0.39150  0.22430  0.53250  Biso   1.000  N
  N23      1.0000 0.39040  0.26630  0.51330  Biso   1.000  N
  N24      1.0000 0.43520  0.25770  0.49593  Biso   1.000  N
  C91      1.0000 0.92460  0.02270  0.82022  Biso   1.000  C
  C92      1.0000 0.87850  0.03480  0.79707  Biso   1.000  C
  C93      1.0000 0.84650  0.99130  0.78690  Biso   1.000  C
  H55      1.0000 0.85100  0.95400  0.79511  Biso   1.000  H
  C94      1.0000 0.80720  0.00020  0.76450  Biso   1.000  C
  H56      1.0000 0.78485  0.96885  0.75748  Biso   1.000  H
  C95      1.0000 0.79970  0.05210  0.75240  Biso   1.000  C
  C96      1.0000 0.83200  0.10070  0.76180  Biso   1.000  C
  H57      1.0000 0.82719  0.13768  0.75328  Biso   1.000  H
  C97      1.0000 0.87160  0.09010  0.78470  Biso   1.000  C
  H58      1.0000 0.89422  0.12086  0.79206  Biso   1.000  H
  C98      1.0000 0.71530  0.03350  0.71370  Biso   1.000  C
  H59      1.0000 0.71021  0.99353  0.71696  Biso   1.000  H
  C99      1.0000 0.68450  0.06690  0.69330  Biso   1.000  C
  C100     1.0000 0.63930  0.04770  0.67346  Biso   1.000  C
  C101     1.0000 0.61460  0.99220  0.67375  Biso   1.000  C
  H60      1.0000 0.62782  0.96440  0.68759  Biso   1.000  H
  C102     1.0000 0.57270  0.97870  0.65458  Biso   1.000  C
  H61      1.0000 0.55687  0.94118  0.65550  Biso   1.000  H
  C103     1.0000 0.54990  0.01850  0.63228  Biso   1.000  C
  C104     1.0000 0.57440  0.07340  0.63250  Biso   1.000  C
  H62      1.0000 0.55948  0.10233  0.61977  Biso   1.000  H
  C105     1.0000 0.62230  0.08630  0.65190  Biso   1.000  C
  H63      1.0000 0.64219  0.12166  0.64982  Biso   1.000  H
  C106     1.0000 0.48290  0.05170  0.58983  Biso   1.000  C
  C107     1.0000 0.42870  0.07660  0.58913  Biso   1.000  C
  H64      1.0000 0.40075  0.06272  0.60271  Biso   1.000  H
  C108     1.0000 0.41240  0.12090  0.56981  Biso   1.000  C
  H65      1.0000 0.37435  0.13552  0.57041  Biso   1.000  H
  C109     1.0000 0.45160  0.14320  0.54990  Biso   1.000  C
  C110     1.0000 0.50950  0.11910  0.54813  Biso   1.000  C
  H66      1.0000 0.53775  0.13390  0.53499  Biso   1.000  H
  C111     1.0000 0.52080  0.07090  0.56786  Biso   1.000  C
  H67      1.0000 0.55631  0.05125  0.56569  Biso   1.000  H
  C112     1.0000 0.44030  0.19450  0.52900  Biso   1.000  C
  C113     1.0000 0.47010  0.21690  0.50668  Biso   1.000  C
  H68      1.0000 0.50723  0.20638  0.49991  Biso   1.000  H
  C114     1.0000 0.44400  0.29940  0.47310  Biso   1.000  C
  C115     1.0000 0.40370  0.33800  0.46135  Biso   1.000  C
  H69      1.0000 0.36616  0.33747  0.46956  Biso   1.000  H
  C116     1.0000 0.41480  0.37820  0.43777  Biso   1.000  C
  H70      1.0000 0.38512  0.40243  0.43059  Biso   1.000  H
  C117     1.0000 0.46960  0.38100  0.42569  Biso   1.000  C
  C118     1.0000 0.51300  0.34240  0.43543  Biso   1.000  C
  H71      1.0000 0.54963  0.34250  0.42615  Biso   1.000  H
  C119     1.0000 0.50110  0.30290  0.45973  Biso   1.000  C
  H72      1.0000 0.53090  0.27883  0.46698  Biso   1.000  H
  C120     1.0000 0.48020  0.42490  0.40170  Biso   1.000  C
  C121     1.0000 0.50000  0.00000  0.11010  Biso   1.000  C
  C122     1.0000 0.50000  0.00000  0.61010  Biso   1.000  C
  Cu5      1.0000 0.94418  0.98451  0.13895  Biso   1.000  Cu
  O17      1.0000 0.96780  0.92960  0.16996  Biso   1.000  O
  O18      1.0000 0.06530  0.95550  0.17007  Biso   1.000  O
  O19      1.0000 0.42970  0.53290  0.60794  Biso   1.000  O
  O20      1.0000 0.45695  0.43870  0.60741  Biso   1.000  O
  N25      1.0000 0.06810  0.75440  0.27160  Biso   1.000  N
  N26      1.0000 0.12340  0.75230  0.28590  Biso   1.000  N
  N27      1.0000 0.11860  0.71100  0.30600  Biso   1.000  N
  N28      1.0000 0.22430  0.39150  0.46750  Biso   1.000  N
  N29      1.0000 0.26630  0.39040  0.48670  Biso   1.000  N
  N30      1.0000 0.25770  0.43520  0.50407  Biso   1.000  N
  C123     1.0000 0.02270  0.92460  0.17978  Biso   1.000  C
  C124     1.0000 0.03480  0.87850  0.20293  Biso   1.000  C
  C125     1.0000 0.99130  0.84650  0.21310  Biso   1.000  C
  H73      1.0000 0.95400  0.85100  0.20489  Biso   1.000  H
  C126     1.0000 0.00020  0.80720  0.23550  Biso   1.000  C
  H74      1.0000 0.96885  0.78485  0.24252  Biso   1.000  H
  C127     1.0000 0.05210  0.79970  0.24760  Biso   1.000  C
  C128     1.0000 0.10070  0.83200  0.23820  Biso   1.000  C
  H75      1.0000 0.13768  0.82719  0.24672  Biso   1.000  H
  C129     1.0000 0.09010  0.87160  0.21530  Biso   1.000  C
  H76      1.0000 0.12086  0.89422  0.20794  Biso   1.000  H
  C130     1.0000 0.03350  0.71530  0.28630  Biso   1.000  C
  H77      1.0000 0.99353  0.71021  0.28304  Biso   1.000  H
  C131     1.0000 0.06690  0.68450  0.30670  Biso   1.000  C
  C132     1.0000 0.04770  0.63930  0.32654  Biso   1.000  C
  C133     1.0000 0.99220  0.61460  0.32625  Biso   1.000  C
  H78      1.0000 0.96440  0.62782  0.31241  Biso   1.000  H
  C134     1.0000 0.97870  0.57270  0.34542  Biso   1.000  C
  H79      1.0000 0.94118  0.55687  0.34450  Biso   1.000  H
  C135     1.0000 0.01850  0.54990  0.36772  Biso   1.000  C
  C136     1.0000 0.07340  0.57440  0.36750  Biso   1.000  C
  H80      1.0000 0.10233  0.55948  0.38023  Biso   1.000  H
  C137     1.0000 0.08630  0.62230  0.34810  Biso   1.000  C
  H81      1.0000 0.12166  0.64219  0.35018  Biso   1.000  H
  C138     1.0000 0.05170  0.48290  0.41017  Biso   1.000  C
  C139     1.0000 0.07660  0.42870  0.41087  Biso   1.000  C
  H82      1.0000 0.06272  0.40075  0.39729  Biso   1.000  H
  C140     1.0000 0.12090  0.41240  0.43019  Biso   1.000  C
  H83      1.0000 0.13552  0.37435  0.42959  Biso   1.000  H
  C141     1.0000 0.14320  0.45160  0.45010  Biso   1.000  C
  C142     1.0000 0.11910  0.50950  0.45187  Biso   1.000  C
  H84      1.0000 0.13390  0.53775  0.46501  Biso   1.000  H
  C143     1.0000 0.07090  0.52080  0.43214  Biso   1.000  C
  H85      1.0000 0.05125  0.55631  0.43431  Biso   1.000  H
  C144     1.0000 0.19450  0.44030  0.47100  Biso   1.000  C
  C145     1.0000 0.21690  0.47010  0.49332  Biso   1.000  C
  H86      1.0000 0.20638  0.50723  0.50009  Biso   1.000  H
  C146     1.0000 0.29940  0.44400  0.52690  Biso   1.000  C
  C147     1.0000 0.33800  0.40370  0.53865  Biso   1.000  C
  H87      1.0000 0.33747  0.36616  0.53044  Biso   1.000  H
  C148     1.0000 0.37820  0.41480  0.56223  Biso   1.000  C
  H88      1.0000 0.40243  0.38512  0.56941  Biso   1.000  H
  C149     1.0000 0.38100  0.46960  0.57431  Biso   1.000  C
  C150     1.0000 0.34240  0.51300  0.56457  Biso   1.000  C
  H89      1.0000 0.34250  0.54963  0.57385  Biso   1.000  H
  C151     1.0000 0.30290  0.50110  0.54027  Biso   1.000  C
  H90      1.0000 0.27883  0.53090  0.53302  Biso   1.000  H
  C152     1.0000 0.42490  0.48020  0.59830  Biso   1.000  C
  Cu6      1.0000 0.05582  0.01549  0.13895  Biso   1.000  Cu
  O21      1.0000 0.03220  0.07040  0.16996  Biso   1.000  O
  O22      1.0000 0.93470  0.04450  0.17007  Biso   1.000  O
  O23      1.0000 0.57030  0.46710  0.60794  Biso   1.000  O
  O24      1.0000 0.54305  0.56130  0.60741  Biso   1.000  O
  N31      1.0000 0.93190  0.24560  0.27160  Biso   1.000  N
  N32      1.0000 0.87660  0.24770  0.28590  Biso   1.000  N
  N33      1.0000 0.88140  0.28900  0.30600  Biso   1.000  N
  N34      1.0000 0.77570  0.60850  0.46750  Biso   1.000  N
  N35      1.0000 0.73370  0.60960  0.48670  Biso   1.000  N
  N36      1.0000 0.74230  0.56480  0.50407  Biso   1.000  N
  C153     1.0000 0.97730  0.07540  0.17978  Biso   1.000  C
  C154     1.0000 0.96520  0.12150  0.20293  Biso   1.000  C
  C155     1.0000 0.00870  0.15350  0.21310  Biso   1.000  C
  H91      1.0000 0.04600  0.14900  0.20489  Biso   1.000  H
  C156     1.0000 0.99980  0.19280  0.23550  Biso   1.000  C
  H92      1.0000 0.03115  0.21515  0.24252  Biso   1.000  H
  C157     1.0000 0.94790  0.20030  0.24760  Biso   1.000  C
  C158     1.0000 0.89930  0.16800  0.23820  Biso   1.000  C
  H93      1.0000 0.86232  0.17281  0.24672  Biso   1.000  H
  C159     1.0000 0.90990  0.12840  0.21530  Biso   1.000  C
  H94      1.0000 0.87914  0.10578  0.20794  Biso   1.000  H
  C160     1.0000 0.96650  0.28470  0.28630  Biso   1.000  C
  H95      1.0000 0.00647  0.28979  0.28304  Biso   1.000  H
  C161     1.0000 0.93310  0.31550  0.30670  Biso   1.000  C
  C162     1.0000 0.95230  0.36070  0.32654  Biso   1.000  C
  C163     1.0000 0.00780  0.38540  0.32625  Biso   1.000  C
  H96      1.0000 0.03560  0.37218  0.31241  Biso   1.000  H
  C164     1.0000 0.02130  0.42730  0.34542  Biso   1.000  C
  H97      1.0000 0.05882  0.44313  0.34450  Biso   1.000  H
  C165     1.0000 0.98150  0.45010  0.36772  Biso   1.000  C
  C166     1.0000 0.92660  0.42560  0.36750  Biso   1.000  C
  H98      1.0000 0.89767  0.44052  0.38023  Biso   1.000  H
  C167     1.0000 0.91370  0.37770  0.34810  Biso   1.000  C
  H99      1.0000 0.87834  0.35781  0.35018  Biso   1.000  H
  C168     1.0000 0.94830  0.51710  0.41017  Biso   1.000  C
  C169     1.0000 0.92340  0.57130  0.41087  Biso   1.000  C
  H100     1.0000 0.93728  0.59925  0.39729  Biso   1.000  H
  C170     1.0000 0.87910  0.58760  0.43019  Biso   1.000  C
  H101     1.0000 0.86448  0.62565  0.42959  Biso   1.000  H
  C171     1.0000 0.85680  0.54840  0.45010  Biso   1.000  C
  C172     1.0000 0.88090  0.49050  0.45187  Biso   1.000  C
  H102     1.0000 0.86610  0.46225  0.46501  Biso   1.000  H
  C173     1.0000 0.92910  0.47920  0.43214  Biso   1.000  C
  H103     1.0000 0.94875  0.44369  0.43431  Biso   1.000  H
  C174     1.0000 0.80550  0.55970  0.47100  Biso   1.000  C
  C175     1.0000 0.78310  0.52990  0.49332  Biso   1.000  C
  H104     1.0000 0.79362  0.49277  0.50009  Biso   1.000  H
  C176     1.0000 0.70060  0.55600  0.52690  Biso   1.000  C
  C177     1.0000 0.66200  0.59630  0.53865  Biso   1.000  C
  H105     1.0000 0.66253  0.63384  0.53044  Biso   1.000  H
  C178     1.0000 0.62180  0.58520  0.56223  Biso   1.000  C
  H106     1.0000 0.59757  0.61488  0.56941  Biso   1.000  H
  C179     1.0000 0.61900  0.53040  0.57431  Biso   1.000  C
  C180     1.0000 0.65760  0.48700  0.56457  Biso   1.000  C
  H107     1.0000 0.65750  0.45037  0.57385  Biso   1.000  H
  C181     1.0000 0.69710  0.49890  0.54027  Biso   1.000  C
  H108     1.0000 0.72117  0.46910  0.53302  Biso   1.000  H
  C182     1.0000 0.57510  0.51980  0.59830  Biso   1.000  C
  Cu7      1.0000 0.48451  0.55582  0.63895  Biso   1.000  Cu
  O25      1.0000 0.42960  0.53220  0.66996  Biso   1.000  O
  O26      1.0000 0.45550  0.43470  0.67007  Biso   1.000  O
  O27      1.0000 0.03290  0.07030  0.10794  Biso   1.000  O
  O28      1.0000 0.93870  0.04305  0.10741  Biso   1.000  O
  N37      1.0000 0.25440  0.43190  0.77160  Biso   1.000  N
  N38      1.0000 0.25230  0.37660  0.78590  Biso   1.000  N
  N39      1.0000 0.21100  0.38140  0.80600  Biso   1.000  N
  N40      1.0000 0.89150  0.27570  0.96750  Biso   1.000  N
  N41      1.0000 0.89040  0.23370  0.98670  Biso   1.000  N
  N42      1.0000 0.93520  0.24230  0.00407  Biso   1.000  N
  C183     1.0000 0.42460  0.47730  0.67978  Biso   1.000  C
  C184     1.0000 0.37850  0.46520  0.70293  Biso   1.000  C
  C185     1.0000 0.34650  0.50870  0.71310  Biso   1.000  C
  H109     1.0000 0.35100  0.54600  0.70489  Biso   1.000  H
  C186     1.0000 0.30720  0.49980  0.73550  Biso   1.000  C
  H110     1.0000 0.28485  0.53115  0.74252  Biso   1.000  H
  C187     1.0000 0.29970  0.44790  0.74760  Biso   1.000  C
  C188     1.0000 0.33200  0.39930  0.73820  Biso   1.000  C
  H111     1.0000 0.32719  0.36232  0.74672  Biso   1.000  H
  C189     1.0000 0.37160  0.40990  0.71530  Biso   1.000  C
  H112     1.0000 0.39422  0.37914  0.70794  Biso   1.000  H
  C190     1.0000 0.21530  0.46650  0.78630  Biso   1.000  C
  H113     1.0000 0.21021  0.50647  0.78304  Biso   1.000  H
  C191     1.0000 0.18450  0.43310  0.80670  Biso   1.000  C
  C192     1.0000 0.13930  0.45230  0.82654  Biso   1.000  C
  C193     1.0000 0.11460  0.50780  0.82625  Biso   1.000  C
  H114     1.0000 0.12782  0.53560  0.81241  Biso   1.000  H
  C194     1.0000 0.07270  0.52130  0.84542  Biso   1.000  C
  H115     1.0000 0.05687  0.55882  0.84450  Biso   1.000  H
  C195     1.0000 0.04990  0.48150  0.86772  Biso   1.000  C
  C196     1.0000 0.07440  0.42660  0.86750  Biso   1.000  C
  H116     1.0000 0.05948  0.39767  0.88023  Biso   1.000  H
  C197     1.0000 0.12230  0.41370  0.84810  Biso   1.000  C
  H117     1.0000 0.14219  0.37834  0.85018  Biso   1.000  H
  C198     1.0000 0.98290  0.44830  0.91017  Biso   1.000  C
  C199     1.0000 0.92870  0.42340  0.91087  Biso   1.000  C
  H118     1.0000 0.90075  0.43728  0.89729  Biso   1.000  H
  C200     1.0000 0.91240  0.37910  0.93019  Biso   1.000  C
  H119     1.0000 0.87435  0.36448  0.92959  Biso   1.000  H
  C201     1.0000 0.95160  0.35680  0.95010  Biso   1.000  C
  C202     1.0000 0.00950  0.38090  0.95187  Biso   1.000  C
  H120     1.0000 0.03775  0.36610  0.96501  Biso   1.000  H
  C203     1.0000 0.02080  0.42910  0.93214  Biso   1.000  C
  H121     1.0000 0.05631  0.44875  0.93431  Biso   1.000  H
  C204     1.0000 0.94030  0.30550  0.97100  Biso   1.000  C
  C205     1.0000 0.97010  0.28310  0.99332  Biso   1.000  C
  H122     1.0000 0.00723  0.29362  0.00009  Biso   1.000  H
  C206     1.0000 0.94400  0.20060  0.02690  Biso   1.000  C
  C207     1.0000 0.90370  0.16200  0.03865  Biso   1.000  C
  H123     1.0000 0.86616  0.16253  0.03044  Biso   1.000  H
  C208     1.0000 0.91480  0.12180  0.06223  Biso   1.000  C
  H124     1.0000 0.88512  0.09757  0.06941  Biso   1.000  H
  C209     1.0000 0.96960  0.11900  0.07431  Biso   1.000  C
  C210     1.0000 0.01300  0.15760  0.06457  Biso   1.000  C
  H125     1.0000 0.04963  0.15750  0.07385  Biso   1.000  H
  C211     1.0000 0.00110  0.19710  0.04027  Biso   1.000  C
  H126     1.0000 0.03090  0.22117  0.03302  Biso   1.000  H
  C212     1.0000 0.98020  0.07510  0.09830  Biso   1.000  C
  Cu8      1.0000 0.51549  0.44418  0.63895  Biso   1.000  Cu
  O29      1.0000 0.57040  0.46780  0.66996  Biso   1.000  O
  O30      1.0000 0.54450  0.56530  0.67007  Biso   1.000  O
  O31      1.0000 0.96710  0.92970  0.10794  Biso   1.000  O
  O32      1.0000 0.06130  0.95695  0.10741  Biso   1.000  O
  N43      1.0000 0.74560  0.56810  0.77160  Biso   1.000  N
  N44      1.0000 0.74770  0.62340  0.78590  Biso   1.000  N
  N45      1.0000 0.78900  0.61860  0.80600  Biso   1.000  N
  N46      1.0000 0.10850  0.72430  0.96750  Biso   1.000  N
  N47      1.0000 0.10960  0.76630  0.98670  Biso   1.000  N
  N48      1.0000 0.06480  0.75770  0.00407  Biso   1.000  N
  C213     1.0000 0.57540  0.52270  0.67978  Biso   1.000  C
  C214     1.0000 0.62150  0.53480  0.70293  Biso   1.000  C
  C215     1.0000 0.65350  0.49130  0.71310  Biso   1.000  C
  H127     1.0000 0.64900  0.45400  0.70489  Biso   1.000  H
  C216     1.0000 0.69280  0.50020  0.73550  Biso   1.000  C
  H128     1.0000 0.71515  0.46885  0.74252  Biso   1.000  H
  C217     1.0000 0.70030  0.55210  0.74760  Biso   1.000  C
  C218     1.0000 0.66800  0.60070  0.73820  Biso   1.000  C
  H129     1.0000 0.67281  0.63768  0.74672  Biso   1.000  H
  C219     1.0000 0.62840  0.59010  0.71530  Biso   1.000  C
  H130     1.0000 0.60578  0.62086  0.70794  Biso   1.000  H
  C220     1.0000 0.78470  0.53350  0.78630  Biso   1.000  C
  H131     1.0000 0.78979  0.49353  0.78304  Biso   1.000  H
  C221     1.0000 0.81550  0.56690  0.80670  Biso   1.000  C
  C222     1.0000 0.86070  0.54770  0.82654  Biso   1.000  C
  C223     1.0000 0.88540  0.49220  0.82625  Biso   1.000  C
  H132     1.0000 0.87218  0.46440  0.81241  Biso   1.000  H
  C224     1.0000 0.92730  0.47870  0.84542  Biso   1.000  C
  H133     1.0000 0.94313  0.44118  0.84450  Biso   1.000  H
  C225     1.0000 0.95010  0.51850  0.86772  Biso   1.000  C
  C226     1.0000 0.92560  0.57340  0.86750  Biso   1.000  C
  H134     1.0000 0.94052  0.60233  0.88023  Biso   1.000  H
  C227     1.0000 0.87770  0.58630  0.84810  Biso   1.000  C
  H135     1.0000 0.85781  0.62166  0.85018  Biso   1.000  H
  C228     1.0000 0.01710  0.55170  0.91017  Biso   1.000  C
  C229     1.0000 0.07130  0.57660  0.91087  Biso   1.000  C
  H136     1.0000 0.09925  0.56272  0.89729  Biso   1.000  H
  C230     1.0000 0.08760  0.62090  0.93019  Biso   1.000  C
  H137     1.0000 0.12565  0.63552  0.92959  Biso   1.000  H
  C231     1.0000 0.04840  0.64320  0.95010  Biso   1.000  C
  C232     1.0000 0.99050  0.61910  0.95187  Biso   1.000  C
  H138     1.0000 0.96225  0.63390  0.96501  Biso   1.000  H
  C233     1.0000 0.97920  0.57090  0.93214  Biso   1.000  C
  H139     1.0000 0.94369  0.55125  0.93431  Biso   1.000  H
  C234     1.0000 0.05970  0.69450  0.97100  Biso   1.000  C
  C235     1.0000 0.02990  0.71690  0.99332  Biso   1.000  C
  H140     1.0000 0.99277  0.70638  0.00009  Biso   1.000  H
  C236     1.0000 0.05600  0.79940  0.02690  Biso   1.000  C
  C237     1.0000 0.09630  0.83800  0.03865  Biso   1.000  C
  H141     1.0000 0.13384  0.83747  0.03044  Biso   1.000  H
  C238     1.0000 0.08520  0.87820  0.06223  Biso   1.000  C
  H142     1.0000 0.11488  0.90243  0.06941  Biso   1.000  H
  C239     1.0000 0.03040  0.88100  0.07431  Biso   1.000  C
  C240     1.0000 0.98700  0.84240  0.06457  Biso   1.000  C
  H143     1.0000 0.95037  0.84250  0.07385  Biso   1.000  H
  C241     1.0000 0.99890  0.80290  0.04027  Biso   1.000  C
  H144     1.0000 0.96910  0.77883  0.03302  Biso   1.000  H
  C242     1.0000 0.01980  0.92490  0.09830  Biso   1.000  C
  C243     1.0000 0.00000  0.50000  0.38990  Biso   1.000  C
  C244     1.0000 0.00000  0.50000  0.88990  Biso   1.000  C
