data_image0
_cell_length_a       13.5274
_cell_length_b       13.5274
_cell_length_c       19.2645
_cell_angle_alpha    90
_cell_angle_beta     90
_cell_angle_gamma    120

_symmetry_space_group_name_H-M    "P 1"
_symmetry_int_tables_number       1

loop_
  _symmetry_equiv_pos_as_xyz
  'x, y, z'

loop_
  _atom_site_label
  _atom_site_occupancy
  _atom_site_fract_x
  _atom_site_fract_y
  _atom_site_fract_z
  _atom_site_thermal_displace_type
  _atom_site_B_iso_or_equiv
  _atom_site_type_symbol
  Fe1      1.0000 0.85560  0.56550  0.45037  Biso   1.000  Fe
  P1       1.0000 0.96350  0.81210  0.37120  Biso   1.000  P
  P2       1.0000 0.63210  0.50510  0.54390  Biso   1.000  P
  O1       1.0000 0.88090  0.68600  0.38310  Biso   1.000  O
  O2       1.0000 0.08120  0.82490  0.34750  Biso   1.000  O
  O3       1.0000 0.92340  0.85970  0.31280  Biso   1.000  O
  O4       1.0000 0.98360  0.87480  0.44020  Biso   1.000  O
  O5       1.0000 0.71350  0.56410  0.48370  Biso   1.000  O
  O6       1.0000 0.70250  0.49500  0.60660  Biso   1.000  O
  O7       1.0000 0.00590  0.58000  0.42890  Biso   1.000  O
  O8       1.0000 0.83920  0.45720  0.52730  Biso   1.000  O
  O9       1.0000 0.77220  0.44320  0.38620  Biso   1.000  O
  Fe2      1.0000 0.43450  0.29010  0.45037  Biso   1.000  Fe
  P3       1.0000 0.18790  0.15140  0.37120  Biso   1.000  P
  P4       1.0000 0.49490  0.12700  0.54390  Biso   1.000  P
  O10      1.0000 0.31400  0.19490  0.38310  Biso   1.000  O
  O11      1.0000 0.17510  0.25630  0.34750  Biso   1.000  O
  O12      1.0000 0.14030  0.06370  0.31280  Biso   1.000  O
  O13      1.0000 0.12520  0.10880  0.44020  Biso   1.000  O
  O14      1.0000 0.43590  0.14940  0.48370  Biso   1.000  O
  O15      1.0000 0.50500  0.20750  0.60660  Biso   1.000  O
  O16      1.0000 0.42000  0.42590  0.42890  Biso   1.000  O
  O17      1.0000 0.54280  0.38200  0.52730  Biso   1.000  O
  O18      1.0000 0.55680  0.32900  0.38620  Biso   1.000  O
  Fe3      1.0000 0.70990  0.14440  0.45037  Biso   1.000  Fe
  P5       1.0000 0.84860  0.03650  0.37120  Biso   1.000  P
  P6       1.0000 0.87300  0.36790  0.54390  Biso   1.000  P
  O19      1.0000 0.80510  0.11910  0.38310  Biso   1.000  O
  O20      1.0000 0.74370  0.91880  0.34750  Biso   1.000  O
  O21      1.0000 0.93630  0.07660  0.31280  Biso   1.000  O
  O22      1.0000 0.89120  0.01640  0.44020  Biso   1.000  O
  O23      1.0000 0.85060  0.28650  0.48370  Biso   1.000  O
  O24      1.0000 0.79250  0.29750  0.60660  Biso   1.000  O
  O25      1.0000 0.57410  0.99410  0.42890  Biso   1.000  O
  O26      1.0000 0.61800  0.16080  0.52730  Biso   1.000  O
  O27      1.0000 0.67100  0.22780  0.38620  Biso   1.000  O
  Fe4      1.0000 0.56550  0.85560  0.04963  Biso   1.000  Fe
  P7       1.0000 0.81210  0.96350  0.12880  Biso   1.000  P
  P8       1.0000 0.50510  0.63210  0.95610  Biso   1.000  P
  O28      1.0000 0.68600  0.88090  0.11690  Biso   1.000  O
  O29      1.0000 0.82490  0.08120  0.15250  Biso   1.000  O
  O30      1.0000 0.85970  0.92340  0.18720  Biso   1.000  O
  O31      1.0000 0.87480  0.98360  0.05980  Biso   1.000  O
  O32      1.0000 0.56410  0.71350  0.01630  Biso   1.000  O
  O33      1.0000 0.49500  0.70250  0.89340  Biso   1.000  O
  O34      1.0000 0.58000  0.00590  0.07110  Biso   1.000  O
  O35      1.0000 0.45720  0.83920  0.97270  Biso   1.000  O
  O36      1.0000 0.44320  0.77220  0.11380  Biso   1.000  O
  Fe5      1.0000 0.29010  0.43450  0.04963  Biso   1.000  Fe
  P9       1.0000 0.15140  0.18790  0.12880  Biso   1.000  P
  P10      1.0000 0.12700  0.49490  0.95610  Biso   1.000  P
  O37      1.0000 0.19490  0.31400  0.11690  Biso   1.000  O
  O38      1.0000 0.25630  0.17510  0.15250  Biso   1.000  O
  O39      1.0000 0.06370  0.14030  0.18720  Biso   1.000  O
  O40      1.0000 0.10880  0.12520  0.05980  Biso   1.000  O
  O41      1.0000 0.14940  0.43590  0.01630  Biso   1.000  O
  O42      1.0000 0.20750  0.50500  0.89340  Biso   1.000  O
  O43      1.0000 0.42590  0.42000  0.07110  Biso   1.000  O
  O44      1.0000 0.38200  0.54280  0.97270  Biso   1.000  O
  O45      1.0000 0.32900  0.55680  0.11380  Biso   1.000  O
  Fe6      1.0000 0.14440  0.70990  0.04963  Biso   1.000  Fe
  P11      1.0000 0.03650  0.84860  0.12880  Biso   1.000  P
  P12      1.0000 0.36790  0.87300  0.95610  Biso   1.000  P
  O46      1.0000 0.11910  0.80510  0.11690  Biso   1.000  O
  O47      1.0000 0.91880  0.74370  0.15250  Biso   1.000  O
  O48      1.0000 0.07660  0.93630  0.18720  Biso   1.000  O
  O49      1.0000 0.01640  0.89120  0.05980  Biso   1.000  O
  O50      1.0000 0.28650  0.85060  0.01630  Biso   1.000  O
  O51      1.0000 0.29750  0.79250  0.89340  Biso   1.000  O
  O52      1.0000 0.99410  0.57410  0.07110  Biso   1.000  O
  O53      1.0000 0.16080  0.61800  0.97270  Biso   1.000  O
  O54      1.0000 0.22780  0.67100  0.11380  Biso   1.000  O
  Fe7      1.0000 0.14440  0.43450  0.54963  Biso   1.000  Fe
  P13      1.0000 0.03650  0.18790  0.62880  Biso   1.000  P
  P14      1.0000 0.36790  0.49490  0.45610  Biso   1.000  P
  O55      1.0000 0.11910  0.31400  0.61690  Biso   1.000  O
  O56      1.0000 0.91880  0.17510  0.65250  Biso   1.000  O
  O57      1.0000 0.07660  0.14030  0.68720  Biso   1.000  O
  O58      1.0000 0.01640  0.12520  0.55980  Biso   1.000  O
  O59      1.0000 0.28650  0.43590  0.51630  Biso   1.000  O
  O60      1.0000 0.29750  0.50500  0.39340  Biso   1.000  O
  O61      1.0000 0.99410  0.42000  0.57110  Biso   1.000  O
  O62      1.0000 0.16080  0.54280  0.47270  Biso   1.000  O
  O63      1.0000 0.22780  0.55680  0.61380  Biso   1.000  O
  Fe8      1.0000 0.56550  0.70990  0.54963  Biso   1.000  Fe
  P15      1.0000 0.81210  0.84860  0.62880  Biso   1.000  P
  P16      1.0000 0.50510  0.87300  0.45610  Biso   1.000  P
  O64      1.0000 0.68600  0.80510  0.61690  Biso   1.000  O
  O65      1.0000 0.82490  0.74370  0.65250  Biso   1.000  O
  O66      1.0000 0.85970  0.93630  0.68720  Biso   1.000  O
  O67      1.0000 0.87480  0.89120  0.55980  Biso   1.000  O
  O68      1.0000 0.56410  0.85060  0.51630  Biso   1.000  O
  O69      1.0000 0.49500  0.79250  0.39340  Biso   1.000  O
  O70      1.0000 0.58000  0.57410  0.57110  Biso   1.000  O
  O71      1.0000 0.45720  0.61800  0.47270  Biso   1.000  O
  O72      1.0000 0.44320  0.67100  0.61380  Biso   1.000  O
  Fe9      1.0000 0.29010  0.85560  0.54963  Biso   1.000  Fe
  P17      1.0000 0.15140  0.96350  0.62880  Biso   1.000  P
  P18      1.0000 0.12700  0.63210  0.45610  Biso   1.000  P
  O73      1.0000 0.19490  0.88090  0.61690  Biso   1.000  O
  O74      1.0000 0.25630  0.08120  0.65250  Biso   1.000  O
  O75      1.0000 0.06370  0.92340  0.68720  Biso   1.000  O
  O76      1.0000 0.10880  0.98360  0.55980  Biso   1.000  O
  O77      1.0000 0.14940  0.71350  0.51630  Biso   1.000  O
  O78      1.0000 0.20750  0.70250  0.39340  Biso   1.000  O
  O79      1.0000 0.42590  0.00590  0.57110  Biso   1.000  O
  O80      1.0000 0.38200  0.83920  0.47270  Biso   1.000  O
  O81      1.0000 0.32900  0.77220  0.61380  Biso   1.000  O
  Fe10     1.0000 0.43450  0.14440  0.95037  Biso   1.000  Fe
  P19      1.0000 0.18790  0.03650  0.87120  Biso   1.000  P
  P20      1.0000 0.49490  0.36790  0.04390  Biso   1.000  P
  O82      1.0000 0.31400  0.11910  0.88310  Biso   1.000  O
  O83      1.0000 0.17510  0.91880  0.84750  Biso   1.000  O
  O84      1.0000 0.14030  0.07660  0.81280  Biso   1.000  O
  O85      1.0000 0.12520  0.01640  0.94020  Biso   1.000  O
  O86      1.0000 0.43590  0.28650  0.98370  Biso   1.000  O
  O87      1.0000 0.50500  0.29750  0.10660  Biso   1.000  O
  O88      1.0000 0.42000  0.99410  0.92890  Biso   1.000  O
  O89      1.0000 0.54280  0.16080  0.02730  Biso   1.000  O
  O90      1.0000 0.55680  0.22780  0.88620  Biso   1.000  O
  Fe11     1.0000 0.70990  0.56550  0.95037  Biso   1.000  Fe
  P21      1.0000 0.84860  0.81210  0.87120  Biso   1.000  P
  P22      1.0000 0.87300  0.50510  0.04390  Biso   1.000  P
  O91      1.0000 0.80510  0.68600  0.88310  Biso   1.000  O
  O92      1.0000 0.74370  0.82490  0.84750  Biso   1.000  O
  O93      1.0000 0.93630  0.85970  0.81280  Biso   1.000  O
  O94      1.0000 0.89120  0.87480  0.94020  Biso   1.000  O
  O95      1.0000 0.85060  0.56410  0.98370  Biso   1.000  O
  O96      1.0000 0.79250  0.49500  0.10660  Biso   1.000  O
  O97      1.0000 0.57410  0.58000  0.92890  Biso   1.000  O
  O98      1.0000 0.61800  0.45720  0.02730  Biso   1.000  O
  O99      1.0000 0.67100  0.44320  0.88620  Biso   1.000  O
  Fe12     1.0000 0.85560  0.29010  0.95037  Biso   1.000  Fe
  P23      1.0000 0.96350  0.15140  0.87120  Biso   1.000  P
  P24      1.0000 0.63210  0.12700  0.04390  Biso   1.000  P
  O100     1.0000 0.88090  0.19490  0.88310  Biso   1.000  O
  O101     1.0000 0.08120  0.25630  0.84750  Biso   1.000  O
  O102     1.0000 0.92340  0.06370  0.81280  Biso   1.000  O
  O103     1.0000 0.98360  0.10880  0.94020  Biso   1.000  O
  O104     1.0000 0.71350  0.14940  0.98370  Biso   1.000  O
  O105     1.0000 0.70250  0.20750  0.10660  Biso   1.000  O
  O106     1.0000 0.00590  0.42590  0.92890  Biso   1.000  O
  O107     1.0000 0.83920  0.38200  0.02730  Biso   1.000  O
  O108     1.0000 0.77220  0.32900  0.88620  Biso   1.000  O
  Fe13     1.0000 0.00000  0.00000  0.25000  Biso   1.000  Fe
  Fe14     1.0000 0.00000  0.00000  0.75000  Biso   1.000  Fe
  Fe15     1.0000 0.00000  0.00000  0.50000  Biso   1.000  Fe
  Fe16     1.0000 0.00000  0.00000  0.00000  Biso   1.000  Fe
  P25      1.0000 0.66667  0.33333  0.36250  Biso   1.000  P
  O109     1.0000 0.66667  0.33333  0.28180  Biso   1.000  O
  P26      1.0000 0.33333  0.66667  0.13750  Biso   1.000  P
  O110     1.0000 0.33333  0.66667  0.21820  Biso   1.000  O
  P27      1.0000 0.33333  0.66667  0.63750  Biso   1.000  P
  O111     1.0000 0.33333  0.66667  0.71820  Biso   1.000  O
  P28      1.0000 0.66667  0.33333  0.86250  Biso   1.000  P
  O112     1.0000 0.66667  0.33333  0.78180  Biso   1.000  O
