data_image0
_cell_length_a       7.7286
_cell_length_b       7.5874
_cell_length_c       17.9816
_cell_angle_alpha    90
_cell_angle_beta     98.214
_cell_angle_gamma    90

_symmetry_space_group_name_H-M    "P 1"
_symmetry_int_tables_number       1

loop_
  _symmetry_equiv_pos_as_xyz
  'x, y, z'

loop_
  _atom_site_label
  _atom_site_occupancy
  _atom_site_fract_x
  _atom_site_fract_y
  _atom_site_fract_z
  _atom_site_thermal_displace_type
  _atom_site_B_iso_or_equiv
  _atom_site_type_symbol
  Fe1      1.0000 0.62459  0.93867  0.36313  Biso   1.000  Fe
  Fe2      1.0000 0.72445  0.81528  0.69250  Biso   1.000  Fe
  P1       1.0000 0.55016  0.07134  0.19010  Biso   1.000  P
  H1       1.0000 0.65800  0.14030  0.20110  Biso   1.000  H
  O1       1.0000 0.42310  0.17970  0.13555  Biso   1.000  O
  O2       1.0000 0.20770  0.65380  0.12343  Biso   1.000  O
  O3       1.0000 0.59340  0.96140  0.59293  Biso   1.000  O
  O4       1.0000 0.47900  0.04550  0.26443  Biso   1.000  O
  O5       1.0000 0.29890  0.09090  0.51394  Biso   1.000  O
  O6       1.0000 0.15490  0.35920  0.20149  Biso   1.000  O
  O7       1.0000 0.59730  0.90110  0.15513  Biso   1.000  O
  O8       1.0000 0.89770  0.47170  0.22425  Biso   1.000  O
  O9       1.0000 0.94760  0.75290  0.14086  Biso   1.000  O
  C1       1.0000 0.03690  0.47530  0.19630  Biso   1.000  C
  C2       1.0000 0.06680  0.64120  0.14950  Biso   1.000  C
  C3       1.0000 0.58640  0.96180  0.52180  Biso   1.000  C
  Fe3      1.0000 0.37541  0.43867  0.13687  Biso   1.000  Fe
  Fe4      1.0000 0.27555  0.31528  0.80750  Biso   1.000  Fe
  P2       1.0000 0.44984  0.57134  0.30990  Biso   1.000  P
  H2       1.0000 0.34200  0.64030  0.29890  Biso   1.000  H
  O10      1.0000 0.57690  0.67970  0.36445  Biso   1.000  O
  O11      1.0000 0.79230  0.15380  0.37657  Biso   1.000  O
  O12      1.0000 0.40660  0.46140  0.90707  Biso   1.000  O
  O13      1.0000 0.52100  0.54550  0.23557  Biso   1.000  O
  O14      1.0000 0.70110  0.59090  0.98606  Biso   1.000  O
  O15      1.0000 0.84510  0.85920  0.29851  Biso   1.000  O
  O16      1.0000 0.40270  0.40110  0.34487  Biso   1.000  O
  O17      1.0000 0.10230  0.97170  0.27575  Biso   1.000  O
  O18      1.0000 0.05240  0.25290  0.35914  Biso   1.000  O
  C4       1.0000 0.96310  0.97530  0.30370  Biso   1.000  C
  C5       1.0000 0.93320  0.14120  0.35050  Biso   1.000  C
  C6       1.0000 0.41360  0.46180  0.97820  Biso   1.000  C
  Fe5      1.0000 0.37541  0.06133  0.63687  Biso   1.000  Fe
  Fe6      1.0000 0.27555  0.18472  0.30750  Biso   1.000  Fe
  P3       1.0000 0.44984  0.92866  0.80990  Biso   1.000  P
  H3       1.0000 0.34200  0.85970  0.79890  Biso   1.000  H
  O19      1.0000 0.57690  0.82030  0.86445  Biso   1.000  O
  O20      1.0000 0.79230  0.34620  0.87657  Biso   1.000  O
  O21      1.0000 0.40660  0.03860  0.40707  Biso   1.000  O
  O22      1.0000 0.52100  0.95450  0.73557  Biso   1.000  O
  O23      1.0000 0.70110  0.90910  0.48606  Biso   1.000  O
  O24      1.0000 0.84510  0.64080  0.79851  Biso   1.000  O
  O25      1.0000 0.40270  0.09890  0.84487  Biso   1.000  O
  O26      1.0000 0.10230  0.52830  0.77575  Biso   1.000  O
  O27      1.0000 0.05240  0.24710  0.85914  Biso   1.000  O
  C7       1.0000 0.96310  0.52470  0.80370  Biso   1.000  C
  C8       1.0000 0.93320  0.35880  0.85050  Biso   1.000  C
  C9       1.0000 0.41360  0.03820  0.47820  Biso   1.000  C
  Fe7      1.0000 0.62459  0.56133  0.86313  Biso   1.000  Fe
  Fe8      1.0000 0.72445  0.68472  0.19250  Biso   1.000  Fe
  P4       1.0000 0.55016  0.42866  0.69010  Biso   1.000  P
  H4       1.0000 0.65800  0.35970  0.70110  Biso   1.000  H
  O28      1.0000 0.42310  0.32030  0.63555  Biso   1.000  O
  O29      1.0000 0.20770  0.84620  0.62343  Biso   1.000  O
  O30      1.0000 0.59340  0.53860  0.09293  Biso   1.000  O
  O31      1.0000 0.47900  0.45450  0.76443  Biso   1.000  O
  O32      1.0000 0.29890  0.40910  0.01394  Biso   1.000  O
  O33      1.0000 0.15490  0.14080  0.70149  Biso   1.000  O
  O34      1.0000 0.59730  0.59890  0.65513  Biso   1.000  O
  O35      1.0000 0.89770  0.02830  0.72425  Biso   1.000  O
  O36      1.0000 0.94760  0.74710  0.64086  Biso   1.000  O
  C10      1.0000 0.03690  0.02470  0.69630  Biso   1.000  C
  C11      1.0000 0.06680  0.85880  0.64950  Biso   1.000  C
  C12      1.0000 0.58640  0.53820  0.02180  Biso   1.000  C
