data_NAVJAW01_clean
_audit_creation_date              2014-07-02
_audit_creation_method            'Materials Studio'
_symmetry_space_group_name_H-M    'P1'
_symmetry_Int_Tables_number       1
_symmetry_cell_setting            triclinic
loop_
_symmetry_equiv_pos_as_xyz
  x,y,z
_cell_length_a                    6.7182
_cell_length_b                    15.2674
_cell_length_c                    15.2674
_cell_angle_alpha                 62.1131
_cell_angle_beta                  81.5655
_cell_angle_gamma                 98.4345
loop_
_atom_site_label
_atom_site_type_symbol
_atom_site_fract_x
_atom_site_fract_y
_atom_site_fract_z
_atom_site_U_iso_or_equiv
_atom_site_adp_type
_atom_site_occupancy
Co1    Co    0.61971   0.31553   0.42005   0.01267  Uiso   1.00
Co2    Co    0.03976   0.42005   0.26442   0.01267  Uiso   1.00
Co3    Co    0.30418   0.26442   0.31553   0.01267  Uiso   1.00
Co4    Co    0.38029   0.68447   0.57995   0.01267  Uiso   1.00
Co5    Co    0.96024   0.57995   0.73558   0.01267  Uiso   1.00
Co6    Co    0.69582   0.73558   0.68447   0.01267  Uiso   1.00
H1     H     0.28470   0.44879   0.57032   0.01267  Uiso   1.00
H2     H     0.85502   0.57032   0.98089   0.01267  Uiso   1.00
H3     H     0.83591   0.98089   0.44879   0.01267  Uiso   1.00
H4     H     0.71530   0.55121   0.42968   0.01267  Uiso   1.00
H5     H     0.14498   0.42968   0.01911   0.01267  Uiso   1.00
H6     H     0.16409   0.01911   0.55121   0.01267  Uiso   1.00
C1     C     0.23504   0.39456   0.43257   0.01267  Uiso   1.00
C2     C     0.12235   0.45233   0.46103   0.01267  Uiso   1.00
C3     C     0.93501   0.46870   0.43186   0.01267  Uiso   1.00
C4     C     0.16909   0.47034   0.54225   0.01267  Uiso   1.00
C5     C     0.66761   0.43257   0.17287   0.01267  Uiso   1.00
C6     C     0.58338   0.46103   0.08664   0.01267  Uiso   1.00
C7     C     0.36687   0.43186   0.09944   0.01267  Uiso   1.00
C8     C     0.71134   0.54225   0.98741   0.01267  Uiso   1.00
C9     C     0.84048   0.17287   0.39456   0.01267  Uiso   1.00
C10    C     0.67002   0.08664   0.45233   0.01267  Uiso   1.00
C11    C     0.46631   0.09944   0.46870   0.01267  Uiso   1.00
C12    C     0.69875   0.98741   0.47034   0.01267  Uiso   1.00
C13    C     0.76496   0.60544   0.56743   0.01267  Uiso   1.00
C14    C     0.87765   0.54767   0.53897   0.01267  Uiso   1.00
C15    C     0.06499   0.53130   0.56814   0.01267  Uiso   1.00
C16    C     0.83091   0.52966   0.45775   0.01267  Uiso   1.00
C17    C     0.33239   0.56743   0.82713   0.01267  Uiso   1.00
C18    C     0.41662   0.53897   0.91336   0.01267  Uiso   1.00
C19    C     0.63313   0.56814   0.90056   0.01267  Uiso   1.00
C20    C     0.28866   0.45775   0.01259   0.01267  Uiso   1.00
C21    C     0.15952   0.82713   0.60544   0.01267  Uiso   1.00
C22    C     0.32998   0.91336   0.54767   0.01267  Uiso   1.00
C23    C     0.53369   0.90056   0.53130   0.01267  Uiso   1.00
C24    C     0.30125   0.01259   0.52966   0.01267  Uiso   1.00
O1     O     0.37002   0.35931   0.47997   0.01267  Uiso   1.00
O2     O     0.16869   0.35948   0.37907   0.01267  Uiso   1.00
O3     O     0.87163   0.43833   0.36564   0.01267  Uiso   1.00
O4     O     0.84999   0.47997   0.16072   0.01267  Uiso   1.00
O5     O     0.54776   0.37907   0.26145   0.01267  Uiso   1.00
O6     O     0.23727   0.36564   0.19603   0.01267  Uiso   1.00
O7     O     0.01071   0.16072   0.35931   0.01267  Uiso   1.00
O8     O     0.80921   0.26145   0.35948   0.01267  Uiso   1.00
O9     O     0.43330   0.19603   0.43833   0.01267  Uiso   1.00
O10    O     0.62998   0.64069   0.52003   0.01267  Uiso   1.00
O11    O     0.83131   0.64052   0.62093   0.01267  Uiso   1.00
O12    O     0.12837   0.56167   0.63436   0.01267  Uiso   1.00
O13    O     0.15001   0.52003   0.83928   0.01267  Uiso   1.00
O14    O     0.45224   0.62093   0.73855   0.01267  Uiso   1.00
O15    O     0.76273   0.63436   0.80397   0.01267  Uiso   1.00
O16    O     0.98929   0.83928   0.64069   0.01267  Uiso   1.00
O17    O     0.19079   0.73855   0.64052   0.01267  Uiso   1.00
O18    O     0.56670   0.80397   0.56167   0.01267  Uiso   1.00
