data_image0
_cell_length_a       13.4191
_cell_length_b       18.0669
_cell_length_c       20.9746
_cell_angle_alpha    90
_cell_angle_beta     99.659
_cell_angle_gamma    90

_symmetry_space_group_name_H-M    "P 1"
_symmetry_int_tables_number       1

loop_
  _symmetry_equiv_pos_as_xyz
  'x, y, z'

loop_
  _atom_site_label
  _atom_site_occupancy
  _atom_site_fract_x
  _atom_site_fract_y
  _atom_site_fract_z
  _atom_site_thermal_displace_type
  _atom_site_B_iso_or_equiv
  _atom_site_type_symbol
  Mg1      1.0000 0.74024  0.25900  0.69118  Biso   1.000  Mg
  O1       1.0000 0.50251  0.32882  0.67868  Biso   1.000  O
  O2       1.0000 0.65804  0.34820  0.65879  Biso   1.000  O
  O3       1.0000 0.51720  0.16379  0.68339  Biso   1.000  O
  O4       1.0000 0.64260  0.18988  0.63015  Biso   1.000  O
  O5       1.0000 0.80483  0.30259  0.78278  Biso   1.000  O
  O6       1.0000 0.66002  0.24492  0.77670  Biso   1.000  O
  C1       1.0000 0.56380  0.35866  0.64943  Biso   1.000  C
  C2       1.0000 0.52450  0.41103  0.59449  Biso   1.000  C
  C3       1.0000 0.41830  0.41841  0.57328  Biso   1.000  C
  H1       1.0000 0.37380  0.39230  0.59440  Biso   1.000  H
  C4       1.0000 0.58930  0.45059  0.56321  Biso   1.000  C
  H2       1.0000 0.65870  0.44670  0.57710  Biso   1.000  H
  C5       1.0000 0.55250  0.49684  0.51062  Biso   1.000  C
  C6       1.0000 0.38110  0.46300  0.52275  Biso   1.000  C
  H3       1.0000 0.31160  0.46720  0.50990  Biso   1.000  H
  C7       1.0000 0.56900  0.15324  0.64006  Biso   1.000  C
  C8       1.0000 0.53670  0.08814  0.59482  Biso   1.000  C
  C9       1.0000 0.46380  0.03690  0.60972  Biso   1.000  C
  H4       1.0000 0.43980  0.04080  0.64870  Biso   1.000  H
  C10      1.0000 0.57280  0.08150  0.53784  Biso   1.000  C
  H5       1.0000 0.62170  0.11450  0.52860  Biso   1.000  H
  C11      1.0000 0.53680  0.02510  0.49235  Biso   1.000  C
  C12      1.0000 0.42870  0.98230  0.56759  Biso   1.000  C
  H6       1.0000 0.38120  0.94900  0.57820  Biso   1.000  H
  C13      1.0000 0.73590  0.27566  0.80973  Biso   1.000  C
  C14      1.0000 0.74880  0.27704  0.88201  Biso   1.000  C
  C15      1.0000 0.82060  0.32607  0.91682  Biso   1.000  C
  H7       1.0000 0.85630  0.35870  0.89480  Biso   1.000  H
  C16      1.0000 0.83710  0.32507  0.98254  Biso   1.000  C
  H8       1.0000 0.88310  0.35810  0.00520  Biso   1.000  H
  C17      1.0000 0.69650  0.22871  0.91370  Biso   1.000  C
  H9       1.0000 0.64860  0.19760  0.89020  Biso   1.000  H
  C18      1.0000 0.78560  0.27472  0.01723  Biso   1.000  C
  Mg2      1.0000 0.24024  0.75900  0.69118  Biso   1.000  Mg
  O7       1.0000 0.00251  0.82882  0.67868  Biso   1.000  O
  O8       1.0000 0.15804  0.84820  0.65879  Biso   1.000  O
  O9       1.0000 0.01720  0.66379  0.68339  Biso   1.000  O
  O10      1.0000 0.14260  0.68988  0.63015  Biso   1.000  O
  O11      1.0000 0.30483  0.80259  0.78278  Biso   1.000  O
  O12      1.0000 0.16002  0.74492  0.77670  Biso   1.000  O
  C19      1.0000 0.06380  0.85866  0.64943  Biso   1.000  C
  C20      1.0000 0.02450  0.91103  0.59449  Biso   1.000  C
  C21      1.0000 0.91830  0.91841  0.57328  Biso   1.000  C
  H10      1.0000 0.87380  0.89230  0.59440  Biso   1.000  H
  C22      1.0000 0.08930  0.95059  0.56321  Biso   1.000  C
  H11      1.0000 0.15870  0.94670  0.57710  Biso   1.000  H
  C23      1.0000 0.05250  0.99684  0.51062  Biso   1.000  C
  C24      1.0000 0.88110  0.96300  0.52275  Biso   1.000  C
  H12      1.0000 0.81160  0.96720  0.50990  Biso   1.000  H
  C25      1.0000 0.06900  0.65324  0.64006  Biso   1.000  C
  C26      1.0000 0.03670  0.58814  0.59482  Biso   1.000  C
  C27      1.0000 0.96380  0.53690  0.60972  Biso   1.000  C
  H13      1.0000 0.93980  0.54080  0.64870  Biso   1.000  H
  C28      1.0000 0.07280  0.58150  0.53784  Biso   1.000  C
  H14      1.0000 0.12170  0.61450  0.52860  Biso   1.000  H
  C29      1.0000 0.03680  0.52510  0.49235  Biso   1.000  C
  C30      1.0000 0.92870  0.48230  0.56759  Biso   1.000  C
  H15      1.0000 0.88120  0.44900  0.57820  Biso   1.000  H
  C31      1.0000 0.23590  0.77566  0.80973  Biso   1.000  C
  C32      1.0000 0.24880  0.77704  0.88201  Biso   1.000  C
  C33      1.0000 0.32060  0.82607  0.91682  Biso   1.000  C
  H16      1.0000 0.35630  0.85870  0.89480  Biso   1.000  H
  C34      1.0000 0.33710  0.82507  0.98254  Biso   1.000  C
  H17      1.0000 0.38310  0.85810  0.00520  Biso   1.000  H
  C35      1.0000 0.19650  0.72871  0.91370  Biso   1.000  C
  H18      1.0000 0.14860  0.69760  0.89020  Biso   1.000  H
  C36      1.0000 0.28560  0.77472  0.01723  Biso   1.000  C
  Mg3      1.0000 0.25976  0.25900  0.80882  Biso   1.000  Mg
  O13      1.0000 0.49749  0.32882  0.82132  Biso   1.000  O
  O14      1.0000 0.34196  0.34820  0.84121  Biso   1.000  O
  O15      1.0000 0.48280  0.16379  0.81661  Biso   1.000  O
  O16      1.0000 0.35740  0.18988  0.86985  Biso   1.000  O
  O17      1.0000 0.19517  0.30259  0.71722  Biso   1.000  O
  O18      1.0000 0.33998  0.24492  0.72330  Biso   1.000  O
  C37      1.0000 0.43620  0.35866  0.85057  Biso   1.000  C
  C38      1.0000 0.47550  0.41103  0.90551  Biso   1.000  C
  C39      1.0000 0.58170  0.41841  0.92672  Biso   1.000  C
  H19      1.0000 0.62620  0.39230  0.90560  Biso   1.000  H
  C40      1.0000 0.41070  0.45059  0.93679  Biso   1.000  C
  H20      1.0000 0.34130  0.44670  0.92290  Biso   1.000  H
  C41      1.0000 0.44750  0.49684  0.98938  Biso   1.000  C
  C42      1.0000 0.61890  0.46300  0.97725  Biso   1.000  C
  H21      1.0000 0.68840  0.46720  0.99010  Biso   1.000  H
  C43      1.0000 0.43100  0.15324  0.85994  Biso   1.000  C
  C44      1.0000 0.46330  0.08814  0.90518  Biso   1.000  C
  C45      1.0000 0.53620  0.03690  0.89028  Biso   1.000  C
  H22      1.0000 0.56020  0.04080  0.85130  Biso   1.000  H
  C46      1.0000 0.42720  0.08150  0.96216  Biso   1.000  C
  H23      1.0000 0.37830  0.11450  0.97140  Biso   1.000  H
  C47      1.0000 0.46320  0.02510  0.00765  Biso   1.000  C
  C48      1.0000 0.57130  0.98230  0.93241  Biso   1.000  C
  H24      1.0000 0.61880  0.94900  0.92180  Biso   1.000  H
  C49      1.0000 0.26410  0.27566  0.69027  Biso   1.000  C
  C50      1.0000 0.25120  0.27704  0.61799  Biso   1.000  C
  C51      1.0000 0.17940  0.32607  0.58318  Biso   1.000  C
  H25      1.0000 0.14370  0.35870  0.60520  Biso   1.000  H
  C52      1.0000 0.16290  0.32507  0.51746  Biso   1.000  C
  H26      1.0000 0.11690  0.35810  0.49480  Biso   1.000  H
  C53      1.0000 0.30350  0.22871  0.58630  Biso   1.000  C
  H27      1.0000 0.35140  0.19760  0.60980  Biso   1.000  H
  C54      1.0000 0.21440  0.27472  0.48277  Biso   1.000  C
  Mg4      1.0000 0.75976  0.75900  0.80882  Biso   1.000  Mg
  O19      1.0000 0.99749  0.82882  0.82132  Biso   1.000  O
  O20      1.0000 0.84196  0.84820  0.84121  Biso   1.000  O
  O21      1.0000 0.98280  0.66379  0.81661  Biso   1.000  O
  O22      1.0000 0.85740  0.68988  0.86985  Biso   1.000  O
  O23      1.0000 0.69517  0.80259  0.71722  Biso   1.000  O
  O24      1.0000 0.83998  0.74492  0.72330  Biso   1.000  O
  C55      1.0000 0.93620  0.85866  0.85057  Biso   1.000  C
  C56      1.0000 0.97550  0.91103  0.90551  Biso   1.000  C
  C57      1.0000 0.08170  0.91841  0.92672  Biso   1.000  C
  H28      1.0000 0.12620  0.89230  0.90560  Biso   1.000  H
  C58      1.0000 0.91070  0.95059  0.93679  Biso   1.000  C
  H29      1.0000 0.84130  0.94670  0.92290  Biso   1.000  H
  C59      1.0000 0.94750  0.99684  0.98938  Biso   1.000  C
  C60      1.0000 0.11890  0.96300  0.97725  Biso   1.000  C
  H30      1.0000 0.18840  0.96720  0.99010  Biso   1.000  H
  C61      1.0000 0.93100  0.65324  0.85994  Biso   1.000  C
  C62      1.0000 0.96330  0.58814  0.90518  Biso   1.000  C
  C63      1.0000 0.03620  0.53690  0.89028  Biso   1.000  C
  H31      1.0000 0.06020  0.54080  0.85130  Biso   1.000  H
  C64      1.0000 0.92720  0.58150  0.96216  Biso   1.000  C
  H32      1.0000 0.87830  0.61450  0.97140  Biso   1.000  H
  C65      1.0000 0.96320  0.52510  0.00765  Biso   1.000  C
  C66      1.0000 0.07130  0.48230  0.93241  Biso   1.000  C
  H33      1.0000 0.11880  0.44900  0.92180  Biso   1.000  H
  C67      1.0000 0.76410  0.77566  0.69027  Biso   1.000  C
  C68      1.0000 0.75120  0.77704  0.61799  Biso   1.000  C
  C69      1.0000 0.67940  0.82607  0.58318  Biso   1.000  C
  H34      1.0000 0.64370  0.85870  0.60520  Biso   1.000  H
  C70      1.0000 0.66290  0.82507  0.51746  Biso   1.000  C
  H35      1.0000 0.61690  0.85810  0.49480  Biso   1.000  H
  C71      1.0000 0.80350  0.72871  0.58630  Biso   1.000  C
  H36      1.0000 0.85140  0.69760  0.60980  Biso   1.000  H
  C72      1.0000 0.71440  0.77472  0.48277  Biso   1.000  C
  Mg5      1.0000 0.25976  0.74100  0.30882  Biso   1.000  Mg
  O25      1.0000 0.49749  0.67118  0.32132  Biso   1.000  O
  O26      1.0000 0.34196  0.65180  0.34121  Biso   1.000  O
  O27      1.0000 0.48280  0.83621  0.31661  Biso   1.000  O
  O28      1.0000 0.35740  0.81012  0.36985  Biso   1.000  O
  O29      1.0000 0.19517  0.69741  0.21722  Biso   1.000  O
  O30      1.0000 0.33998  0.75508  0.22330  Biso   1.000  O
  C73      1.0000 0.43620  0.64134  0.35057  Biso   1.000  C
  C74      1.0000 0.47550  0.58897  0.40551  Biso   1.000  C
  C75      1.0000 0.58170  0.58159  0.42672  Biso   1.000  C
  H37      1.0000 0.62620  0.60770  0.40560  Biso   1.000  H
  C76      1.0000 0.41070  0.54941  0.43679  Biso   1.000  C
  H38      1.0000 0.34130  0.55330  0.42290  Biso   1.000  H
  C77      1.0000 0.44750  0.50316  0.48938  Biso   1.000  C
  C78      1.0000 0.61890  0.53700  0.47725  Biso   1.000  C
  H39      1.0000 0.68840  0.53280  0.49010  Biso   1.000  H
  C79      1.0000 0.43100  0.84676  0.35994  Biso   1.000  C
  C80      1.0000 0.46330  0.91186  0.40518  Biso   1.000  C
  C81      1.0000 0.53620  0.96310  0.39028  Biso   1.000  C
  H40      1.0000 0.56020  0.95920  0.35130  Biso   1.000  H
  C82      1.0000 0.42720  0.91850  0.46216  Biso   1.000  C
  H41      1.0000 0.37830  0.88550  0.47140  Biso   1.000  H
  C83      1.0000 0.46320  0.97490  0.50765  Biso   1.000  C
  C84      1.0000 0.57130  0.01770  0.43241  Biso   1.000  C
  H42      1.0000 0.61880  0.05100  0.42180  Biso   1.000  H
  C85      1.0000 0.26410  0.72434  0.19027  Biso   1.000  C
  C86      1.0000 0.25120  0.72296  0.11799  Biso   1.000  C
  C87      1.0000 0.17940  0.67393  0.08318  Biso   1.000  C
  H43      1.0000 0.14370  0.64130  0.10520  Biso   1.000  H
  C88      1.0000 0.16290  0.67493  0.01746  Biso   1.000  C
  H44      1.0000 0.11690  0.64190  0.99480  Biso   1.000  H
  C89      1.0000 0.30350  0.77129  0.08630  Biso   1.000  C
  H45      1.0000 0.35140  0.80240  0.10980  Biso   1.000  H
  C90      1.0000 0.21440  0.72528  0.98277  Biso   1.000  C
  Mg6      1.0000 0.75976  0.24100  0.30882  Biso   1.000  Mg
  O31      1.0000 0.99749  0.17118  0.32132  Biso   1.000  O
  O32      1.0000 0.84196  0.15180  0.34121  Biso   1.000  O
  O33      1.0000 0.98280  0.33621  0.31661  Biso   1.000  O
  O34      1.0000 0.85740  0.31012  0.36985  Biso   1.000  O
  O35      1.0000 0.69517  0.19741  0.21722  Biso   1.000  O
  O36      1.0000 0.83998  0.25508  0.22330  Biso   1.000  O
  C91      1.0000 0.93620  0.14134  0.35057  Biso   1.000  C
  C92      1.0000 0.97550  0.08897  0.40551  Biso   1.000  C
  C93      1.0000 0.08170  0.08159  0.42672  Biso   1.000  C
  H46      1.0000 0.12620  0.10770  0.40560  Biso   1.000  H
  C94      1.0000 0.91070  0.04941  0.43679  Biso   1.000  C
  H47      1.0000 0.84130  0.05330  0.42290  Biso   1.000  H
  C95      1.0000 0.94750  0.00316  0.48938  Biso   1.000  C
  C96      1.0000 0.11890  0.03700  0.47725  Biso   1.000  C
  H48      1.0000 0.18840  0.03280  0.49010  Biso   1.000  H
  C97      1.0000 0.93100  0.34676  0.35994  Biso   1.000  C
  C98      1.0000 0.96330  0.41186  0.40518  Biso   1.000  C
  C99      1.0000 0.03620  0.46310  0.39028  Biso   1.000  C
  H49      1.0000 0.06020  0.45920  0.35130  Biso   1.000  H
  C100     1.0000 0.92720  0.41850  0.46216  Biso   1.000  C
  H50      1.0000 0.87830  0.38550  0.47140  Biso   1.000  H
  C101     1.0000 0.96320  0.47490  0.50765  Biso   1.000  C
  C102     1.0000 0.07130  0.51770  0.43241  Biso   1.000  C
  H51      1.0000 0.11880  0.55100  0.42180  Biso   1.000  H
  C103     1.0000 0.76410  0.22434  0.19027  Biso   1.000  C
  C104     1.0000 0.75120  0.22296  0.11799  Biso   1.000  C
  C105     1.0000 0.67940  0.17393  0.08318  Biso   1.000  C
  H52      1.0000 0.64370  0.14130  0.10520  Biso   1.000  H
  C106     1.0000 0.66290  0.17493  0.01746  Biso   1.000  C
  H53      1.0000 0.61690  0.14190  0.99480  Biso   1.000  H
  C107     1.0000 0.80350  0.27129  0.08630  Biso   1.000  C
  H54      1.0000 0.85140  0.30240  0.10980  Biso   1.000  H
  C108     1.0000 0.71440  0.22528  0.98277  Biso   1.000  C
  Mg7      1.0000 0.74024  0.74100  0.19118  Biso   1.000  Mg
  O37      1.0000 0.50251  0.67118  0.17868  Biso   1.000  O
  O38      1.0000 0.65804  0.65180  0.15879  Biso   1.000  O
  O39      1.0000 0.51720  0.83621  0.18339  Biso   1.000  O
  O40      1.0000 0.64260  0.81012  0.13015  Biso   1.000  O
  O41      1.0000 0.80483  0.69741  0.28278  Biso   1.000  O
  O42      1.0000 0.66002  0.75508  0.27670  Biso   1.000  O
  C109     1.0000 0.56380  0.64134  0.14943  Biso   1.000  C
  C110     1.0000 0.52450  0.58897  0.09449  Biso   1.000  C
  C111     1.0000 0.41830  0.58159  0.07328  Biso   1.000  C
  H55      1.0000 0.37380  0.60770  0.09440  Biso   1.000  H
  C112     1.0000 0.58930  0.54941  0.06321  Biso   1.000  C
  H56      1.0000 0.65870  0.55330  0.07710  Biso   1.000  H
  C113     1.0000 0.55250  0.50316  0.01062  Biso   1.000  C
  C114     1.0000 0.38110  0.53700  0.02275  Biso   1.000  C
  H57      1.0000 0.31160  0.53280  0.00990  Biso   1.000  H
  C115     1.0000 0.56900  0.84676  0.14006  Biso   1.000  C
  C116     1.0000 0.53670  0.91186  0.09482  Biso   1.000  C
  C117     1.0000 0.46380  0.96310  0.10972  Biso   1.000  C
  H58      1.0000 0.43980  0.95920  0.14870  Biso   1.000  H
  C118     1.0000 0.57280  0.91850  0.03784  Biso   1.000  C
  H59      1.0000 0.62170  0.88550  0.02860  Biso   1.000  H
  C119     1.0000 0.53680  0.97490  0.99235  Biso   1.000  C
  C120     1.0000 0.42870  0.01770  0.06759  Biso   1.000  C
  H60      1.0000 0.38120  0.05100  0.07820  Biso   1.000  H
  C121     1.0000 0.73590  0.72434  0.30973  Biso   1.000  C
  C122     1.0000 0.74880  0.72296  0.38201  Biso   1.000  C
  C123     1.0000 0.82060  0.67393  0.41682  Biso   1.000  C
  H61      1.0000 0.85630  0.64130  0.39480  Biso   1.000  H
  C124     1.0000 0.83710  0.67493  0.48254  Biso   1.000  C
  H62      1.0000 0.88310  0.64190  0.50520  Biso   1.000  H
  C125     1.0000 0.69650  0.77129  0.41370  Biso   1.000  C
  H63      1.0000 0.64860  0.80240  0.39020  Biso   1.000  H
  C126     1.0000 0.78560  0.72528  0.51723  Biso   1.000  C
  Mg8      1.0000 0.24024  0.24100  0.19118  Biso   1.000  Mg
  O43      1.0000 0.00251  0.17118  0.17868  Biso   1.000  O
  O44      1.0000 0.15804  0.15180  0.15879  Biso   1.000  O
  O45      1.0000 0.01720  0.33621  0.18339  Biso   1.000  O
  O46      1.0000 0.14260  0.31012  0.13015  Biso   1.000  O
  O47      1.0000 0.30483  0.19741  0.28278  Biso   1.000  O
  O48      1.0000 0.16002  0.25508  0.27670  Biso   1.000  O
  C127     1.0000 0.06380  0.14134  0.14943  Biso   1.000  C
  C128     1.0000 0.02450  0.08897  0.09449  Biso   1.000  C
  C129     1.0000 0.91830  0.08159  0.07328  Biso   1.000  C
  H64      1.0000 0.87380  0.10770  0.09440  Biso   1.000  H
  C130     1.0000 0.08930  0.04941  0.06321  Biso   1.000  C
  H65      1.0000 0.15870  0.05330  0.07710  Biso   1.000  H
  C131     1.0000 0.05250  0.00316  0.01062  Biso   1.000  C
  C132     1.0000 0.88110  0.03700  0.02275  Biso   1.000  C
  H66      1.0000 0.81160  0.03280  0.00990  Biso   1.000  H
  C133     1.0000 0.06900  0.34676  0.14006  Biso   1.000  C
  C134     1.0000 0.03670  0.41186  0.09482  Biso   1.000  C
  C135     1.0000 0.96380  0.46310  0.10972  Biso   1.000  C
  H67      1.0000 0.93980  0.45920  0.14870  Biso   1.000  H
  C136     1.0000 0.07280  0.41850  0.03784  Biso   1.000  C
  H68      1.0000 0.12170  0.38550  0.02860  Biso   1.000  H
  C137     1.0000 0.03680  0.47490  0.99235  Biso   1.000  C
  C138     1.0000 0.92870  0.51770  0.06759  Biso   1.000  C
  H69      1.0000 0.88120  0.55100  0.07820  Biso   1.000  H
  C139     1.0000 0.23590  0.22434  0.30973  Biso   1.000  C
  C140     1.0000 0.24880  0.22296  0.38201  Biso   1.000  C
  C141     1.0000 0.32060  0.17393  0.41682  Biso   1.000  C
  H70      1.0000 0.35630  0.14130  0.39480  Biso   1.000  H
  C142     1.0000 0.33710  0.17493  0.48254  Biso   1.000  C
  H71      1.0000 0.38310  0.14190  0.50520  Biso   1.000  H
  C143     1.0000 0.19650  0.27129  0.41370  Biso   1.000  C
  H72      1.0000 0.14860  0.30240  0.39020  Biso   1.000  H
  C144     1.0000 0.28560  0.22528  0.51723  Biso   1.000  C
  Mg9      1.0000 0.50000  0.24754  0.75000  Biso   1.000  Mg
  Mg10     1.0000 0.00000  0.74754  0.75000  Biso   1.000  Mg
  Mg11     1.0000 0.50000  0.75246  0.25000  Biso   1.000  Mg
  Mg12     1.0000 0.00000  0.25246  0.25000  Biso   1.000  Mg
