data_image0
_cell_length_a       20.395
_cell_length_b       6.941
_cell_length_c       20.07
_cell_angle_alpha    90
_cell_angle_beta     119.18
_cell_angle_gamma    90

_symmetry_space_group_name_H-M    "P 1"
_symmetry_int_tables_number       1

loop_
  _symmetry_equiv_pos_as_xyz
  'x, y, z'

loop_
  _atom_site_label
  _atom_site_occupancy
  _atom_site_fract_x
  _atom_site_fract_y
  _atom_site_fract_z
  _atom_site_thermal_displace_type
  _atom_site_B_iso_or_equiv
  _atom_site_type_symbol
  Ni1      1.0000 0.42071  0.51044  0.13041  Biso   1.000  Ni
  O1       1.0000 0.43400  0.48880  0.53290  Biso   1.000  O
  O2       1.0000 0.32180  0.48420  0.52110  Biso   1.000  O
  C1       1.0000 0.36480  0.48480  0.49120  Biso   1.000  C
  C2       1.0000 0.33140  0.48250  0.40510  Biso   1.000  C
  C3       1.0000 0.37810  0.49320  0.37430  Biso   1.000  C
  H1       1.0000 0.43100  0.50090  0.40620  Biso   1.000  H
  C4       1.0000 0.25590  0.46500  0.36130  Biso   1.000  C
  H2       1.0000 0.22550  0.45570  0.38500  Biso   1.000  H
  O3       1.0000 0.36460  0.50670  0.18820  Biso   1.000  O
  O4       1.0000 0.46520  0.51140  0.30350  Biso   1.000  O
  O5       1.0000 0.10690  0.40400  0.27530  Biso   1.000  O
  O6       1.0000 0.10540  0.45770  0.16570  Biso   1.000  O
  C5       1.0000 0.39720  0.50530  0.26130  Biso   1.000  C
  C6       1.0000 0.34660  0.49270  0.29510  Biso   1.000  C
  C7       1.0000 0.26870  0.47660  0.24910  Biso   1.000  C
  H3       1.0000 0.24760  0.47670  0.19510  Biso   1.000  H
  C8       1.0000 0.22170  0.46030  0.28100  Biso   1.000  C
  C9       1.0000 0.13920  0.43960  0.23730  Biso   1.000  C
  C10      1.0000 0.47990  0.10780  0.14210  Biso   1.000  C
  H4       1.0000 0.52370  0.17440  0.14970  Biso   1.000  H
  N1       1.0000 0.41960  0.21120  0.13110  Biso   1.000  N
  N2       1.0000 0.42110  0.80590  0.13240  Biso   1.000  N
  C11      1.0000 0.48070  0.91450  0.14290  Biso   1.000  C
  H5       1.0000 0.52520  0.85060  0.15110  Biso   1.000  H
  C12      1.0000 0.36350  0.91360  0.12680  Biso   1.000  C
  H6       1.0000 0.32090  0.84900  0.12340  Biso   1.000  H
  C13      1.0000 0.36310  0.10650  0.12570  Biso   1.000  C
  H7       1.0000 0.31990  0.17150  0.12070  Biso   1.000  H
  C14      1.0000 0.05540  0.00210  0.30770  Biso   1.000  C
  H8       1.0000 0.09500  0.06830  0.34930  Biso   1.000  H
  C15      1.0000 0.05360  0.80120  0.30560  Biso   1.000  C
  H9       1.0000 0.09360  0.73510  0.34680  Biso   1.000  H
  Ni2      1.0000 0.57929  0.51044  0.36959  Biso   1.000  Ni
  O7       1.0000 0.56600  0.48880  0.96710  Biso   1.000  O
  O8       1.0000 0.67820  0.48420  0.97890  Biso   1.000  O
  C16      1.0000 0.63520  0.48480  0.00880  Biso   1.000  C
  C17      1.0000 0.66860  0.48250  0.09490  Biso   1.000  C
  C18      1.0000 0.62190  0.49320  0.12570  Biso   1.000  C
  H10      1.0000 0.56900  0.50090  0.09380  Biso   1.000  H
  C19      1.0000 0.74410  0.46500  0.13870  Biso   1.000  C
  H11      1.0000 0.77450  0.45570  0.11500  Biso   1.000  H
  O9       1.0000 0.63540  0.50670  0.31180  Biso   1.000  O
  O10      1.0000 0.53480  0.51140  0.19650  Biso   1.000  O
  O11      1.0000 0.89310  0.40400  0.22470  Biso   1.000  O
  O12      1.0000 0.89460  0.45770  0.33430  Biso   1.000  O
  C20      1.0000 0.60280  0.50530  0.23870  Biso   1.000  C
  C21      1.0000 0.65340  0.49270  0.20490  Biso   1.000  C
  C22      1.0000 0.73130  0.47660  0.25090  Biso   1.000  C
  H12      1.0000 0.75240  0.47670  0.30490  Biso   1.000  H
  C23      1.0000 0.77830  0.46030  0.21900  Biso   1.000  C
  C24      1.0000 0.86080  0.43960  0.26270  Biso   1.000  C
  C25      1.0000 0.52010  0.10780  0.35790  Biso   1.000  C
  H13      1.0000 0.47630  0.17440  0.35030  Biso   1.000  H
  N3       1.0000 0.58040  0.21120  0.36890  Biso   1.000  N
  N4       1.0000 0.57890  0.80590  0.36760  Biso   1.000  N
  C26      1.0000 0.51930  0.91450  0.35710  Biso   1.000  C
  H14      1.0000 0.47480  0.85060  0.34890  Biso   1.000  H
  C27      1.0000 0.63650  0.91360  0.37320  Biso   1.000  C
  H15      1.0000 0.67910  0.84900  0.37660  Biso   1.000  H
  C28      1.0000 0.63690  0.10650  0.37430  Biso   1.000  C
  H16      1.0000 0.68010  0.17150  0.37930  Biso   1.000  H
  C29      1.0000 0.94460  0.00210  0.19230  Biso   1.000  C
  H17      1.0000 0.90500  0.06830  0.15070  Biso   1.000  H
  C30      1.0000 0.94640  0.80120  0.19440  Biso   1.000  C
  H18      1.0000 0.90640  0.73510  0.15320  Biso   1.000  H
  Ni3      1.0000 0.57929  0.48956  0.86959  Biso   1.000  Ni
  O13      1.0000 0.56600  0.51120  0.46710  Biso   1.000  O
  O14      1.0000 0.67820  0.51580  0.47890  Biso   1.000  O
  C31      1.0000 0.63520  0.51520  0.50880  Biso   1.000  C
  C32      1.0000 0.66860  0.51750  0.59490  Biso   1.000  C
  C33      1.0000 0.62190  0.50680  0.62570  Biso   1.000  C
  H19      1.0000 0.56900  0.49910  0.59380  Biso   1.000  H
  C34      1.0000 0.74410  0.53500  0.63870  Biso   1.000  C
  H20      1.0000 0.77450  0.54430  0.61500  Biso   1.000  H
  O15      1.0000 0.63540  0.49330  0.81180  Biso   1.000  O
  O16      1.0000 0.53480  0.48860  0.69650  Biso   1.000  O
  O17      1.0000 0.89310  0.59600  0.72470  Biso   1.000  O
  O18      1.0000 0.89460  0.54230  0.83430  Biso   1.000  O
  C35      1.0000 0.60280  0.49470  0.73870  Biso   1.000  C
  C36      1.0000 0.65340  0.50730  0.70490  Biso   1.000  C
  C37      1.0000 0.73130  0.52340  0.75090  Biso   1.000  C
  H21      1.0000 0.75240  0.52330  0.80490  Biso   1.000  H
  C38      1.0000 0.77830  0.53970  0.71900  Biso   1.000  C
  C39      1.0000 0.86080  0.56040  0.76270  Biso   1.000  C
  C40      1.0000 0.52010  0.89220  0.85790  Biso   1.000  C
  H22      1.0000 0.47630  0.82560  0.85030  Biso   1.000  H
  N5       1.0000 0.58040  0.78880  0.86890  Biso   1.000  N
  N6       1.0000 0.57890  0.19410  0.86760  Biso   1.000  N
  C41      1.0000 0.51930  0.08550  0.85710  Biso   1.000  C
  H23      1.0000 0.47480  0.14940  0.84890  Biso   1.000  H
  C42      1.0000 0.63650  0.08640  0.87320  Biso   1.000  C
  H24      1.0000 0.67910  0.15100  0.87660  Biso   1.000  H
  C43      1.0000 0.63690  0.89350  0.87430  Biso   1.000  C
  H25      1.0000 0.68010  0.82850  0.87930  Biso   1.000  H
  C44      1.0000 0.94460  0.99790  0.69230  Biso   1.000  C
  H26      1.0000 0.90500  0.93170  0.65070  Biso   1.000  H
  C45      1.0000 0.94640  0.19880  0.69440  Biso   1.000  C
  H27      1.0000 0.90640  0.26490  0.65320  Biso   1.000  H
  Ni4      1.0000 0.42071  0.48956  0.63041  Biso   1.000  Ni
  O19      1.0000 0.43400  0.51120  0.03290  Biso   1.000  O
  O20      1.0000 0.32180  0.51580  0.02110  Biso   1.000  O
  C46      1.0000 0.36480  0.51520  0.99120  Biso   1.000  C
  C47      1.0000 0.33140  0.51750  0.90510  Biso   1.000  C
  C48      1.0000 0.37810  0.50680  0.87430  Biso   1.000  C
  H28      1.0000 0.43100  0.49910  0.90620  Biso   1.000  H
  C49      1.0000 0.25590  0.53500  0.86130  Biso   1.000  C
  H29      1.0000 0.22550  0.54430  0.88500  Biso   1.000  H
  O21      1.0000 0.36460  0.49330  0.68820  Biso   1.000  O
  O22      1.0000 0.46520  0.48860  0.80350  Biso   1.000  O
  O23      1.0000 0.10690  0.59600  0.77530  Biso   1.000  O
  O24      1.0000 0.10540  0.54230  0.66570  Biso   1.000  O
  C50      1.0000 0.39720  0.49470  0.76130  Biso   1.000  C
  C51      1.0000 0.34660  0.50730  0.79510  Biso   1.000  C
  C52      1.0000 0.26870  0.52340  0.74910  Biso   1.000  C
  H30      1.0000 0.24760  0.52330  0.69510  Biso   1.000  H
  C53      1.0000 0.22170  0.53970  0.78100  Biso   1.000  C
  C54      1.0000 0.13920  0.56040  0.73730  Biso   1.000  C
  C55      1.0000 0.47990  0.89220  0.64210  Biso   1.000  C
  H31      1.0000 0.52370  0.82560  0.64970  Biso   1.000  H
  N7       1.0000 0.41960  0.78880  0.63110  Biso   1.000  N
  N8       1.0000 0.42110  0.19410  0.63240  Biso   1.000  N
  C56      1.0000 0.48070  0.08550  0.64290  Biso   1.000  C
  H32      1.0000 0.52520  0.14940  0.65110  Biso   1.000  H
  C57      1.0000 0.36350  0.08640  0.62680  Biso   1.000  C
  H33      1.0000 0.32090  0.15100  0.62340  Biso   1.000  H
  C58      1.0000 0.36310  0.89350  0.62570  Biso   1.000  C
  H34      1.0000 0.31990  0.82850  0.62070  Biso   1.000  H
  C59      1.0000 0.05540  0.99790  0.80770  Biso   1.000  C
  H35      1.0000 0.09500  0.93170  0.84930  Biso   1.000  H
  C60      1.0000 0.05360  0.19880  0.80560  Biso   1.000  C
  H36      1.0000 0.09360  0.26490  0.84680  Biso   1.000  H
  Ni5      1.0000 0.00000  0.40230  0.25000  Biso   1.000  Ni
  N9       1.0000 0.00000  0.10020  0.25000  Biso   1.000  N
  N10      1.0000 0.00000  0.69290  0.25000  Biso   1.000  N
  Ni6      1.0000 0.00000  0.59770  0.75000  Biso   1.000  Ni
  N11      1.0000 0.00000  0.89980  0.75000  Biso   1.000  N
  N12      1.0000 0.00000  0.30710  0.75000  Biso   1.000  N
