data_image0
_cell_length_a       21.9828
_cell_length_b       29.985
_cell_length_c       10.4146
_cell_angle_alpha    90
_cell_angle_beta     90
_cell_angle_gamma    90

_symmetry_space_group_name_H-M    "P 1"
_symmetry_int_tables_number       1

loop_
  _symmetry_equiv_pos_as_xyz
  'x, y, z'

loop_
  _atom_site_label
  _atom_site_occupancy
  _atom_site_fract_x
  _atom_site_fract_y
  _atom_site_fract_z
  _atom_site_thermal_displace_type
  _atom_site_B_iso_or_equiv
  _atom_site_type_symbol
  C1       1.0000 0.42087  0.55930  0.06030  Biso   1.000  C
  C2       1.0000 0.38062  0.59777  0.09810  Biso   1.000  C
  C3       1.0000 0.35845  0.60086  0.22220  Biso   1.000  C
  H1       1.0000 0.36730  0.57850  0.28130  Biso   1.000  H
  C4       1.0000 0.32321  0.63693  0.25890  Biso   1.000  C
  H2       1.0000 0.30800  0.63840  0.34210  Biso   1.000  H
  C5       1.0000 0.31044  0.67079  0.17310  Biso   1.000  C
  C6       1.0000 0.36687  0.63114  0.01130  Biso   1.000  C
  H3       1.0000 0.38060  0.62910  0.92700  Biso   1.000  H
  C7       1.0000 0.33271  0.66773  0.04940  Biso   1.000  C
  H4       1.0000 0.32470  0.69050  0.99100  Biso   1.000  H
  C8       1.0000 0.27668  0.71142  0.21340  Biso   1.000  C
  O1       1.0000 0.43605  0.53263  0.14636  Biso   1.000  O
  O2       1.0000 0.43666  0.55730  0.94432  Biso   1.000  O
  C9       1.0000 0.92087  0.05930  0.56030  Biso   1.000  C
  C10      1.0000 0.88062  0.09777  0.59810  Biso   1.000  C
  C11      1.0000 0.85845  0.10086  0.72220  Biso   1.000  C
  H5       1.0000 0.86730  0.07850  0.78130  Biso   1.000  H
  C12      1.0000 0.82321  0.13693  0.75890  Biso   1.000  C
  H6       1.0000 0.80800  0.13840  0.84210  Biso   1.000  H
  C13      1.0000 0.81044  0.17079  0.67310  Biso   1.000  C
  C14      1.0000 0.86687  0.13114  0.51130  Biso   1.000  C
  H7       1.0000 0.88060  0.12910  0.42700  Biso   1.000  H
  C15      1.0000 0.83271  0.16773  0.54940  Biso   1.000  C
  H8       1.0000 0.82470  0.19050  0.49100  Biso   1.000  H
  C16      1.0000 0.77668  0.21142  0.71340  Biso   1.000  C
  O3       1.0000 0.93605  0.03263  0.64636  Biso   1.000  O
  O4       1.0000 0.93666  0.05730  0.44432  Biso   1.000  O
  C17      1.0000 0.57913  0.94070  0.06030  Biso   1.000  C
  C18      1.0000 0.61938  0.90223  0.09810  Biso   1.000  C
  C19      1.0000 0.64155  0.89914  0.22220  Biso   1.000  C
  H9       1.0000 0.63270  0.92150  0.28130  Biso   1.000  H
  C20      1.0000 0.67679  0.86307  0.25890  Biso   1.000  C
  H10      1.0000 0.69200  0.86160  0.34210  Biso   1.000  H
  C21      1.0000 0.68956  0.82921  0.17310  Biso   1.000  C
  C22      1.0000 0.63313  0.86886  0.01130  Biso   1.000  C
  H11      1.0000 0.61940  0.87090  0.92700  Biso   1.000  H
  C23      1.0000 0.66729  0.83227  0.04940  Biso   1.000  C
  H12      1.0000 0.67530  0.80950  0.99100  Biso   1.000  H
  C24      1.0000 0.72332  0.78858  0.21340  Biso   1.000  C
  O5       1.0000 0.56395  0.96737  0.14636  Biso   1.000  O
  O6       1.0000 0.56334  0.94270  0.94432  Biso   1.000  O
  C25      1.0000 0.07913  0.44070  0.56030  Biso   1.000  C
  C26      1.0000 0.11938  0.40223  0.59810  Biso   1.000  C
  C27      1.0000 0.14155  0.39914  0.72220  Biso   1.000  C
  H13      1.0000 0.13270  0.42150  0.78130  Biso   1.000  H
  C28      1.0000 0.17679  0.36307  0.75890  Biso   1.000  C
  H14      1.0000 0.19200  0.36160  0.84210  Biso   1.000  H
  C29      1.0000 0.18956  0.32921  0.67310  Biso   1.000  C
  C30      1.0000 0.13313  0.36886  0.51130  Biso   1.000  C
  H15      1.0000 0.11940  0.37090  0.42700  Biso   1.000  H
  C31      1.0000 0.16729  0.33227  0.54940  Biso   1.000  C
  H16      1.0000 0.17530  0.30950  0.49100  Biso   1.000  H
  C32      1.0000 0.22332  0.28858  0.71340  Biso   1.000  C
  O7       1.0000 0.06395  0.46737  0.64636  Biso   1.000  O
  O8       1.0000 0.06334  0.44270  0.44432  Biso   1.000  O
  C33      1.0000 0.57913  0.05930  0.93970  Biso   1.000  C
  C34      1.0000 0.61938  0.09777  0.90190  Biso   1.000  C
  C35      1.0000 0.64155  0.10086  0.77780  Biso   1.000  C
  H17      1.0000 0.63270  0.07850  0.71870  Biso   1.000  H
  C36      1.0000 0.67679  0.13693  0.74110  Biso   1.000  C
  H18      1.0000 0.69200  0.13840  0.65790  Biso   1.000  H
  C37      1.0000 0.68956  0.17079  0.82690  Biso   1.000  C
  C38      1.0000 0.63313  0.13114  0.98870  Biso   1.000  C
  H19      1.0000 0.61940  0.12910  0.07300  Biso   1.000  H
  C39      1.0000 0.66729  0.16773  0.95060  Biso   1.000  C
  H20      1.0000 0.67530  0.19050  0.00900  Biso   1.000  H
  C40      1.0000 0.72332  0.21142  0.78660  Biso   1.000  C
  O9       1.0000 0.56395  0.03263  0.85364  Biso   1.000  O
  O10      1.0000 0.56334  0.05730  0.05568  Biso   1.000  O
  C41      1.0000 0.07913  0.55930  0.43970  Biso   1.000  C
  C42      1.0000 0.11938  0.59777  0.40190  Biso   1.000  C
  C43      1.0000 0.14155  0.60086  0.27780  Biso   1.000  C
  H21      1.0000 0.13270  0.57850  0.21870  Biso   1.000  H
  C44      1.0000 0.17679  0.63693  0.24110  Biso   1.000  C
  H22      1.0000 0.19200  0.63840  0.15790  Biso   1.000  H
  C45      1.0000 0.18956  0.67079  0.32690  Biso   1.000  C
  C46      1.0000 0.13313  0.63114  0.48870  Biso   1.000  C
  H23      1.0000 0.11940  0.62910  0.57300  Biso   1.000  H
  C47      1.0000 0.16729  0.66773  0.45060  Biso   1.000  C
  H24      1.0000 0.17530  0.69050  0.50900  Biso   1.000  H
  C48      1.0000 0.22332  0.71142  0.28660  Biso   1.000  C
  O11      1.0000 0.06395  0.53263  0.35364  Biso   1.000  O
  O12      1.0000 0.06334  0.55730  0.55568  Biso   1.000  O
  C49      1.0000 0.42087  0.44070  0.93970  Biso   1.000  C
  C50      1.0000 0.38062  0.40223  0.90190  Biso   1.000  C
  C51      1.0000 0.35845  0.39914  0.77780  Biso   1.000  C
  H25      1.0000 0.36730  0.42150  0.71870  Biso   1.000  H
  C52      1.0000 0.32321  0.36307  0.74110  Biso   1.000  C
  H26      1.0000 0.30800  0.36160  0.65790  Biso   1.000  H
  C53      1.0000 0.31044  0.32921  0.82690  Biso   1.000  C
  C54      1.0000 0.36687  0.36886  0.98870  Biso   1.000  C
  H27      1.0000 0.38060  0.37090  0.07300  Biso   1.000  H
  C55      1.0000 0.33271  0.33227  0.95060  Biso   1.000  C
  H28      1.0000 0.32470  0.30950  0.00900  Biso   1.000  H
  C56      1.0000 0.27668  0.28858  0.78660  Biso   1.000  C
  O13      1.0000 0.43605  0.46737  0.85364  Biso   1.000  O
  O14      1.0000 0.43666  0.44270  0.05568  Biso   1.000  O
  C57      1.0000 0.92087  0.94070  0.43970  Biso   1.000  C
  C58      1.0000 0.88062  0.90223  0.40190  Biso   1.000  C
  C59      1.0000 0.85845  0.89914  0.27780  Biso   1.000  C
  H29      1.0000 0.86730  0.92150  0.21870  Biso   1.000  H
  C60      1.0000 0.82321  0.86307  0.24110  Biso   1.000  C
  H30      1.0000 0.80800  0.86160  0.15790  Biso   1.000  H
  C61      1.0000 0.81044  0.82921  0.32690  Biso   1.000  C
  C62      1.0000 0.86687  0.86886  0.48870  Biso   1.000  C
  H31      1.0000 0.88060  0.87090  0.57300  Biso   1.000  H
  C63      1.0000 0.83271  0.83227  0.45060  Biso   1.000  C
  H32      1.0000 0.82470  0.80950  0.50900  Biso   1.000  H
  C64      1.0000 0.77668  0.78858  0.28660  Biso   1.000  C
  O15      1.0000 0.93605  0.96737  0.35364  Biso   1.000  O
  O16      1.0000 0.93666  0.94270  0.55568  Biso   1.000  O
  C65      1.0000 0.57913  0.44070  0.93970  Biso   1.000  C
  C66      1.0000 0.61938  0.40223  0.90190  Biso   1.000  C
  C67      1.0000 0.64155  0.39914  0.77780  Biso   1.000  C
  H33      1.0000 0.63270  0.42150  0.71870  Biso   1.000  H
  C68      1.0000 0.67679  0.36307  0.74110  Biso   1.000  C
  H34      1.0000 0.69200  0.36160  0.65790  Biso   1.000  H
  C69      1.0000 0.68956  0.32921  0.82690  Biso   1.000  C
  C70      1.0000 0.63313  0.36886  0.98870  Biso   1.000  C
  H35      1.0000 0.61940  0.37090  0.07300  Biso   1.000  H
  C71      1.0000 0.66729  0.33227  0.95060  Biso   1.000  C
  H36      1.0000 0.67530  0.30950  0.00900  Biso   1.000  H
  C72      1.0000 0.72332  0.28858  0.78660  Biso   1.000  C
  O17      1.0000 0.56395  0.46737  0.85364  Biso   1.000  O
  O18      1.0000 0.56334  0.44270  0.05568  Biso   1.000  O
  C73      1.0000 0.07913  0.94070  0.43970  Biso   1.000  C
  C74      1.0000 0.11938  0.90223  0.40190  Biso   1.000  C
  C75      1.0000 0.14155  0.89914  0.27780  Biso   1.000  C
  H37      1.0000 0.13270  0.92150  0.21870  Biso   1.000  H
  C76      1.0000 0.17679  0.86307  0.24110  Biso   1.000  C
  H38      1.0000 0.19200  0.86160  0.15790  Biso   1.000  H
  C77      1.0000 0.18956  0.82921  0.32690  Biso   1.000  C
  C78      1.0000 0.13313  0.86886  0.48870  Biso   1.000  C
  H39      1.0000 0.11940  0.87090  0.57300  Biso   1.000  H
  C79      1.0000 0.16729  0.83227  0.45060  Biso   1.000  C
  H40      1.0000 0.17530  0.80950  0.50900  Biso   1.000  H
  C80      1.0000 0.22332  0.78858  0.28660  Biso   1.000  C
  O19      1.0000 0.06395  0.96737  0.35364  Biso   1.000  O
  O20      1.0000 0.06334  0.94270  0.55568  Biso   1.000  O
  C81      1.0000 0.42087  0.05930  0.93970  Biso   1.000  C
  C82      1.0000 0.38062  0.09777  0.90190  Biso   1.000  C
  C83      1.0000 0.35845  0.10086  0.77780  Biso   1.000  C
  H41      1.0000 0.36730  0.07850  0.71870  Biso   1.000  H
  C84      1.0000 0.32321  0.13693  0.74110  Biso   1.000  C
  H42      1.0000 0.30800  0.13840  0.65790  Biso   1.000  H
  C85      1.0000 0.31044  0.17079  0.82690  Biso   1.000  C
  C86      1.0000 0.36687  0.13114  0.98870  Biso   1.000  C
  H43      1.0000 0.38060  0.12910  0.07300  Biso   1.000  H
  C87      1.0000 0.33271  0.16773  0.95060  Biso   1.000  C
  H44      1.0000 0.32470  0.19050  0.00900  Biso   1.000  H
  C88      1.0000 0.27668  0.21142  0.78660  Biso   1.000  C
  O21      1.0000 0.43605  0.03263  0.85364  Biso   1.000  O
  O22      1.0000 0.43666  0.05730  0.05568  Biso   1.000  O
  C89      1.0000 0.92087  0.55930  0.43970  Biso   1.000  C
  C90      1.0000 0.88062  0.59777  0.40190  Biso   1.000  C
  C91      1.0000 0.85845  0.60086  0.27780  Biso   1.000  C
  H45      1.0000 0.86730  0.57850  0.21870  Biso   1.000  H
  C92      1.0000 0.82321  0.63693  0.24110  Biso   1.000  C
  H46      1.0000 0.80800  0.63840  0.15790  Biso   1.000  H
  C93      1.0000 0.81044  0.67079  0.32690  Biso   1.000  C
  C94      1.0000 0.86687  0.63114  0.48870  Biso   1.000  C
  H47      1.0000 0.88060  0.62910  0.57300  Biso   1.000  H
  C95      1.0000 0.83271  0.66773  0.45060  Biso   1.000  C
  H48      1.0000 0.82470  0.69050  0.50900  Biso   1.000  H
  C96      1.0000 0.77668  0.71142  0.28660  Biso   1.000  C
  O23      1.0000 0.93605  0.53263  0.35364  Biso   1.000  O
  O24      1.0000 0.93666  0.55730  0.55568  Biso   1.000  O
  C97      1.0000 0.42087  0.94070  0.06030  Biso   1.000  C
  C98      1.0000 0.38062  0.90223  0.09810  Biso   1.000  C
  C99      1.0000 0.35845  0.89914  0.22220  Biso   1.000  C
  H49      1.0000 0.36730  0.92150  0.28130  Biso   1.000  H
  C100     1.0000 0.32321  0.86307  0.25890  Biso   1.000  C
  H50      1.0000 0.30800  0.86160  0.34210  Biso   1.000  H
  C101     1.0000 0.31044  0.82921  0.17310  Biso   1.000  C
  C102     1.0000 0.36687  0.86886  0.01130  Biso   1.000  C
  H51      1.0000 0.38060  0.87090  0.92700  Biso   1.000  H
  C103     1.0000 0.33271  0.83227  0.04940  Biso   1.000  C
  H52      1.0000 0.32470  0.80950  0.99100  Biso   1.000  H
  C104     1.0000 0.27668  0.78858  0.21340  Biso   1.000  C
  O25      1.0000 0.43605  0.96737  0.14636  Biso   1.000  O
  O26      1.0000 0.43666  0.94270  0.94432  Biso   1.000  O
  C105     1.0000 0.92087  0.44070  0.56030  Biso   1.000  C
  C106     1.0000 0.88062  0.40223  0.59810  Biso   1.000  C
  C107     1.0000 0.85845  0.39914  0.72220  Biso   1.000  C
  H53      1.0000 0.86730  0.42150  0.78130  Biso   1.000  H
  C108     1.0000 0.82321  0.36307  0.75890  Biso   1.000  C
  H54      1.0000 0.80800  0.36160  0.84210  Biso   1.000  H
  C109     1.0000 0.81044  0.32921  0.67310  Biso   1.000  C
  C110     1.0000 0.86687  0.36886  0.51130  Biso   1.000  C
  H55      1.0000 0.88060  0.37090  0.42700  Biso   1.000  H
  C111     1.0000 0.83271  0.33227  0.54940  Biso   1.000  C
  H56      1.0000 0.82470  0.30950  0.49100  Biso   1.000  H
  C112     1.0000 0.77668  0.28858  0.71340  Biso   1.000  C
  O27      1.0000 0.93605  0.46737  0.64636  Biso   1.000  O
  O28      1.0000 0.93666  0.44270  0.44432  Biso   1.000  O
  C113     1.0000 0.57913  0.55930  0.06030  Biso   1.000  C
  C114     1.0000 0.61938  0.59777  0.09810  Biso   1.000  C
  C115     1.0000 0.64155  0.60086  0.22220  Biso   1.000  C
  H57      1.0000 0.63270  0.57850  0.28130  Biso   1.000  H
  C116     1.0000 0.67679  0.63693  0.25890  Biso   1.000  C
  H58      1.0000 0.69200  0.63840  0.34210  Biso   1.000  H
  C117     1.0000 0.68956  0.67079  0.17310  Biso   1.000  C
  C118     1.0000 0.63313  0.63114  0.01130  Biso   1.000  C
  H59      1.0000 0.61940  0.62910  0.92700  Biso   1.000  H
  C119     1.0000 0.66729  0.66773  0.04940  Biso   1.000  C
  H60      1.0000 0.67530  0.69050  0.99100  Biso   1.000  H
  C120     1.0000 0.72332  0.71142  0.21340  Biso   1.000  C
  O29      1.0000 0.56395  0.53263  0.14636  Biso   1.000  O
  O30      1.0000 0.56334  0.55730  0.94432  Biso   1.000  O
  C121     1.0000 0.07913  0.05930  0.56030  Biso   1.000  C
  C122     1.0000 0.11938  0.09777  0.59810  Biso   1.000  C
  C123     1.0000 0.14155  0.10086  0.72220  Biso   1.000  C
  H61      1.0000 0.13270  0.07850  0.78130  Biso   1.000  H
  C124     1.0000 0.17679  0.13693  0.75890  Biso   1.000  C
  H62      1.0000 0.19200  0.13840  0.84210  Biso   1.000  H
  C125     1.0000 0.18956  0.17079  0.67310  Biso   1.000  C
  C126     1.0000 0.13313  0.13114  0.51130  Biso   1.000  C
  H63      1.0000 0.11940  0.12910  0.42700  Biso   1.000  H
  C127     1.0000 0.16729  0.16773  0.54940  Biso   1.000  C
  H64      1.0000 0.17530  0.19050  0.49100  Biso   1.000  H
  C128     1.0000 0.22332  0.21142  0.71340  Biso   1.000  C
  O31      1.0000 0.06395  0.03263  0.64636  Biso   1.000  O
  O32      1.0000 0.06334  0.05730  0.44432  Biso   1.000  O
  Zn1      1.0000 0.50000  0.48408  0.13390  Biso   1.000  Zn
  Zn2      1.0000 0.00000  0.98408  0.63390  Biso   1.000  Zn
  Zn3      1.0000 0.50000  0.01592  0.13390  Biso   1.000  Zn
  Zn4      1.0000 0.00000  0.51592  0.63390  Biso   1.000  Zn
  Zn5      1.0000 0.50000  0.98408  0.86610  Biso   1.000  Zn
  Zn6      1.0000 0.00000  0.48408  0.36610  Biso   1.000  Zn
  Zn7      1.0000 0.50000  0.51592  0.86610  Biso   1.000  Zn
  Zn8      1.0000 0.00000  0.01592  0.36610  Biso   1.000  Zn
  N1       1.0000 0.30193  0.75000  0.17530  Biso   1.000  N
  N2       1.0000 0.80193  0.25000  0.67530  Biso   1.000  N
  N3       1.0000 0.69807  0.75000  0.17530  Biso   1.000  N
  N4       1.0000 0.19807  0.25000  0.67530  Biso   1.000  N
  N5       1.0000 0.69807  0.25000  0.82470  Biso   1.000  N
  N6       1.0000 0.19807  0.75000  0.32470  Biso   1.000  N
  N7       1.0000 0.30193  0.25000  0.82470  Biso   1.000  N
  N8       1.0000 0.80193  0.75000  0.32470  Biso   1.000  N
