data_image0
_cell_length_a       10.3187
_cell_length_b       13.6651
_cell_length_c       16.1419
_cell_angle_alpha    102.047
_cell_angle_beta     108.58
_cell_angle_gamma    99.147

_symmetry_space_group_name_H-M    "P 1"
_symmetry_int_tables_number       1

loop_
  _symmetry_equiv_pos_as_xyz
  'x, y, z'

loop_
  _atom_site_label
  _atom_site_occupancy
  _atom_site_fract_x
  _atom_site_fract_y
  _atom_site_fract_z
  _atom_site_thermal_displace_type
  _atom_site_B_iso_or_equiv
  _atom_site_type_symbol
  Zn1      1.0000 0.71330  0.25236  0.23993  Biso   1.000  Zn
  Zn2      1.0000 0.52480  0.20680  0.87462  Biso   1.000  Zn
  P1       1.0000 0.46310  0.24439  0.05976  Biso   1.000  P
  P2       1.0000 0.62010  0.01914  0.17377  Biso   1.000  P
  O1       1.0000 0.34930  0.30860  0.03950  Biso   1.000  O
  H1       1.0000 0.36050  0.35920  0.05740  Biso   1.000  H
  O2       1.0000 0.55320  0.28470  0.16030  Biso   1.000  O
  O3       1.0000 0.38110  0.13290  0.03310  Biso   1.000  O
  O4       1.0000 0.55290  0.26010  0.00230  Biso   1.000  O
  O5       1.0000 0.68610  0.02690  0.09990  Biso   1.000  O
  O6       1.0000 0.46180  0.01990  0.13420  Biso   1.000  O
  H2       1.0000 0.43680  0.06460  0.09760  Biso   1.000  H
  O7       1.0000 0.62430  0.91850  0.19790  Biso   1.000  O
  O8       1.0000 0.70260  0.11410  0.25360  Biso   1.000  O
  N1       1.0000 0.87950  0.30390  0.20830  Biso   1.000  N
  N2       1.0000 0.01530  0.41160  0.16760  Biso   1.000  N
  N3       1.0000 0.72270  0.19690  0.88930  Biso   1.000  N
  N4       1.0000 0.93400  0.17050  0.95500  Biso   1.000  N
  N5       1.0000 0.74290  0.34610  0.36180  Biso   1.000  N
  N6       1.0000 0.73410  0.47840  0.46510  Biso   1.000  N
  C1       1.0000 0.88650  0.38140  0.17280  Biso   1.000  C
  H3       1.0000 0.81080  0.41290  0.15300  Biso   1.000  H
  C2       1.0000 0.04810  0.49370  0.12440  Biso   1.000  C
  H4       1.0000 0.15150  0.52160  0.14770  Biso   1.000  H
  H5       1.0000 0.00540  0.55070  0.14210  Biso   1.000  H
  C3       1.0000 0.99420  0.45520  0.02100  Biso   1.000  C
  H6       1.0000 0.89460  0.41610  0.99800  Biso   1.000  H
  H7       1.0000 0.04980  0.40780  0.00270  Biso   1.000  H
  C4       1.0000 0.09660  0.34880  0.20280  Biso   1.000  C
  C5       1.0000 0.01230  0.28090  0.22830  Biso   1.000  C
  C6       1.0000 0.05990  0.20270  0.26360  Biso   1.000  C
  H8       1.0000 0.00100  0.15540  0.27980  Biso   1.000  H
  C7       1.0000 0.19620  0.19730  0.27410  Biso   1.000  C
  H9       1.0000 0.23240  0.14550  0.29840  Biso   1.000  H
  C8       1.0000 0.28310  0.26700  0.24940  Biso   1.000  C
  H10      1.0000 0.37610  0.26060  0.25650  Biso   1.000  H
  C9       1.0000 0.23540  0.34500  0.21470  Biso   1.000  C
  H11      1.0000 0.29470  0.39350  0.19980  Biso   1.000  H
  C10      1.0000 0.80620  0.17250  0.95790  Biso   1.000  C
  H12      1.0000 0.77840  0.15750  0.00550  Biso   1.000  H
  C11      1.0000 0.05110  0.14870  0.02160  Biso   1.000  C
  H13      1.0000 0.04090  0.16570  0.08160  Biso   1.000  H
  H14      1.0000 0.14030  0.19400  0.02730  Biso   1.000  H
  C12      1.0000 0.06030  0.03700  0.99740  Biso   1.000  C
  H15      1.0000 0.06110  0.01780  0.93500  Biso   1.000  H
  H16      1.0000 0.15020  0.03040  0.03950  Biso   1.000  H
  C13      1.0000 0.93540  0.19590  0.87630  Biso   1.000  C
  C14      1.0000 0.04030  0.20740  0.83990  Biso   1.000  C
  H17      1.0000 0.13040  0.19580  0.86800  Biso   1.000  H
  C15      1.0000 0.00530  0.23680  0.76020  Biso   1.000  C
  H18      1.0000 0.07430  0.24700  0.73340  Biso   1.000  H
  C16      1.0000 0.87160  0.25200  0.71740  Biso   1.000  C
  H19      1.0000 0.85190  0.27050  0.66190  Biso   1.000  H
  C17      1.0000 0.76770  0.24080  0.75430  Biso   1.000  C
  H20      1.0000 0.67760  0.25200  0.72590  Biso   1.000  H
  C18      1.0000 0.80190  0.21200  0.83530  Biso   1.000  C
  C19      1.0000 0.67970  0.42080  0.37670  Biso   1.000  C
  H21      1.0000 0.60460  0.43310  0.33100  Biso   1.000  H
  C20      1.0000 0.68610  0.56610  0.50510  Biso   1.000  C
  H22      1.0000 0.65160  0.60290  0.45890  Biso   1.000  H
  H23      1.0000 0.76670  0.61480  0.55670  Biso   1.000  H
  C21      1.0000 0.56840  0.53120  0.53860  Biso   1.000  C
  H24      1.0000 0.60010  0.48880  0.58040  Biso   1.000  H
  H25      1.0000 0.55010  0.59270  0.57350  Biso   1.000  H
  C22      1.0000 0.84130  0.43770  0.51020  Biso   1.000  C
  C23      1.0000 0.93680  0.46860  0.60010  Biso   1.000  C
  H26      1.0000 0.93200  0.52490  0.64400  Biso   1.000  H
  C24      1.0000 0.03850  0.41370  0.62220  Biso   1.000  C
  H27      1.0000 0.10600  0.43320  0.68250  Biso   1.000  H
  C25      1.0000 0.04400  0.33060  0.55800  Biso   1.000  C
  H28      1.0000 0.11520  0.29460  0.57570  Biso   1.000  H
  C26      1.0000 0.94780  0.29830  0.46830  Biso   1.000  C
  H29      1.0000 0.95130  0.24090  0.42490  Biso   1.000  H
  C27      1.0000 0.84680  0.35430  0.44580  Biso   1.000  C
  Zn3      1.0000 0.28670  0.74764  0.76007  Biso   1.000  Zn
  Zn4      1.0000 0.47520  0.79320  0.12538  Biso   1.000  Zn
  P3       1.0000 0.53690  0.75561  0.94024  Biso   1.000  P
  P4       1.0000 0.37990  0.98086  0.82623  Biso   1.000  P
  O9       1.0000 0.65070  0.69140  0.96050  Biso   1.000  O
  H30      1.0000 0.63950  0.64080  0.94260  Biso   1.000  H
  O10      1.0000 0.44680  0.71530  0.83970  Biso   1.000  O
  O11      1.0000 0.61890  0.86710  0.96690  Biso   1.000  O
  O12      1.0000 0.44710  0.73990  0.99770  Biso   1.000  O
  O13      1.0000 0.31390  0.97310  0.90010  Biso   1.000  O
  O14      1.0000 0.53820  0.98010  0.86580  Biso   1.000  O
  H31      1.0000 0.56320  0.93540  0.90240  Biso   1.000  H
  O15      1.0000 0.37570  0.08150  0.80210  Biso   1.000  O
  O16      1.0000 0.29740  0.88590  0.74640  Biso   1.000  O
  N7       1.0000 0.12050  0.69610  0.79170  Biso   1.000  N
  N8       1.0000 0.98470  0.58840  0.83240  Biso   1.000  N
  N9       1.0000 0.27730  0.80310  0.11070  Biso   1.000  N
  N10      1.0000 0.06600  0.82950  0.04500  Biso   1.000  N
  N11      1.0000 0.25710  0.65390  0.63820  Biso   1.000  N
  N12      1.0000 0.26590  0.52160  0.53490  Biso   1.000  N
  C28      1.0000 0.11350  0.61860  0.82720  Biso   1.000  C
  H32      1.0000 0.18920  0.58710  0.84700  Biso   1.000  H
  C29      1.0000 0.95190  0.50630  0.87560  Biso   1.000  C
  H33      1.0000 0.84850  0.47840  0.85230  Biso   1.000  H
  H34      1.0000 0.99460  0.44930  0.85790  Biso   1.000  H
  C30      1.0000 0.00580  0.54480  0.97900  Biso   1.000  C
  H35      1.0000 0.10540  0.58390  0.00200  Biso   1.000  H
  H36      1.0000 0.95020  0.59220  0.99730  Biso   1.000  H
  C31      1.0000 0.90340  0.65120  0.79720  Biso   1.000  C
  C32      1.0000 0.98770  0.71910  0.77170  Biso   1.000  C
  C33      1.0000 0.94010  0.79730  0.73640  Biso   1.000  C
  H37      1.0000 0.99900  0.84460  0.72020  Biso   1.000  H
  C34      1.0000 0.80380  0.80270  0.72590  Biso   1.000  C
  H38      1.0000 0.76760  0.85450  0.70160  Biso   1.000  H
  C35      1.0000 0.71690  0.73300  0.75060  Biso   1.000  C
  H39      1.0000 0.62390  0.73940  0.74350  Biso   1.000  H
  C36      1.0000 0.76460  0.65500  0.78530  Biso   1.000  C
  H40      1.0000 0.70530  0.60650  0.80020  Biso   1.000  H
  C37      1.0000 0.19380  0.82750  0.04210  Biso   1.000  C
  H41      1.0000 0.22160  0.84250  0.99450  Biso   1.000  H
  C38      1.0000 0.94890  0.85130  0.97840  Biso   1.000  C
  H42      1.0000 0.95910  0.83430  0.91840  Biso   1.000  H
  H43      1.0000 0.85970  0.80600  0.97270  Biso   1.000  H
  C39      1.0000 0.93970  0.96300  0.00260  Biso   1.000  C
  H44      1.0000 0.93890  0.98220  0.06500  Biso   1.000  H
  H45      1.0000 0.84980  0.96960  0.96050  Biso   1.000  H
  C40      1.0000 0.06460  0.80410  0.12370  Biso   1.000  C
  C41      1.0000 0.95970  0.79260  0.16010  Biso   1.000  C
  H46      1.0000 0.86960  0.80420  0.13200  Biso   1.000  H
  C42      1.0000 0.99470  0.76320  0.23980  Biso   1.000  C
  H47      1.0000 0.92570  0.75300  0.26660  Biso   1.000  H
  C43      1.0000 0.12840  0.74800  0.28260  Biso   1.000  C
  H48      1.0000 0.14810  0.72950  0.33810  Biso   1.000  H
  C44      1.0000 0.23230  0.75920  0.24570  Biso   1.000  C
  H49      1.0000 0.32240  0.74800  0.27410  Biso   1.000  H
  C45      1.0000 0.19810  0.78800  0.16470  Biso   1.000  C
  C46      1.0000 0.32030  0.57920  0.62330  Biso   1.000  C
  H50      1.0000 0.39540  0.56690  0.66900  Biso   1.000  H
  C47      1.0000 0.31390  0.43390  0.49490  Biso   1.000  C
  H51      1.0000 0.34840  0.39710  0.54110  Biso   1.000  H
  H52      1.0000 0.23330  0.38520  0.44330  Biso   1.000  H
  C48      1.0000 0.43160  0.46880  0.46140  Biso   1.000  C
  H53      1.0000 0.39990  0.51120  0.41960  Biso   1.000  H
  H54      1.0000 0.44990  0.40730  0.42650  Biso   1.000  H
  C49      1.0000 0.15870  0.56230  0.48980  Biso   1.000  C
  C50      1.0000 0.06320  0.53140  0.39990  Biso   1.000  C
  H55      1.0000 0.06800  0.47510  0.35600  Biso   1.000  H
  C51      1.0000 0.96150  0.58630  0.37780  Biso   1.000  C
  H56      1.0000 0.89400  0.56680  0.31750  Biso   1.000  H
  C52      1.0000 0.95600  0.66940  0.44200  Biso   1.000  C
  H57      1.0000 0.88480  0.70540  0.42430  Biso   1.000  H
  C53      1.0000 0.05220  0.70170  0.53170  Biso   1.000  C
  H58      1.0000 0.04870  0.75910  0.57510  Biso   1.000  H
  C54      1.0000 0.15320  0.64570  0.55420  Biso   1.000  C
