data_image0
_cell_length_a       6.9676
_cell_length_b       17.4113
_cell_length_c       18.6278
_cell_angle_alpha    90
_cell_angle_beta     90
_cell_angle_gamma    90

_symmetry_space_group_name_H-M    "P 1"
_symmetry_int_tables_number       1

loop_
  _symmetry_equiv_pos_as_xyz
  'x, y, z'

loop_
  _atom_site_label
  _atom_site_occupancy
  _atom_site_fract_x
  _atom_site_fract_y
  _atom_site_fract_z
  _atom_site_thermal_displace_type
  _atom_site_B_iso_or_equiv
  _atom_site_type_symbol
  C1       1.0000 0.91200  0.60467  0.58988  Biso   1.000  C
  H1       1.0000 0.78550  0.58910  0.60220  Biso   1.000  H
  C2       1.0000 0.21870  0.60726  0.57936  Biso   1.000  C
  H2       1.0000 0.35050  0.59380  0.58300  Biso   1.000  H
  C3       1.0000 0.08920  0.38850  0.90535  Biso   1.000  C
  H3       1.0000 0.21370  0.40120  0.88830  Biso   1.000  H
  C4       1.0000 0.78350  0.39117  0.92435  Biso   1.000  C
  H4       1.0000 0.65230  0.40600  0.92300  Biso   1.000  H
  C5       1.0000 0.90540  0.49362  0.84150  Biso   1.000  C
  H5       1.0000 0.99680  0.53430  0.85580  Biso   1.000  H
  H6       1.0000 0.77380  0.51450  0.84610  Biso   1.000  H
  C6       1.0000 0.94140  0.47178  0.76488  Biso   1.000  C
  H7       1.0000 0.87440  0.42920  0.74510  Biso   1.000  H
  C7       1.0000 0.06270  0.50963  0.72430  Biso   1.000  C
  H8       1.0000 0.13730  0.54930  0.74540  Biso   1.000  H
  C8       1.0000 0.08820  0.49296  0.64656  Biso   1.000  C
  H9       1.0000 0.21550  0.46930  0.63830  Biso   1.000  H
  H10      1.0000 0.98850  0.45640  0.63030  Biso   1.000  H
  N1       1.0000 0.95660  0.66796  0.55518  Biso   1.000  N
  N2       1.0000 0.07280  0.56555  0.60518  Biso   1.000  N
  N3       1.0000 0.04760  0.33036  0.94788  Biso   1.000  N
  N4       1.0000 0.92720  0.42696  0.88995  Biso   1.000  N
  N5       1.0000 0.15230  0.66991  0.54815  Biso   1.000  N
  N6       1.0000 0.85300  0.33250  0.96015  Biso   1.000  N
  Cu1      1.0000 0.70779  0.25064  0.00822  Biso   1.000  Cu
  C9       1.0000 0.58800  0.39533  0.08988  Biso   1.000  C
  H11      1.0000 0.71450  0.41090  0.10220  Biso   1.000  H
  C10      1.0000 0.28130  0.39274  0.07936  Biso   1.000  C
  H12      1.0000 0.14950  0.40620  0.08300  Biso   1.000  H
  C11      1.0000 0.41080  0.61150  0.40535  Biso   1.000  C
  H13      1.0000 0.28630  0.59880  0.38830  Biso   1.000  H
  C12      1.0000 0.71650  0.60883  0.42435  Biso   1.000  C
  H14      1.0000 0.84770  0.59400  0.42300  Biso   1.000  H
  C13      1.0000 0.59460  0.50638  0.34150  Biso   1.000  C
  H15      1.0000 0.50320  0.46570  0.35580  Biso   1.000  H
  H16      1.0000 0.72620  0.48550  0.34610  Biso   1.000  H
  C14      1.0000 0.55860  0.52822  0.26488  Biso   1.000  C
  H17      1.0000 0.62560  0.57080  0.24510  Biso   1.000  H
  C15      1.0000 0.43730  0.49037  0.22430  Biso   1.000  C
  H18      1.0000 0.36270  0.45070  0.24540  Biso   1.000  H
  C16      1.0000 0.41180  0.50704  0.14656  Biso   1.000  C
  H19      1.0000 0.28450  0.53070  0.13830  Biso   1.000  H
  H20      1.0000 0.51150  0.54360  0.13030  Biso   1.000  H
  N7       1.0000 0.54340  0.33204  0.05518  Biso   1.000  N
  N8       1.0000 0.42720  0.43445  0.10518  Biso   1.000  N
  N9       1.0000 0.45240  0.66964  0.44788  Biso   1.000  N
  N10      1.0000 0.57280  0.57304  0.38995  Biso   1.000  N
  N11      1.0000 0.34770  0.33009  0.04815  Biso   1.000  N
  N12      1.0000 0.64700  0.66750  0.46015  Biso   1.000  N
  Cu2      1.0000 0.79221  0.74936  0.50822  Biso   1.000  Cu
  C17      1.0000 0.08800  0.10467  0.91012  Biso   1.000  C
  H21      1.0000 0.21450  0.08910  0.89780  Biso   1.000  H
  C18      1.0000 0.78130  0.10726  0.92064  Biso   1.000  C
  H22      1.0000 0.64950  0.09380  0.91700  Biso   1.000  H
  C19      1.0000 0.91080  0.88850  0.59465  Biso   1.000  C
  H23      1.0000 0.78630  0.90120  0.61170  Biso   1.000  H
  C20      1.0000 0.21650  0.89117  0.57565  Biso   1.000  C
  H24      1.0000 0.34770  0.90600  0.57700  Biso   1.000  H
  C21      1.0000 0.09460  0.99362  0.65850  Biso   1.000  C
  H25      1.0000 0.00320  0.03430  0.64420  Biso   1.000  H
  H26      1.0000 0.22620  0.01450  0.65390  Biso   1.000  H
  C22      1.0000 0.05860  0.97178  0.73512  Biso   1.000  C
  H27      1.0000 0.12560  0.92920  0.75490  Biso   1.000  H
  C23      1.0000 0.93730  0.00963  0.77570  Biso   1.000  C
  H28      1.0000 0.86270  0.04930  0.75460  Biso   1.000  H
  C24      1.0000 0.91180  0.99296  0.85344  Biso   1.000  C
  H29      1.0000 0.78450  0.96930  0.86170  Biso   1.000  H
  H30      1.0000 0.01150  0.95640  0.86970  Biso   1.000  H
  N13      1.0000 0.04340  0.16796  0.94482  Biso   1.000  N
  N14      1.0000 0.92720  0.06555  0.89482  Biso   1.000  N
  N15      1.0000 0.95240  0.83036  0.55212  Biso   1.000  N
  N16      1.0000 0.07280  0.92696  0.61005  Biso   1.000  N
  N17      1.0000 0.84770  0.16991  0.95185  Biso   1.000  N
  N18      1.0000 0.14700  0.83250  0.53985  Biso   1.000  N
  Cu3      1.0000 0.29221  0.75064  0.49178  Biso   1.000  Cu
  C25      1.0000 0.41200  0.89533  0.41012  Biso   1.000  C
  H31      1.0000 0.28550  0.91090  0.39780  Biso   1.000  H
  C26      1.0000 0.71870  0.89274  0.42064  Biso   1.000  C
  H32      1.0000 0.85050  0.90620  0.41700  Biso   1.000  H
  C27      1.0000 0.58920  0.11150  0.09465  Biso   1.000  C
  H33      1.0000 0.71370  0.09880  0.11170  Biso   1.000  H
  C28      1.0000 0.28350  0.10883  0.07565  Biso   1.000  C
  H34      1.0000 0.15230  0.09400  0.07700  Biso   1.000  H
  C29      1.0000 0.40540  0.00638  0.15850  Biso   1.000  C
  H35      1.0000 0.49680  0.96570  0.14420  Biso   1.000  H
  H36      1.0000 0.27380  0.98550  0.15390  Biso   1.000  H
  C30      1.0000 0.44140  0.02822  0.23512  Biso   1.000  C
  H37      1.0000 0.37440  0.07080  0.25490  Biso   1.000  H
  C31      1.0000 0.56270  0.99037  0.27570  Biso   1.000  C
  H38      1.0000 0.63730  0.95070  0.25460  Biso   1.000  H
  C32      1.0000 0.58820  0.00704  0.35344  Biso   1.000  C
  H39      1.0000 0.71550  0.03070  0.36170  Biso   1.000  H
  H40      1.0000 0.48850  0.04360  0.36970  Biso   1.000  H
  N19      1.0000 0.45660  0.83204  0.44482  Biso   1.000  N
  N20      1.0000 0.57280  0.93445  0.39482  Biso   1.000  N
  N21      1.0000 0.54760  0.16964  0.05212  Biso   1.000  N
  N22      1.0000 0.42720  0.07304  0.11005  Biso   1.000  N
  N23      1.0000 0.65230  0.83009  0.45185  Biso   1.000  N
  N24      1.0000 0.35300  0.16750  0.03985  Biso   1.000  N
  Cu4      1.0000 0.20779  0.24936  0.99178  Biso   1.000  Cu
