data_image0
_cell_length_a       20.15
_cell_length_b       10.299
_cell_length_c       17.849
_cell_angle_alpha    90
_cell_angle_beta     99.88
_cell_angle_gamma    90

_symmetry_space_group_name_H-M    "P 1"
_symmetry_int_tables_number       1

loop_
  _symmetry_equiv_pos_as_xyz
  'x, y, z'

loop_
  _atom_site_label
  _atom_site_occupancy
  _atom_site_fract_x
  _atom_site_fract_y
  _atom_site_fract_z
  _atom_site_thermal_displace_type
  _atom_site_B_iso_or_equiv
  _atom_site_type_symbol
  Cd1      1.0000 0.41123  0.99375  0.10976  Biso   1.000  Cd
  Cd2      1.0000 0.18192  0.99113  0.87252  Biso   1.000  Cd
  Cd3      1.0000 0.64734  0.01604  0.33694  Biso   1.000  Cd
  Cd4      1.0000 0.25967  0.01729  0.35607  Biso   1.000  Cd
  C1       1.0000 0.48304  0.98330  0.02263  Biso   1.000  C
  N1       1.0000 0.31663  0.99050  0.01420  Biso   1.000  N
  C2       1.0000 0.27138  0.99440  0.96583  Biso   1.000  C
  N2       1.0000 0.40068  0.77190  0.12438  Biso   1.000  N
  C3       1.0000 0.37559  0.67480  0.12665  Biso   1.000  C
  N3       1.0000 0.40206  0.21780  0.10985  Biso   1.000  N
  C4       1.0000 0.37681  0.31170  0.11607  Biso   1.000  C
  N4       1.0000 0.50527  0.00350  0.21080  Biso   1.000  N
  C5       1.0000 0.55109  0.00580  0.25717  Biso   1.000  C
  N5       1.0000 0.34475  0.00580  0.21058  Biso   1.000  N
  C6       1.0000 0.31763  0.01460  0.26187  Biso   1.000  C
  C7       1.0000 0.23149  0.98800  0.76878  Biso   1.000  C
  C8       1.0000 0.26692  0.99460  0.72705  Biso   1.000  C
  C9       1.0000 0.66538  0.01140  0.46186  Biso   1.000  C
  C10      1.0000 0.68377  0.01220  0.52746  Biso   1.000  C
  N6       1.0000 0.67044  0.24070  0.34129  Biso   1.000  N
  C11      1.0000 0.69711  0.33820  0.34634  Biso   1.000  C
  N7       1.0000 0.65373  0.76860  0.34792  Biso   1.000  N
  C12      1.0000 0.68867  0.68390  0.35151  Biso   1.000  C
  Cd5      1.0000 0.91123  0.49375  0.10976  Biso   1.000  Cd
  Cd6      1.0000 0.68192  0.49113  0.87252  Biso   1.000  Cd
  Cd7      1.0000 0.14734  0.51604  0.33694  Biso   1.000  Cd
  Cd8      1.0000 0.75967  0.51729  0.35607  Biso   1.000  Cd
  C13      1.0000 0.98304  0.48330  0.02263  Biso   1.000  C
  N8       1.0000 0.81663  0.49050  0.01420  Biso   1.000  N
  C14      1.0000 0.77138  0.49440  0.96583  Biso   1.000  C
  N9       1.0000 0.90068  0.27190  0.12438  Biso   1.000  N
  C15      1.0000 0.87559  0.17480  0.12665  Biso   1.000  C
  N10      1.0000 0.90206  0.71780  0.10985  Biso   1.000  N
  C16      1.0000 0.87681  0.81170  0.11607  Biso   1.000  C
  N11      1.0000 0.00527  0.50350  0.21080  Biso   1.000  N
  C17      1.0000 0.05109  0.50580  0.25717  Biso   1.000  C
  N12      1.0000 0.84475  0.50580  0.21058  Biso   1.000  N
  C18      1.0000 0.81763  0.51460  0.26187  Biso   1.000  C
  C19      1.0000 0.73149  0.48800  0.76878  Biso   1.000  C
  C20      1.0000 0.76692  0.49460  0.72705  Biso   1.000  C
  C21      1.0000 0.16538  0.51140  0.46186  Biso   1.000  C
  C22      1.0000 0.18377  0.51220  0.52746  Biso   1.000  C
  N13      1.0000 0.17044  0.74070  0.34129  Biso   1.000  N
  C23      1.0000 0.19711  0.83820  0.34634  Biso   1.000  C
  N14      1.0000 0.15373  0.26860  0.34792  Biso   1.000  N
  C24      1.0000 0.18867  0.18390  0.35151  Biso   1.000  C
  Cd9      1.0000 0.58877  0.99375  0.89024  Biso   1.000  Cd
  Cd10     1.0000 0.81808  0.99113  0.12748  Biso   1.000  Cd
  Cd11     1.0000 0.35266  0.01604  0.66306  Biso   1.000  Cd
  Cd12     1.0000 0.74033  0.01729  0.64393  Biso   1.000  Cd
  C25      1.0000 0.51696  0.98330  0.97737  Biso   1.000  C
  N15      1.0000 0.68337  0.99050  0.98580  Biso   1.000  N
  C26      1.0000 0.72862  0.99440  0.03417  Biso   1.000  C
  N16      1.0000 0.59932  0.77190  0.87562  Biso   1.000  N
  C27      1.0000 0.62441  0.67480  0.87335  Biso   1.000  C
  N17      1.0000 0.59794  0.21780  0.89015  Biso   1.000  N
  C28      1.0000 0.62319  0.31170  0.88393  Biso   1.000  C
  N18      1.0000 0.49473  0.00350  0.78920  Biso   1.000  N
  C29      1.0000 0.44891  0.00580  0.74283  Biso   1.000  C
  N19      1.0000 0.65525  0.00580  0.78942  Biso   1.000  N
  C30      1.0000 0.68237  0.01460  0.73813  Biso   1.000  C
  C31      1.0000 0.76851  0.98800  0.23122  Biso   1.000  C
  C32      1.0000 0.73308  0.99460  0.27295  Biso   1.000  C
  C33      1.0000 0.33462  0.01140  0.53814  Biso   1.000  C
  C34      1.0000 0.31623  0.01220  0.47254  Biso   1.000  C
  N20      1.0000 0.32956  0.24070  0.65871  Biso   1.000  N
  C35      1.0000 0.30289  0.33820  0.65366  Biso   1.000  C
  N21      1.0000 0.34627  0.76860  0.65208  Biso   1.000  N
  C36      1.0000 0.31133  0.68390  0.64849  Biso   1.000  C
  Cd13     1.0000 0.08877  0.49375  0.89024  Biso   1.000  Cd
  Cd14     1.0000 0.31808  0.49113  0.12748  Biso   1.000  Cd
  Cd15     1.0000 0.85266  0.51604  0.66306  Biso   1.000  Cd
  Cd16     1.0000 0.24033  0.51729  0.64393  Biso   1.000  Cd
  C37      1.0000 0.01696  0.48330  0.97737  Biso   1.000  C
  N22      1.0000 0.18337  0.49050  0.98580  Biso   1.000  N
  C38      1.0000 0.22862  0.49440  0.03417  Biso   1.000  C
  N23      1.0000 0.09932  0.27190  0.87562  Biso   1.000  N
  C39      1.0000 0.12441  0.17480  0.87335  Biso   1.000  C
  N24      1.0000 0.09794  0.71780  0.89015  Biso   1.000  N
  C40      1.0000 0.12319  0.81170  0.88393  Biso   1.000  C
  N25      1.0000 0.99473  0.50350  0.78920  Biso   1.000  N
  C41      1.0000 0.94891  0.50580  0.74283  Biso   1.000  C
  N26      1.0000 0.15525  0.50580  0.78942  Biso   1.000  N
  C42      1.0000 0.18237  0.51460  0.73813  Biso   1.000  C
  C43      1.0000 0.26851  0.48800  0.23122  Biso   1.000  C
  C44      1.0000 0.23308  0.49460  0.27295  Biso   1.000  C
  C45      1.0000 0.83462  0.51140  0.53814  Biso   1.000  C
  C46      1.0000 0.81623  0.51220  0.47254  Biso   1.000  C
  N27      1.0000 0.82956  0.74070  0.65871  Biso   1.000  N
  C47      1.0000 0.80289  0.83820  0.65366  Biso   1.000  C
  N28      1.0000 0.84627  0.26860  0.65208  Biso   1.000  N
  C48      1.0000 0.81133  0.18390  0.64849  Biso   1.000  C
  Cd17     1.0000 0.55061  0.48934  0.15509  Biso   1.000  Cd
  C49      1.0000 0.50452  0.49910  0.03160  Biso   1.000  C
  C50      1.0000 0.50246  0.46430  0.25566  Biso   1.000  C
  N29      1.0000 0.47745  0.44020  0.30259  Biso   1.000  N
  N30      1.0000 0.57940  0.27130  0.13240  Biso   1.000  N
  C51      1.0000 0.64620  0.26140  0.12690  Biso   1.000  C
  C52      1.0000 0.67555  0.37610  0.09720  Biso   1.000  C
  N31      1.0000 0.66304  0.49530  0.13778  Biso   1.000  N
  C53      1.0000 0.67260  0.62030  0.10040  Biso   1.000  C
  C54      1.0000 0.64680  0.73170  0.13850  Biso   1.000  C
  N32      1.0000 0.57618  0.71450  0.14962  Biso   1.000  N
  H1       1.0000 0.57065  0.22060  0.17060  Biso   1.000  H
  H2       1.0000 0.55408  0.24310  0.08890  Biso   1.000  H
  H3       1.0000 0.65170  0.18820  0.09440  Biso   1.000  H
  H4       1.0000 0.67140  0.24250  0.17700  Biso   1.000  H
  H5       1.0000 0.65676  0.38590  0.04372  Biso   1.000  H
  H6       1.0000 0.72376  0.36360  0.10140  Biso   1.000  H
  H7       1.0000 0.68989  0.49440  0.18431  Biso   1.000  H
  H8       1.0000 0.72024  0.63300  0.10000  Biso   1.000  H
  H9       1.0000 0.64969  0.61690  0.04800  Biso   1.000  H
  H10      1.0000 0.64980  0.80920  0.10840  Biso   1.000  H
  H11      1.0000 0.67520  0.74470  0.18760  Biso   1.000  H
  H12      1.0000 0.54816  0.75190  0.11094  Biso   1.000  H
  H13      1.0000 0.57020  0.75340  0.19311  Biso   1.000  H
  Cd18     1.0000 0.44939  0.48934  0.84491  Biso   1.000  Cd
  C55      1.0000 0.49548  0.49910  0.96840  Biso   1.000  C
  C56      1.0000 0.49754  0.46430  0.74434  Biso   1.000  C
  N33      1.0000 0.52255  0.44020  0.69741  Biso   1.000  N
  N34      1.0000 0.42060  0.27130  0.86760  Biso   1.000  N
  C57      1.0000 0.35380  0.26140  0.87310  Biso   1.000  C
  C58      1.0000 0.32445  0.37610  0.90280  Biso   1.000  C
  N35      1.0000 0.33696  0.49530  0.86222  Biso   1.000  N
  C59      1.0000 0.32740  0.62030  0.89960  Biso   1.000  C
  C60      1.0000 0.35320  0.73170  0.86150  Biso   1.000  C
  N36      1.0000 0.42382  0.71450  0.85038  Biso   1.000  N
  H14      1.0000 0.42935  0.22060  0.82940  Biso   1.000  H
  H15      1.0000 0.44592  0.24310  0.91110  Biso   1.000  H
  H16      1.0000 0.34830  0.18820  0.90560  Biso   1.000  H
  H17      1.0000 0.32860  0.24250  0.82300  Biso   1.000  H
  H18      1.0000 0.34324  0.38590  0.95628  Biso   1.000  H
  H19      1.0000 0.27624  0.36360  0.89860  Biso   1.000  H
  H20      1.0000 0.31011  0.49440  0.81569  Biso   1.000  H
  H21      1.0000 0.27976  0.63300  0.90000  Biso   1.000  H
  H22      1.0000 0.35031  0.61690  0.95200  Biso   1.000  H
  H23      1.0000 0.35020  0.80920  0.89160  Biso   1.000  H
  H24      1.0000 0.32480  0.74470  0.81240  Biso   1.000  H
  H25      1.0000 0.45184  0.75190  0.88906  Biso   1.000  H
  H26      1.0000 0.42980  0.75340  0.80689  Biso   1.000  H
  Cd19     1.0000 0.05061  0.98934  0.15509  Biso   1.000  Cd
  C61      1.0000 0.00452  0.99910  0.03160  Biso   1.000  C
  C62      1.0000 0.00246  0.96430  0.25566  Biso   1.000  C
  N37      1.0000 0.97745  0.94020  0.30259  Biso   1.000  N
  N38      1.0000 0.07940  0.77130  0.13240  Biso   1.000  N
  C63      1.0000 0.14620  0.76140  0.12690  Biso   1.000  C
  C64      1.0000 0.17555  0.87610  0.09720  Biso   1.000  C
  N39      1.0000 0.16304  0.99530  0.13778  Biso   1.000  N
  C65      1.0000 0.17260  0.12030  0.10040  Biso   1.000  C
  C66      1.0000 0.14680  0.23170  0.13850  Biso   1.000  C
  N40      1.0000 0.07618  0.21450  0.14962  Biso   1.000  N
  H27      1.0000 0.07065  0.72060  0.17060  Biso   1.000  H
  H28      1.0000 0.05408  0.74310  0.08890  Biso   1.000  H
  H29      1.0000 0.15170  0.68820  0.09440  Biso   1.000  H
  H30      1.0000 0.17140  0.74250  0.17700  Biso   1.000  H
  H31      1.0000 0.15676  0.88590  0.04372  Biso   1.000  H
  H32      1.0000 0.22376  0.86360  0.10140  Biso   1.000  H
  H33      1.0000 0.18989  0.99440  0.18431  Biso   1.000  H
  H34      1.0000 0.22024  0.13300  0.10000  Biso   1.000  H
  H35      1.0000 0.14969  0.11690  0.04800  Biso   1.000  H
  H36      1.0000 0.14980  0.30920  0.10840  Biso   1.000  H
  H37      1.0000 0.17520  0.24470  0.18760  Biso   1.000  H
  H38      1.0000 0.04816  0.25190  0.11094  Biso   1.000  H
  H39      1.0000 0.07020  0.25340  0.19311  Biso   1.000  H
  Cd20     1.0000 0.94939  0.98934  0.84491  Biso   1.000  Cd
  C67      1.0000 0.99548  0.99910  0.96840  Biso   1.000  C
  C68      1.0000 0.99754  0.96430  0.74434  Biso   1.000  C
  N41      1.0000 0.02255  0.94020  0.69741  Biso   1.000  N
  N42      1.0000 0.92060  0.77130  0.86760  Biso   1.000  N
  C69      1.0000 0.85380  0.76140  0.87310  Biso   1.000  C
  C70      1.0000 0.82445  0.87610  0.90280  Biso   1.000  C
  N43      1.0000 0.83696  0.99530  0.86222  Biso   1.000  N
  C71      1.0000 0.82740  0.12030  0.89960  Biso   1.000  C
  C72      1.0000 0.85320  0.23170  0.86150  Biso   1.000  C
  N44      1.0000 0.92382  0.21450  0.85038  Biso   1.000  N
  H40      1.0000 0.92935  0.72060  0.82940  Biso   1.000  H
  H41      1.0000 0.94592  0.74310  0.91110  Biso   1.000  H
  H42      1.0000 0.84830  0.68820  0.90560  Biso   1.000  H
  H43      1.0000 0.82860  0.74250  0.82300  Biso   1.000  H
  H44      1.0000 0.84324  0.88590  0.95628  Biso   1.000  H
  H45      1.0000 0.77624  0.86360  0.89860  Biso   1.000  H
  H46      1.0000 0.81011  0.99440  0.81569  Biso   1.000  H
  H47      1.0000 0.77976  0.13300  0.90000  Biso   1.000  H
  H48      1.0000 0.85031  0.11690  0.95200  Biso   1.000  H
  H49      1.0000 0.85020  0.30920  0.89160  Biso   1.000  H
  H50      1.0000 0.82480  0.24470  0.81240  Biso   1.000  H
  H51      1.0000 0.95184  0.25190  0.88906  Biso   1.000  H
  H52      1.0000 0.92980  0.25340  0.80689  Biso   1.000  H
