data_image0
_cell_length_a       9.118
_cell_length_b       9.161
_cell_length_c       9.335
_cell_angle_alpha    85.98
_cell_angle_beta     77.45
_cell_angle_gamma    89.01

_symmetry_space_group_name_H-M    "P 1"
_symmetry_int_tables_number       1

loop_
  _symmetry_equiv_pos_as_xyz
  'x, y, z'

loop_
  _atom_site_label
  _atom_site_occupancy
  _atom_site_fract_x
  _atom_site_fract_y
  _atom_site_fract_z
  _atom_site_thermal_displace_type
  _atom_site_B_iso_or_equiv
  _atom_site_type_symbol
  P1       1.0000 0.38120  0.18560  0.90040  Biso   1.000  P
  P2       1.0000 0.83000  0.35450  0.85670  Biso   1.000  P
  P3       1.0000 0.62760  0.37930  0.32380  Biso   1.000  P
  F1       1.0000 0.98710  0.39240  0.08220  Biso   1.000  F
  O1       1.0000 0.77440  0.20220  0.92760  Biso   1.000  O
  O2       1.0000 0.45750  0.18840  0.03060  Biso   1.000  O
  O3       1.0000 0.35290  0.02690  0.87350  Biso   1.000  O
  O4       1.0000 0.48680  0.24940  0.76110  Biso   1.000  O
  O5       1.0000 0.23390  0.26480  0.93060  Biso   1.000  O
  O6       1.0000 0.76470  0.46920  0.96220  Biso   1.000  O
  O7       1.0000 0.77490  0.37840  0.71210  Biso   1.000  O
  O8       1.0000 0.00110  0.35540  0.81190  Biso   1.000  O
  O9       1.0000 0.74600  0.49190  0.25830  Biso   1.000  O
  O10      1.0000 0.64760  0.32460  0.47690  Biso   1.000  O
  O11      1.0000 0.63730  0.24490  0.23480  Biso   1.000  O
  O12      1.0000 0.47070  0.44690  0.33870  Biso   1.000  O
  Al1      1.0000 0.62960  0.15720  0.07910  Biso   1.000  Al
  Al2      1.0000 0.13450  0.43770  0.91480  Biso   1.000  Al
  Al3      1.0000 0.60620  0.37860  0.65600  Biso   1.000  Al
  P4       1.0000 0.61880  0.81440  0.09960  Biso   1.000  P
  P5       1.0000 0.17000  0.64550  0.14330  Biso   1.000  P
  P6       1.0000 0.37240  0.62070  0.67620  Biso   1.000  P
  F2       1.0000 0.01290  0.60760  0.91780  Biso   1.000  F
  O13      1.0000 0.22560  0.79780  0.07240  Biso   1.000  O
  O14      1.0000 0.54250  0.81160  0.96940  Biso   1.000  O
  O15      1.0000 0.64710  0.97310  0.12650  Biso   1.000  O
  O16      1.0000 0.51320  0.75060  0.23890  Biso   1.000  O
  O17      1.0000 0.76610  0.73520  0.06940  Biso   1.000  O
  O18      1.0000 0.23530  0.53080  0.03780  Biso   1.000  O
  O19      1.0000 0.22510  0.62160  0.28790  Biso   1.000  O
  O20      1.0000 0.99890  0.64460  0.18810  Biso   1.000  O
  O21      1.0000 0.25400  0.50810  0.74170  Biso   1.000  O
  O22      1.0000 0.35240  0.67540  0.52310  Biso   1.000  O
  O23      1.0000 0.36270  0.75510  0.76520  Biso   1.000  O
  O24      1.0000 0.52930  0.55310  0.66130  Biso   1.000  O
  Al4      1.0000 0.37040  0.84280  0.92090  Biso   1.000  Al
  Al5      1.0000 0.86550  0.56230  0.08520  Biso   1.000  Al
  Al6      1.0000 0.39380  0.62140  0.34400  Biso   1.000  Al
