data_NAYZUK_clean
_audit_creation_date              2015-05-19
_audit_creation_method            'Materials Studio'
_symmetry_space_group_name_H-M    'P1'
_symmetry_Int_Tables_number       1
_symmetry_cell_setting            triclinic
loop_
_symmetry_equiv_pos_as_xyz
  x,y,z
_cell_length_a                    21.8930
_cell_length_b                    21.8930
_cell_length_c                    7.1812
_cell_angle_alpha                 90.0000
_cell_angle_beta                  90.0000
_cell_angle_gamma                 90.0000
loop_
_atom_site_label
_atom_site_type_symbol
_atom_site_fract_x
_atom_site_fract_y
_atom_site_fract_z
_atom_site_U_iso_or_equiv
_atom_site_adp_type
_atom_site_occupancy
H1     H     0.73360   0.05330   0.51150   0.01267  Uiso   1.00
H2     H     0.83550   0.10480   0.95880   0.01267  Uiso   1.00
H3     H     0.86730   0.05270   0.69440   0.01267  Uiso   1.00
C4     C     0.76240   0.13170   0.26060   0.01267  Uiso   1.00
C5     C     0.77140   0.06430   0.25550   0.01267  Uiso   1.00
C6     C     0.74870   0.03210   0.40910   0.01267  Uiso   1.00
C7     C     0.79880   0.03350   0.10380   0.01267  Uiso   1.00
C8     C     0.82990   0.06270   0.95320   0.01267  Uiso   1.00
C9     C     0.85250   0.03120   0.79670   0.01267  Uiso   1.00
O10    O     0.75770   0.15740   0.40540   0.01267  Uiso   1.00
O11    O     0.75950   0.15740   0.10340   0.01267  Uiso   1.00
H12    H     0.81650   0.68350   0.25450   0.01267  Uiso   1.00
H13    H     0.26640   0.94670   0.51150   0.01267  Uiso   1.00
H14    H     0.16450   0.89520   0.95880   0.01267  Uiso   1.00
H15    H     0.13270   0.94730   0.69440   0.01267  Uiso   1.00
C16    C     0.23760   0.86830   0.26060   0.01267  Uiso   1.00
C17    C     0.22860   0.93570   0.25550   0.01267  Uiso   1.00
C18    C     0.25130   0.96790   0.40910   0.01267  Uiso   1.00
C19    C     0.20120   0.96650   0.10380   0.01267  Uiso   1.00
C20    C     0.17010   0.93730   0.95320   0.01267  Uiso   1.00
C21    C     0.14750   0.96880   0.79670   0.01267  Uiso   1.00
O22    O     0.24230   0.84260   0.40540   0.01267  Uiso   1.00
O23    O     0.24050   0.84260   0.10340   0.01267  Uiso   1.00
H25    H     0.44670   0.23360   0.51150   0.01267  Uiso   1.00
H26    H     0.39520   0.33550   0.95880   0.01267  Uiso   1.00
H27    H     0.44730   0.36730   0.69440   0.01267  Uiso   1.00
C28    C     0.36830   0.26240   0.26060   0.01267  Uiso   1.00
C29    C     0.43570   0.27140   0.25550   0.01267  Uiso   1.00
C30    C     0.46790   0.24870   0.40910   0.01267  Uiso   1.00
C31    C     0.46650   0.29880   0.10380   0.01267  Uiso   1.00
C32    C     0.43730   0.32990   0.95320   0.01267  Uiso   1.00
C33    C     0.46880   0.35250   0.79670   0.01267  Uiso   1.00
O34    O     0.34260   0.25770   0.40540   0.01267  Uiso   1.00
O35    O     0.34260   0.25950   0.10340   0.01267  Uiso   1.00
H36    H     0.81650   0.31650   0.25450   0.01267  Uiso   1.00
H37    H     0.55330   0.76640   0.51150   0.01267  Uiso   1.00
H38    H     0.60480   0.66450   0.95880   0.01267  Uiso   1.00
H39    H     0.55270   0.63270   0.69440   0.01267  Uiso   1.00
C40    C     0.63170   0.73760   0.26060   0.01267  Uiso   1.00
C41    C     0.56430   0.72860   0.25550   0.01267  Uiso   1.00
C42    C     0.53210   0.75130   0.40910   0.01267  Uiso   1.00
C43    C     0.53350   0.70120   0.10380   0.01267  Uiso   1.00
C44    C     0.56270   0.67010   0.95320   0.01267  Uiso   1.00
C45    C     0.53120   0.64750   0.79670   0.01267  Uiso   1.00
O46    O     0.65740   0.74230   0.40540   0.01267  Uiso   1.00
O47    O     0.65740   0.74050   0.10340   0.01267  Uiso   1.00
H48    H     0.18350   0.68350   0.25450   0.01267  Uiso   1.00
H49    H     0.76640   0.55330   0.48850   0.01267  Uiso   1.00
H50    H     0.66450   0.60480   0.04120   0.01267  Uiso   1.00
H51    H     0.63270   0.55270   0.30560   0.01267  Uiso   1.00
C52    C     0.73760   0.63170   0.73940   0.01267  Uiso   1.00
C53    C     0.72860   0.56430   0.74450   0.01267  Uiso   1.00
C54    C     0.75130   0.53210   0.59090   0.01267  Uiso   1.00
C55    C     0.70120   0.53350   0.89620   0.01267  Uiso   1.00
C56    C     0.67010   0.56270   0.04680   0.01267  Uiso   1.00
C57    C     0.64750   0.53120   0.20330   0.01267  Uiso   1.00
O58    O     0.74230   0.65740   0.59460   0.01267  Uiso   1.00
O59    O     0.74050   0.65740   0.89660   0.01267  Uiso   1.00
H61    H     0.23360   0.44670   0.48850   0.01267  Uiso   1.00
H62    H     0.33550   0.39520   0.04120   0.01267  Uiso   1.00
H63    H     0.36730   0.44730   0.30560   0.01267  Uiso   1.00
C64    C     0.26240   0.36830   0.73940   0.01267  Uiso   1.00
C65    C     0.27140   0.43570   0.74450   0.01267  Uiso   1.00
C66    C     0.24870   0.46790   0.59090   0.01267  Uiso   1.00
C67    C     0.29880   0.46650   0.89620   0.01267  Uiso   1.00
C68    C     0.32990   0.43730   0.04680   0.01267  Uiso   1.00
C69    C     0.35250   0.46880   0.20330   0.01267  Uiso   1.00
O70    O     0.25770   0.34260   0.59460   0.01267  Uiso   1.00
O71    O     0.25950   0.34260   0.89660   0.01267  Uiso   1.00
H73    H     0.05330   0.73360   0.48850   0.01267  Uiso   1.00
H74    H     0.10480   0.83550   0.04120   0.01267  Uiso   1.00
H75    H     0.05270   0.86730   0.30560   0.01267  Uiso   1.00
C76    C     0.13170   0.76240   0.73940   0.01267  Uiso   1.00
C77    C     0.06430   0.77140   0.74450   0.01267  Uiso   1.00
C78    C     0.03210   0.74870   0.59090   0.01267  Uiso   1.00
C79    C     0.03350   0.79880   0.89620   0.01267  Uiso   1.00
C80    C     0.06270   0.82990   0.04680   0.01267  Uiso   1.00
C81    C     0.03120   0.85250   0.20330   0.01267  Uiso   1.00
O82    O     0.15740   0.75770   0.59460   0.01267  Uiso   1.00
O83    O     0.15740   0.75950   0.89660   0.01267  Uiso   1.00
H84    H     0.68350   0.81650   0.74550   0.01267  Uiso   1.00
H85    H     0.94670   0.26640   0.48850   0.01267  Uiso   1.00
H86    H     0.89520   0.16450   0.04120   0.01267  Uiso   1.00
H87    H     0.94730   0.13270   0.30560   0.01267  Uiso   1.00
C88    C     0.86830   0.23760   0.73940   0.01267  Uiso   1.00
C89    C     0.93570   0.22860   0.74450   0.01267  Uiso   1.00
C90    C     0.96790   0.25130   0.59090   0.01267  Uiso   1.00
C91    C     0.96650   0.20120   0.89620   0.01267  Uiso   1.00
C92    C     0.93730   0.17010   0.04680   0.01267  Uiso   1.00
C93    C     0.96880   0.14750   0.20330   0.01267  Uiso   1.00
O94    O     0.84260   0.24230   0.59460   0.01267  Uiso   1.00
O95    O     0.84260   0.24050   0.89660   0.01267  Uiso   1.00
H96    H     0.31650   0.18350   0.74550   0.01267  Uiso   1.00
H97    H     0.76640   0.44670   0.48850   0.01267  Uiso   1.00
H98    H     0.66450   0.39520   0.04120   0.01267  Uiso   1.00
H99    H     0.63270   0.44730   0.30560   0.01267  Uiso   1.00
C100   C     0.73760   0.36830   0.73940   0.01267  Uiso   1.00
C101   C     0.72860   0.43570   0.74450   0.01267  Uiso   1.00
C102   C     0.75130   0.46790   0.59090   0.01267  Uiso   1.00
C103   C     0.70120   0.46650   0.89620   0.01267  Uiso   1.00
C104   C     0.67010   0.43730   0.04680   0.01267  Uiso   1.00
C105   C     0.64750   0.46880   0.20330   0.01267  Uiso   1.00
O106   O     0.74230   0.34260   0.59460   0.01267  Uiso   1.00
O107   O     0.74050   0.34260   0.89660   0.01267  Uiso   1.00
H109   H     0.23360   0.55330   0.48850   0.01267  Uiso   1.00
H110   H     0.33550   0.60480   0.04120   0.01267  Uiso   1.00
H111   H     0.36730   0.55270   0.30560   0.01267  Uiso   1.00
C112   C     0.26240   0.63170   0.73940   0.01267  Uiso   1.00
C113   C     0.27140   0.56430   0.74450   0.01267  Uiso   1.00
C114   C     0.24870   0.53210   0.59090   0.01267  Uiso   1.00
C115   C     0.29880   0.53350   0.89620   0.01267  Uiso   1.00
C116   C     0.32990   0.56270   0.04680   0.01267  Uiso   1.00
C117   C     0.35250   0.53120   0.20330   0.01267  Uiso   1.00
O118   O     0.25770   0.65740   0.59460   0.01267  Uiso   1.00
O119   O     0.25950   0.65740   0.89660   0.01267  Uiso   1.00
H121   H     0.05330   0.26640   0.48850   0.01267  Uiso   1.00
H122   H     0.10480   0.16450   0.04120   0.01267  Uiso   1.00
H123   H     0.05270   0.13270   0.30560   0.01267  Uiso   1.00
C124   C     0.13170   0.23760   0.73940   0.01267  Uiso   1.00
C125   C     0.06430   0.22860   0.74450   0.01267  Uiso   1.00
C126   C     0.03210   0.25130   0.59090   0.01267  Uiso   1.00
C127   C     0.03350   0.20120   0.89620   0.01267  Uiso   1.00
C128   C     0.06270   0.17010   0.04680   0.01267  Uiso   1.00
C129   C     0.03120   0.14750   0.20330   0.01267  Uiso   1.00
O130   O     0.15740   0.24230   0.59460   0.01267  Uiso   1.00
O131   O     0.15740   0.24050   0.89660   0.01267  Uiso   1.00
H132   H     0.68350   0.18350   0.74550   0.01267  Uiso   1.00
H133   H     0.94670   0.73360   0.48850   0.01267  Uiso   1.00
H134   H     0.89520   0.83550   0.04120   0.01267  Uiso   1.00
H135   H     0.94730   0.86730   0.30560   0.01267  Uiso   1.00
C136   C     0.86830   0.76240   0.73940   0.01267  Uiso   1.00
C137   C     0.93570   0.77140   0.74450   0.01267  Uiso   1.00
C138   C     0.96790   0.74870   0.59090   0.01267  Uiso   1.00
C139   C     0.96650   0.79880   0.89620   0.01267  Uiso   1.00
C140   C     0.93730   0.82990   0.04680   0.01267  Uiso   1.00
C141   C     0.96880   0.85250   0.20330   0.01267  Uiso   1.00
O142   O     0.84260   0.75770   0.59460   0.01267  Uiso   1.00
O143   O     0.84260   0.75950   0.89660   0.01267  Uiso   1.00
H144   H     0.31650   0.81650   0.74550   0.01267  Uiso   1.00
H145   H     0.73360   0.94670   0.51150   0.01267  Uiso   1.00
H146   H     0.83550   0.89520   0.95880   0.01267  Uiso   1.00
H147   H     0.86730   0.94730   0.69440   0.01267  Uiso   1.00
C148   C     0.76240   0.86830   0.26060   0.01267  Uiso   1.00
C149   C     0.77140   0.93570   0.25550   0.01267  Uiso   1.00
C150   C     0.74870   0.96790   0.40910   0.01267  Uiso   1.00
C151   C     0.79880   0.96650   0.10380   0.01267  Uiso   1.00
C152   C     0.82990   0.93730   0.95320   0.01267  Uiso   1.00
C153   C     0.85250   0.96880   0.79670   0.01267  Uiso   1.00
O154   O     0.75770   0.84260   0.40540   0.01267  Uiso   1.00
O155   O     0.75950   0.84260   0.10340   0.01267  Uiso   1.00
H157   H     0.26640   0.05330   0.51150   0.01267  Uiso   1.00
H158   H     0.16450   0.10480   0.95880   0.01267  Uiso   1.00
H159   H     0.13270   0.05270   0.69440   0.01267  Uiso   1.00
C160   C     0.23760   0.13170   0.26060   0.01267  Uiso   1.00
C161   C     0.22860   0.06430   0.25550   0.01267  Uiso   1.00
C162   C     0.25130   0.03210   0.40910   0.01267  Uiso   1.00
C163   C     0.20120   0.03350   0.10380   0.01267  Uiso   1.00
C164   C     0.17010   0.06270   0.95320   0.01267  Uiso   1.00
C165   C     0.14750   0.03120   0.79670   0.01267  Uiso   1.00
O166   O     0.24230   0.15740   0.40540   0.01267  Uiso   1.00
O167   O     0.24050   0.15740   0.10340   0.01267  Uiso   1.00
H169   H     0.44670   0.76640   0.51150   0.01267  Uiso   1.00
H170   H     0.39520   0.66450   0.95880   0.01267  Uiso   1.00
H171   H     0.44730   0.63270   0.69440   0.01267  Uiso   1.00
C172   C     0.36830   0.73760   0.26060   0.01267  Uiso   1.00
C173   C     0.43570   0.72860   0.25550   0.01267  Uiso   1.00
C174   C     0.46790   0.75130   0.40910   0.01267  Uiso   1.00
C175   C     0.46650   0.70120   0.10380   0.01267  Uiso   1.00
C176   C     0.43730   0.67010   0.95320   0.01267  Uiso   1.00
C177   C     0.46880   0.64750   0.79670   0.01267  Uiso   1.00
O178   O     0.34260   0.74230   0.40540   0.01267  Uiso   1.00
O179   O     0.34260   0.74050   0.10340   0.01267  Uiso   1.00
H181   H     0.55330   0.23360   0.51150   0.01267  Uiso   1.00
H182   H     0.60480   0.33550   0.95880   0.01267  Uiso   1.00
H183   H     0.55270   0.36730   0.69440   0.01267  Uiso   1.00
C184   C     0.63170   0.26240   0.26060   0.01267  Uiso   1.00
C185   C     0.56430   0.27140   0.25550   0.01267  Uiso   1.00
C186   C     0.53210   0.24870   0.40910   0.01267  Uiso   1.00
C187   C     0.53350   0.29880   0.10380   0.01267  Uiso   1.00
C188   C     0.56270   0.32990   0.95320   0.01267  Uiso   1.00
C189   C     0.53120   0.35250   0.79670   0.01267  Uiso   1.00
O190   O     0.65740   0.25770   0.40540   0.01267  Uiso   1.00
O191   O     0.65740   0.25950   0.10340   0.01267  Uiso   1.00
H192   H     0.18350   0.31650   0.25450   0.01267  Uiso   1.00
In193  In    0.75000   0.25000  -0.00000   0.01267  Uiso   1.00
In194  In    0.25000   0.75000  -0.00000   0.01267  Uiso   1.00
In195  In    0.25000   0.25000  -0.00000   0.01267  Uiso   1.00
In196  In    0.75000   0.75000  -0.00000   0.01267  Uiso   1.00
In197  In    0.75000   0.25000   0.50000   0.01267  Uiso   1.00
In198  In    0.25000   0.75000   0.50000   0.01267  Uiso   1.00
In199  In    0.25000   0.25000   0.50000   0.01267  Uiso   1.00
In200  In    0.75000   0.75000   0.50000   0.01267  Uiso   1.00
O201   O     0.78420   0.28420   0.25450   0.01267  Uiso   1.00
O202   O     0.21580   0.71580   0.25450   0.01267  Uiso   1.00
O203   O     0.21580   0.28420   0.25450   0.01267  Uiso   1.00
O204   O     0.78420   0.71580   0.25450   0.01267  Uiso   1.00
O205   O     0.71580   0.78420   0.74550   0.01267  Uiso   1.00
O206   O     0.28420   0.21580   0.74550   0.01267  Uiso   1.00
O207   O     0.28420   0.78420   0.74550   0.01267  Uiso   1.00
O208   O     0.71580   0.21580   0.74550   0.01267  Uiso   1.00
