data_nchem.2258-s3_clean
_audit_creation_date              2015-08-19
_audit_creation_method            'Materials Studio'
_symmetry_space_group_name_H-M    'P1'
_symmetry_Int_Tables_number       1
_symmetry_cell_setting            triclinic
loop_
_symmetry_equiv_pos_as_xyz
  x,y,z
_cell_length_a                    21.2459
_cell_length_b                    21.2459
_cell_length_c                    21.2459
_cell_angle_alpha                 102.0330
_cell_angle_beta                  102.0330
_cell_angle_gamma                 102.0330
loop_
_atom_site_label
_atom_site_type_symbol
_atom_site_fract_x
_atom_site_fract_y
_atom_site_fract_z
_atom_site_U_iso_or_equiv
_atom_site_adp_type
_atom_site_occupancy
Zn1    Zn    0.67018   0.76066   0.76872   0.01267  Uiso   1.00
Zn2    Zn    0.76872   0.67018   0.76066   0.01267  Uiso   1.00
Zn3    Zn    0.32982   0.23128   0.23934   0.01267  Uiso   1.00
Zn4    Zn    0.36042   0.36042   0.36042   0.01267  Uiso   1.00
Zn5    Zn    0.76066   0.76872   0.67018   0.01267  Uiso   1.00
Zn6    Zn    0.23934   0.32982   0.23128   0.01267  Uiso   1.00
Zn7    Zn    0.23128   0.23934   0.32982   0.01267  Uiso   1.00
Zn8    Zn    0.63958   0.63958   0.63958   0.01267  Uiso   1.00
H1     H     0.40360   0.88800   0.36900   0.01267  Uiso   1.00
H2     H     0.42500   0.61600   0.58190   0.01267  Uiso   1.00
H3     H     0.51980   0.24290   0.24120   0.01267  Uiso   1.00
H4     H     0.59380   0.62860   0.22110   0.01267  Uiso   1.00
H5     H     0.58190   0.42500   0.61600   0.01267  Uiso   1.00
H6     H     0.23100   0.95250   0.38590   0.01267  Uiso   1.00
H7     H     0.14250   0.83520   0.69350   0.01267  Uiso   1.00
H8     H     0.63090   0.25460   0.23750   0.01267  Uiso   1.00
H9     H     0.74540   0.36910   0.76250   0.01267  Uiso   1.00
H10    H     0.36910   0.76250   0.74540   0.01267  Uiso   1.00
H11    H     0.38400   0.57500   0.41810   0.01267  Uiso   1.00
H12    H     0.59640   0.63100   0.11200   0.01267  Uiso   1.00
H13    H     0.67980   0.34780   0.05730   0.01267  Uiso   1.00
H14    H     0.30650   0.16480   0.85750   0.01267  Uiso   1.00
H15    H     0.38590   0.23100   0.95250   0.01267  Uiso   1.00
H16    H     0.95250   0.38590   0.23100   0.01267  Uiso   1.00
H17    H     0.61600   0.58190   0.42500   0.01267  Uiso   1.00
H18    H     0.61960   0.57010   0.31380   0.01267  Uiso   1.00
H19    H     0.23440   0.05460   0.80880   0.01267  Uiso   1.00
H20    H     0.80880   0.23440   0.05460   0.01267  Uiso   1.00
H21    H     0.95010   0.28760   0.37520   0.01267  Uiso   1.00
H22    H     0.62860   0.22110   0.59380   0.01267  Uiso   1.00
H23    H     0.24120   0.51980   0.24290   0.01267  Uiso   1.00
H24    H     0.68050   0.32030   0.83180   0.01267  Uiso   1.00
H25    H     0.83520   0.69350   0.14250   0.01267  Uiso   1.00
H26    H     0.32020   0.94270   0.65220   0.01267  Uiso   1.00
H27    H     0.34780   0.05730   0.67980   0.01267  Uiso   1.00
H28    H     0.94270   0.65220   0.32020   0.01267  Uiso   1.00
H29    H     0.94540   0.76560   0.19120   0.01267  Uiso   1.00
H30    H     0.42990   0.38040   0.68620   0.01267  Uiso   1.00
H31    H     0.88800   0.36900   0.40360   0.01267  Uiso   1.00
H32    H     0.61410   0.04750   0.76900   0.01267  Uiso   1.00
H33    H     0.36900   0.40360   0.88800   0.01267  Uiso   1.00
H34    H     0.19120   0.94540   0.76560   0.01267  Uiso   1.00
H35    H     0.63320   0.94430   0.77630   0.01267  Uiso   1.00
H36    H     0.37520   0.95010   0.28760   0.01267  Uiso   1.00
H37    H     0.22110   0.59380   0.62860   0.01267  Uiso   1.00
H38    H     0.57010   0.31380   0.61960   0.01267  Uiso   1.00
H39    H     0.36680   0.22370   0.05570   0.01267  Uiso   1.00
H40    H     0.94660   0.63210   0.73130   0.01267  Uiso   1.00
H41    H     0.40620   0.77890   0.37140   0.01267  Uiso   1.00
H42    H     0.16480   0.85750   0.30650   0.01267  Uiso   1.00
H43    H     0.22370   0.05570   0.36680   0.01267  Uiso   1.00
H44    H     0.94430   0.77630   0.63320   0.01267  Uiso   1.00
H45    H     0.23750   0.63090   0.25460   0.01267  Uiso   1.00
H46    H     0.26870   0.36790   0.05340   0.01267  Uiso   1.00
H47    H     0.41810   0.38400   0.57500   0.01267  Uiso   1.00
H48    H     0.25460   0.23750   0.63090   0.01267  Uiso   1.00
H49    H     0.57500   0.41810   0.38400   0.01267  Uiso   1.00
H50    H     0.11200   0.59640   0.63100   0.01267  Uiso   1.00
H51    H     0.16820   0.67970   0.31950   0.01267  Uiso   1.00
H52    H     0.38040   0.68620   0.42990   0.01267  Uiso   1.00
H53    H     0.85750   0.30650   0.16480   0.01267  Uiso   1.00
H54    H     0.67970   0.31950   0.16820   0.01267  Uiso   1.00
H55    H     0.04990   0.62480   0.71240   0.01267  Uiso   1.00
H56    H     0.24290   0.24120   0.51980   0.01267  Uiso   1.00
H57    H     0.63210   0.73130   0.94660   0.01267  Uiso   1.00
H58    H     0.83180   0.68050   0.32030   0.01267  Uiso   1.00
H59    H     0.63100   0.11200   0.59640   0.01267  Uiso   1.00
H60    H     0.76560   0.19120   0.94540   0.01267  Uiso   1.00
H61    H     0.48020   0.75880   0.75710   0.01267  Uiso   1.00
H62    H     0.37140   0.40620   0.77890   0.01267  Uiso   1.00
H63    H     0.76250   0.74540   0.36910   0.01267  Uiso   1.00
H64    H     0.05340   0.26870   0.36790   0.01267  Uiso   1.00
H65    H     0.73130   0.94660   0.63210   0.01267  Uiso   1.00
H66    H     0.05460   0.80880   0.23440   0.01267  Uiso   1.00
H67    H     0.68620   0.42990   0.38040   0.01267  Uiso   1.00
H68    H     0.77630   0.63320   0.94430   0.01267  Uiso   1.00
H69    H     0.32030   0.83180   0.68050   0.01267  Uiso   1.00
H70    H     0.31950   0.16820   0.67970   0.01267  Uiso   1.00
H71    H     0.05730   0.67980   0.34780   0.01267  Uiso   1.00
H72    H     0.75880   0.75710   0.48020   0.01267  Uiso   1.00
H73    H     0.77890   0.37140   0.40620   0.01267  Uiso   1.00
H74    H     0.75710   0.48020   0.75880   0.01267  Uiso   1.00
H75    H     0.69350   0.14250   0.83520   0.01267  Uiso   1.00
H76    H     0.04750   0.76900   0.61410   0.01267  Uiso   1.00
H77    H     0.65220   0.32020   0.94270   0.01267  Uiso   1.00
H78    H     0.62480   0.71240   0.04990   0.01267  Uiso   1.00
H79    H     0.31380   0.61960   0.57010   0.01267  Uiso   1.00
H80    H     0.28760   0.37520   0.95010   0.01267  Uiso   1.00
H81    H     0.76900   0.61410   0.04750   0.01267  Uiso   1.00
H82    H     0.05570   0.36680   0.22370   0.01267  Uiso   1.00
H83    H     0.36790   0.05340   0.26870   0.01267  Uiso   1.00
H84    H     0.71240   0.04990   0.62480   0.01267  Uiso   1.00
C1     C     0.24460   0.75540   0.67120   0.01267  Uiso   1.00
C2     C     0.68310   0.30080   0.96570   0.01267  Uiso   1.00
C3     C     0.85430   0.35880   0.36320   0.01267  Uiso   1.00
C4     C     0.69320   0.23770   0.85670   0.01267  Uiso   1.00
C5     C     0.31300   0.53700   0.32940   0.01267  Uiso   1.00
C6     C     0.75690   0.67270   0.17980   0.01267  Uiso   1.00
C7     C     0.74130   0.63800   0.02700   0.01267  Uiso   1.00
C8     C     0.68610   0.68190   0.53570   0.01267  Uiso   1.00
C9     C     0.31810   0.31390   0.46430   0.01267  Uiso   1.00
C10    C     0.67060   0.46300   0.68700   0.01267  Uiso   1.00
C11    C     0.96570   0.74550   0.64920   0.01267  Uiso   1.00
C12    C     0.38490   0.35420   0.58640   0.01267  Uiso   1.00
C13    C     0.64800   0.60810   0.34760   0.01267  Uiso   1.00
C14    C     0.32730   0.24310   0.82020   0.01267  Uiso   1.00
C15    C     0.76230   0.30680   0.14330   0.01267  Uiso   1.00
C16    C     0.66900   0.34330   0.30870   0.01267  Uiso   1.00
C17    C     0.38050   0.73270   0.71220   0.01267  Uiso   1.00
C18    C     0.64920   0.96570   0.74550   0.01267  Uiso   1.00
C19    C     0.75540   0.67120   0.24460   0.01267  Uiso   1.00
C20    C     0.69960   0.86770   0.70610   0.01267  Uiso   1.00
C21    C     0.35080   0.25450   0.03430   0.01267  Uiso   1.00
C22    C     0.67270   0.17980   0.75690   0.01267  Uiso   1.00
C23    C     0.70760   0.96710   0.65990   0.01267  Uiso   1.00
C24    C     0.32880   0.24460   0.75540   0.01267  Uiso   1.00
C25    C     0.34760   0.64800   0.60810   0.01267  Uiso   1.00
C26    C     0.24310   0.82020   0.32730   0.01267  Uiso   1.00
C27    C     0.41360   0.64580   0.61510   0.01267  Uiso   1.00
C28    C     0.02840   0.65550   0.69630   0.01267  Uiso   1.00
C29    C     0.05840   0.69630   0.66150   0.01267  Uiso   1.00
C30    C     0.96570   0.68310   0.30080   0.01267  Uiso   1.00
C31    C     0.93580   0.70490   0.68400   0.01267  Uiso   1.00
C32    C     0.67120   0.24460   0.75540   0.01267  Uiso   1.00
C33    C     0.74550   0.64920   0.96570   0.01267  Uiso   1.00
C34    C     0.26000   0.69460   0.65480   0.01267  Uiso   1.00
C35    C     0.68400   0.93580   0.70490   0.01267  Uiso   1.00
C36    C     0.58640   0.38490   0.35420   0.01267  Uiso   1.00
C37    C     0.13040   0.69770   0.65770   0.01267  Uiso   1.00
C38    C     0.74000   0.34520   0.30540   0.01267  Uiso   1.00
C39    C     0.96710   0.65990   0.70760   0.01267  Uiso   1.00
C40    C     0.34330   0.30870   0.66900   0.01267  Uiso   1.00
C41    C     0.14570   0.63680   0.64120   0.01267  Uiso   1.00
C42    C     0.03200   0.77240   0.24780   0.01267  Uiso   1.00
C43    C     0.44650   0.73050   0.71920   0.01267  Uiso   1.00
C44    C     0.39190   0.35200   0.65240   0.01267  Uiso   1.00
C45    C     0.31390   0.46430   0.31810   0.01267  Uiso   1.00
C46    C     0.14330   0.76230   0.30680   0.01267  Uiso   1.00
C47    C     0.65670   0.33100   0.69130   0.01267  Uiso   1.00
C48    C     0.33850   0.30370   0.94160   0.01267  Uiso   1.00
C49    C     0.65770   0.13040   0.69770   0.01267  Uiso   1.00
C50    C     0.74180   0.28970   0.06990   0.01267  Uiso   1.00
C51    C     0.30540   0.74000   0.34520   0.01267  Uiso   1.00
C52    C     0.93010   0.71030   0.25820   0.01267  Uiso   1.00
C53    C     0.25450   0.03430   0.35080   0.01267  Uiso   1.00
C54    C     0.70610   0.69960   0.86770   0.01267  Uiso   1.00
C55    C     0.17980   0.75690   0.67270   0.01267  Uiso   1.00
C56    C     0.36320   0.85430   0.35880   0.01267  Uiso   1.00
C57    C     0.26950   0.55350   0.28080   0.01267  Uiso   1.00
C58    C     0.25870   0.97300   0.36200   0.01267  Uiso   1.00
C59    C     0.36200   0.25870   0.97300   0.01267  Uiso   1.00
C60    C     0.53570   0.68610   0.68190   0.01267  Uiso   1.00
C61    C     0.36020   0.36460   0.78940   0.01267  Uiso   1.00
C62    C     0.29390   0.13230   0.30040   0.01267  Uiso   1.00
C63    C     0.53700   0.32940   0.31300   0.01267  Uiso   1.00
C64    C     0.94160   0.33850   0.30370   0.01267  Uiso   1.00
C65    C     0.24780   0.03200   0.77240   0.01267  Uiso   1.00
C66    C     0.60810   0.34760   0.64800   0.01267  Uiso   1.00
C67    C     0.69460   0.65480   0.26000   0.01267  Uiso   1.00
C68    C     0.13230   0.30040   0.29390   0.01267  Uiso   1.00
C69    C     0.30370   0.94160   0.33850   0.01267  Uiso   1.00
C70    C     0.02700   0.74130   0.63800   0.01267  Uiso   1.00
C71    C     0.30040   0.29390   0.13230   0.01267  Uiso   1.00
C72    C     0.35420   0.58640   0.38490   0.01267  Uiso   1.00
C73    C     0.69630   0.02840   0.65550   0.01267  Uiso   1.00
C74    C     0.30680   0.14330   0.76230   0.01267  Uiso   1.00
C75    C     0.28080   0.26950   0.55350   0.01267  Uiso   1.00
C76    C     0.03430   0.35080   0.25450   0.01267  Uiso   1.00
C77    C     0.68700   0.67060   0.46300   0.01267  Uiso   1.00
C78    C     0.46430   0.31810   0.31390   0.01267  Uiso   1.00
C79    C     0.73050   0.71920   0.44650   0.01267  Uiso   1.00
C80    C     0.64580   0.61510   0.41360   0.01267  Uiso   1.00
C81    C     0.63680   0.64120   0.14570   0.01267  Uiso   1.00
C82    C     0.21060   0.63540   0.63980   0.01267  Uiso   1.00
C83    C     0.61510   0.41360   0.64580   0.01267  Uiso   1.00
C84    C     0.96800   0.75220   0.22760   0.01267  Uiso   1.00
C85    C     0.29240   0.34010   0.03290   0.01267  Uiso   1.00
C86    C     0.22760   0.96800   0.75220   0.01267  Uiso   1.00
C87    C     0.66150   0.05840   0.69630   0.01267  Uiso   1.00
C88    C     0.65480   0.26000   0.69460   0.01267  Uiso   1.00
C89    C     0.25820   0.93010   0.71030   0.01267  Uiso   1.00
C90    C     0.23770   0.85670   0.69320   0.01267  Uiso   1.00
C91    C     0.03290   0.29240   0.34010   0.01267  Uiso   1.00
C92    C     0.30870   0.66900   0.34330   0.01267  Uiso   1.00
C93    C     0.86960   0.34230   0.30230   0.01267  Uiso   1.00
C94    C     0.69130   0.65670   0.33100   0.01267  Uiso   1.00
C95    C     0.30370   0.34450   0.97160   0.01267  Uiso   1.00
C96    C     0.64120   0.14570   0.63680   0.01267  Uiso   1.00
C97    C     0.69630   0.66150   0.05840   0.01267  Uiso   1.00
C98    C     0.34450   0.97160   0.30370   0.01267  Uiso   1.00
C99    C     0.32940   0.31300   0.53700   0.01267  Uiso   1.00
C100   C     0.73270   0.71220   0.38050   0.01267  Uiso   1.00
C101   C     0.69770   0.65770   0.13040   0.01267  Uiso   1.00
C102   C     0.55350   0.28080   0.26950   0.01267  Uiso   1.00
C103   C     0.61950   0.28780   0.26730   0.01267  Uiso   1.00
C104   C     0.70490   0.68400   0.93580   0.01267  Uiso   1.00
C105   C     0.46300   0.68700   0.67060   0.01267  Uiso   1.00
C106   C     0.85670   0.69320   0.23770   0.01267  Uiso   1.00
C107   C     0.33100   0.69130   0.65670   0.01267  Uiso   1.00
C108   C     0.30080   0.96570   0.68310   0.01267  Uiso   1.00
C109   C     0.71030   0.25820   0.93010   0.01267  Uiso   1.00
C110   C     0.63800   0.02700   0.74130   0.01267  Uiso   1.00
C111   C     0.97300   0.36200   0.25870   0.01267  Uiso   1.00
C112   C     0.36460   0.78940   0.36020   0.01267  Uiso   1.00
C113   C     0.65550   0.69630   0.02840   0.01267  Uiso   1.00
C114   C     0.78940   0.36020   0.36460   0.01267  Uiso   1.00
C115   C     0.63980   0.21060   0.63540   0.01267  Uiso   1.00
C116   C     0.06420   0.31600   0.29510   0.01267  Uiso   1.00
C117   C     0.34520   0.30540   0.74000   0.01267  Uiso   1.00
C118   C     0.63540   0.63980   0.21060   0.01267  Uiso   1.00
C119   C     0.34010   0.03290   0.29240   0.01267  Uiso   1.00
C120   C     0.82020   0.32730   0.24310   0.01267  Uiso   1.00
C121   C     0.77240   0.24780   0.03200   0.01267  Uiso   1.00
C122   C     0.69920   0.31690   0.03430   0.01267  Uiso   1.00
C123   C     0.75220   0.22760   0.96800   0.01267  Uiso   1.00
C124   C     0.71920   0.44650   0.73050   0.01267  Uiso   1.00
C125   C     0.29510   0.06420   0.31600   0.01267  Uiso   1.00
C126   C     0.65240   0.39190   0.35200   0.01267  Uiso   1.00
C127   C     0.35200   0.65240   0.39190   0.01267  Uiso   1.00
C128   C     0.31690   0.03430   0.69920   0.01267  Uiso   1.00
C129   C     0.97160   0.30370   0.34450   0.01267  Uiso   1.00
C130   C     0.86770   0.70610   0.69960   0.01267  Uiso   1.00
C131   C     0.24460   0.75540   0.32880   0.01267  Uiso   1.00
C132   C     0.28780   0.26730   0.61950   0.01267  Uiso   1.00
C133   C     0.71220   0.38050   0.73270   0.01267  Uiso   1.00
C134   C     0.68190   0.53570   0.68610   0.01267  Uiso   1.00
C135   C     0.26730   0.61950   0.28780   0.01267  Uiso   1.00
C136   C     0.03430   0.69920   0.31690   0.01267  Uiso   1.00
C137   C     0.65990   0.70760   0.96710   0.01267  Uiso   1.00
C138   C     0.35880   0.36320   0.85430   0.01267  Uiso   1.00
C139   C     0.06990   0.74180   0.28970   0.01267  Uiso   1.00
C140   C     0.30230   0.86960   0.34230   0.01267  Uiso   1.00
C141   C     0.28970   0.06990   0.74180   0.01267  Uiso   1.00
C142   C     0.31600   0.29510   0.06420   0.01267  Uiso   1.00
C143   C     0.75540   0.32880   0.24460   0.01267  Uiso   1.00
C144   C     0.34230   0.30230   0.86960   0.01267  Uiso   1.00
N1     N     0.17940   0.82270   0.31200   0.01267  Uiso   1.00
N2     N     0.17730   0.82060   0.68800   0.01267  Uiso   1.00
N3     N     0.68140   0.27850   0.81810   0.01267  Uiso   1.00
N4     N     0.31200   0.17940   0.82270   0.01267  Uiso   1.00
N5     N     0.68800   0.17730   0.82060   0.01267  Uiso   1.00
N6     N     0.72150   0.31860   0.18190   0.01267  Uiso   1.00
N7     N     0.27850   0.81810   0.68140   0.01267  Uiso   1.00
N8     N     0.82060   0.68800   0.17730   0.01267  Uiso   1.00
N9     N     0.82270   0.31200   0.17940   0.01267  Uiso   1.00
N10    N     0.31860   0.18190   0.72150   0.01267  Uiso   1.00
N11    N     0.18190   0.72150   0.31860   0.01267  Uiso   1.00
N12    N     0.81810   0.68140   0.27850   0.01267  Uiso   1.00
O1     O     0.75580   0.67660   0.84790   0.01267  Uiso   1.00
O2     O     0.42670   0.26640   0.27960   0.01267  Uiso   1.00
O3     O     0.27960   0.42670   0.26640   0.01267  Uiso   1.00
O4     O     0.45060   0.36510   0.34990   0.01267  Uiso   1.00
O5     O     0.25900   0.32230   0.14890   0.01267  Uiso   1.00
O6     O     0.65010   0.63490   0.54940   0.01267  Uiso   1.00
O7     O     0.72040   0.73360   0.57330   0.01267  Uiso   1.00
O8     O     0.14890   0.25900   0.32230   0.01267  Uiso   1.00
O9     O     0.34990   0.45060   0.36510   0.01267  Uiso   1.00
O10    O     0.54940   0.65010   0.63490   0.01267  Uiso   1.00
O11    O     0.67770   0.74100   0.85110   0.01267  Uiso   1.00
O12    O     0.57330   0.72040   0.73360   0.01267  Uiso   1.00
O13    O     0.73360   0.57330   0.72040   0.01267  Uiso   1.00
O14    O     0.36510   0.34990   0.45060   0.01267  Uiso   1.00
O15    O     0.84790   0.75580   0.67660   0.01267  Uiso   1.00
O16    O     0.15210   0.32340   0.24420   0.01267  Uiso   1.00
O17    O     0.32340   0.24420   0.15210   0.01267  Uiso   1.00
O18    O     0.63490   0.54940   0.65010   0.01267  Uiso   1.00
O19    O     0.67660   0.84790   0.75580   0.01267  Uiso   1.00
O20    O     0.74100   0.85110   0.67770   0.01267  Uiso   1.00
O21    O     0.70777   0.70777   0.70777   0.01267  Uiso   1.00
O22    O     0.24420   0.15210   0.32340   0.01267  Uiso   1.00
O23    O     0.29223   0.29223   0.29223   0.01267  Uiso   1.00
O24    O     0.26640   0.27960   0.42670   0.01267  Uiso   1.00
O25    O     0.32230   0.14890   0.25900   0.01267  Uiso   1.00
O26    O     0.85110   0.67770   0.74100   0.01267  Uiso   1.00
