data_image0
_cell_length_a       11.8819
_cell_length_b       5.5555
_cell_length_c       22.6411
_cell_angle_alpha    90
_cell_angle_beta     101.302
_cell_angle_gamma    90

_symmetry_space_group_name_H-M    "P 1"
_symmetry_int_tables_number       1

loop_
  _symmetry_equiv_pos_as_xyz
  'x, y, z'

loop_
  _atom_site_label
  _atom_site_occupancy
  _atom_site_fract_x
  _atom_site_fract_y
  _atom_site_fract_z
  _atom_site_thermal_displace_type
  _atom_site_B_iso_or_equiv
  _atom_site_type_symbol
  Ca1      1.0000 0.10216  0.73476  0.04209  Biso   1.000  Ca
  S1       1.0000 0.39234  0.52469  0.10458  Biso   1.000  S
  O1       1.0000 0.90738  0.59270  0.02680  Biso   1.000  O
  O2       1.0000 0.38235  0.96160  0.38006  Biso   1.000  O
  O3       1.0000 0.37900  0.26740  0.09805  Biso   1.000  O
  O4       1.0000 0.86789  0.98380  0.02963  Biso   1.000  O
  O5       1.0000 0.30944  0.68290  0.06774  Biso   1.000  O
  O6       1.0000 0.39372  0.56610  0.39920  Biso   1.000  O
  C1       1.0000 0.39875  0.69640  0.30054  Biso   1.000  C
  C2       1.0000 0.39781  0.59780  0.18083  Biso   1.000  C
  C3       1.0000 0.52786  0.60150  0.08913  Biso   1.000  C
  C4       1.0000 0.73430  0.70870  0.05665  Biso   1.000  C
  C5       1.0000 0.44349  0.47920  0.28465  Biso   1.000  C
  H1       1.0000 0.47330  0.36480  0.31490  Biso   1.000  H
  C6       1.0000 0.84398  0.76680  0.03573  Biso   1.000  C
  C7       1.0000 0.71987  0.48720  0.08301  Biso   1.000  C
  H2       1.0000 0.78060  0.37310  0.08940  Biso   1.000  H
  C8       1.0000 0.35538  0.86500  0.25628  Biso   1.000  C
  H3       1.0000 0.32690  0.01440  0.26760  Biso   1.000  H
  C9       1.0000 0.39155  0.74570  0.36557  Biso   1.000  C
  C10      1.0000 0.61600  0.43340  0.09995  Biso   1.000  C
  H4       1.0000 0.60570  0.28400  0.11860  Biso   1.000  H
  C11      1.0000 0.44452  0.43020  0.22446  Biso   1.000  C
  H5       1.0000 0.47660  0.28440  0.21330  Biso   1.000  H
  C12      1.0000 0.54223  0.82610  0.06440  Biso   1.000  C
  H6       1.0000 0.48200  0.94140  0.05860  Biso   1.000  H
  C13      1.0000 0.35342  0.81670  0.19571  Biso   1.000  C
  H7       1.0000 0.32270  0.93000  0.16540  Biso   1.000  H
  C14      1.0000 0.64667  0.87790  0.04840  Biso   1.000  C
  H8       1.0000 0.65820  0.03060  0.03160  Biso   1.000  H
  Ca2      1.0000 0.39784  0.23476  0.45791  Biso   1.000  Ca
  S2       1.0000 0.10766  0.02469  0.39542  Biso   1.000  S
  O7       1.0000 0.59262  0.09270  0.47320  Biso   1.000  O
  O8       1.0000 0.11765  0.46160  0.11994  Biso   1.000  O
  O9       1.0000 0.12100  0.76740  0.40195  Biso   1.000  O
  O10      1.0000 0.63211  0.48380  0.47037  Biso   1.000  O
  O11      1.0000 0.19056  0.18290  0.43226  Biso   1.000  O
  O12      1.0000 0.10628  0.06610  0.10080  Biso   1.000  O
  C15      1.0000 0.10125  0.19640  0.19946  Biso   1.000  C
  C16      1.0000 0.10219  0.09780  0.31917  Biso   1.000  C
  C17      1.0000 0.97214  0.10150  0.41087  Biso   1.000  C
  C18      1.0000 0.76570  0.20870  0.44335  Biso   1.000  C
  C19      1.0000 0.05651  0.97920  0.21535  Biso   1.000  C
  H9       1.0000 0.02670  0.86480  0.18510  Biso   1.000  H
  C20      1.0000 0.65602  0.26680  0.46427  Biso   1.000  C
  C21      1.0000 0.78013  0.98720  0.41699  Biso   1.000  C
  H10      1.0000 0.71940  0.87310  0.41060  Biso   1.000  H
  C22      1.0000 0.14462  0.36500  0.24372  Biso   1.000  C
  H11      1.0000 0.17310  0.51440  0.23240  Biso   1.000  H
  C23      1.0000 0.10845  0.24570  0.13443  Biso   1.000  C
  C24      1.0000 0.88400  0.93340  0.40005  Biso   1.000  C
  H12      1.0000 0.89430  0.78400  0.38140  Biso   1.000  H
  C25      1.0000 0.05548  0.93020  0.27554  Biso   1.000  C
  H13      1.0000 0.02340  0.78440  0.28670  Biso   1.000  H
  C26      1.0000 0.95777  0.32610  0.43560  Biso   1.000  C
  H14      1.0000 0.01800  0.44140  0.44140  Biso   1.000  H
  C27      1.0000 0.14658  0.31670  0.30429  Biso   1.000  C
  H15      1.0000 0.17730  0.43000  0.33460  Biso   1.000  H
  C28      1.0000 0.85333  0.37790  0.45160  Biso   1.000  C
  H16      1.0000 0.84180  0.53060  0.46840  Biso   1.000  H
  Ca3      1.0000 0.89784  0.26524  0.95791  Biso   1.000  Ca
  S3       1.0000 0.60766  0.47531  0.89542  Biso   1.000  S
  O13      1.0000 0.09262  0.40730  0.97320  Biso   1.000  O
  O14      1.0000 0.61765  0.03840  0.61994  Biso   1.000  O
  O15      1.0000 0.62100  0.73260  0.90195  Biso   1.000  O
  O16      1.0000 0.13211  0.01620  0.97037  Biso   1.000  O
  O17      1.0000 0.69056  0.31710  0.93226  Biso   1.000  O
  O18      1.0000 0.60628  0.43390  0.60080  Biso   1.000  O
  C29      1.0000 0.60125  0.30360  0.69946  Biso   1.000  C
  C30      1.0000 0.60219  0.40220  0.81917  Biso   1.000  C
  C31      1.0000 0.47214  0.39850  0.91087  Biso   1.000  C
  C32      1.0000 0.26570  0.29130  0.94335  Biso   1.000  C
  C33      1.0000 0.55651  0.52080  0.71535  Biso   1.000  C
  H17      1.0000 0.52670  0.63520  0.68510  Biso   1.000  H
  C34      1.0000 0.15602  0.23320  0.96427  Biso   1.000  C
  C35      1.0000 0.28013  0.51280  0.91699  Biso   1.000  C
  H18      1.0000 0.21940  0.62690  0.91060  Biso   1.000  H
  C36      1.0000 0.64462  0.13500  0.74372  Biso   1.000  C
  H19      1.0000 0.67310  0.98560  0.73240  Biso   1.000  H
  C37      1.0000 0.60845  0.25430  0.63443  Biso   1.000  C
  C38      1.0000 0.38400  0.56660  0.90005  Biso   1.000  C
  H20      1.0000 0.39430  0.71600  0.88140  Biso   1.000  H
  C39      1.0000 0.55548  0.56980  0.77554  Biso   1.000  C
  H21      1.0000 0.52340  0.71560  0.78670  Biso   1.000  H
  C40      1.0000 0.45777  0.17390  0.93560  Biso   1.000  C
  H22      1.0000 0.51800  0.05860  0.94140  Biso   1.000  H
  C41      1.0000 0.64658  0.18330  0.80429  Biso   1.000  C
  H23      1.0000 0.67730  0.07000  0.83460  Biso   1.000  H
  C42      1.0000 0.35333  0.12210  0.95160  Biso   1.000  C
  H24      1.0000 0.34180  0.96940  0.96840  Biso   1.000  H
  Ca4      1.0000 0.60216  0.76524  0.54209  Biso   1.000  Ca
  S4       1.0000 0.89234  0.97531  0.60458  Biso   1.000  S
  O19      1.0000 0.40738  0.90730  0.52680  Biso   1.000  O
  O20      1.0000 0.88235  0.53840  0.88006  Biso   1.000  O
  O21      1.0000 0.87900  0.23260  0.59805  Biso   1.000  O
  O22      1.0000 0.36789  0.51620  0.52963  Biso   1.000  O
  O23      1.0000 0.80944  0.81710  0.56774  Biso   1.000  O
  O24      1.0000 0.89372  0.93390  0.89920  Biso   1.000  O
  C43      1.0000 0.89875  0.80360  0.80054  Biso   1.000  C
  C44      1.0000 0.89781  0.90220  0.68083  Biso   1.000  C
  C45      1.0000 0.02786  0.89850  0.58913  Biso   1.000  C
  C46      1.0000 0.23430  0.79130  0.55665  Biso   1.000  C
  C47      1.0000 0.94349  0.02080  0.78465  Biso   1.000  C
  H25      1.0000 0.97330  0.13520  0.81490  Biso   1.000  H
  C48      1.0000 0.34398  0.73320  0.53573  Biso   1.000  C
  C49      1.0000 0.21987  0.01280  0.58301  Biso   1.000  C
  H26      1.0000 0.28060  0.12690  0.58940  Biso   1.000  H
  C50      1.0000 0.85538  0.63500  0.75628  Biso   1.000  C
  H27      1.0000 0.82690  0.48560  0.76760  Biso   1.000  H
  C51      1.0000 0.89155  0.75430  0.86557  Biso   1.000  C
  C52      1.0000 0.11600  0.06660  0.59995  Biso   1.000  C
  H28      1.0000 0.10570  0.21600  0.61860  Biso   1.000  H
  C53      1.0000 0.94452  0.06980  0.72446  Biso   1.000  C
  H29      1.0000 0.97660  0.21560  0.71330  Biso   1.000  H
  C54      1.0000 0.04223  0.67390  0.56440  Biso   1.000  C
  H30      1.0000 0.98200  0.55860  0.55860  Biso   1.000  H
  C55      1.0000 0.85342  0.68330  0.69571  Biso   1.000  C
  H31      1.0000 0.82270  0.57000  0.66540  Biso   1.000  H
  C56      1.0000 0.14667  0.62210  0.54840  Biso   1.000  C
  H32      1.0000 0.15820  0.46940  0.53160  Biso   1.000  H
