data_image0
_cell_length_a       8.73
_cell_length_b       18.33
_cell_length_c       9.31
_cell_angle_alpha    90
_cell_angle_beta     105.8
_cell_angle_gamma    90

_symmetry_space_group_name_H-M    "P 1"
_symmetry_int_tables_number       1

loop_
  _symmetry_equiv_pos_as_xyz
  'x, y, z'

loop_
  _atom_site_label
  _atom_site_occupancy
  _atom_site_fract_x
  _atom_site_fract_y
  _atom_site_fract_z
  _atom_site_thermal_displace_type
  _atom_site_B_iso_or_equiv
  _atom_site_type_symbol
  C1       1.0000 0.75300  0.04400  0.44100  Biso   1.000  C
  C2       1.0000 0.57300  0.08100  0.40900  Biso   1.000  C
  C3       1.0000 0.29700  0.06200  0.08100  Biso   1.000  C
  C4       1.0000 0.48700  0.08800  0.11600  Biso   1.000  C
  C5       1.0000 0.15100  0.88100  0.05000  Biso   1.000  C
  C6       1.0000 0.21900  0.81900  0.17700  Biso   1.000  C
  Nd1      1.0000 0.00800  0.97600  0.78200  Biso   1.000  Nd
  N1       1.0000 0.53400  0.12800  0.26800  Biso   1.000  N
  O1       1.0000 0.77300  0.00900  0.56600  Biso   1.000  O
  O2       1.0000 0.82200  0.05000  0.35800  Biso   1.000  O
  O3       1.0000 0.25600  0.03300  0.95000  Biso   1.000  O
  O4       1.0000 0.22700  0.07800  0.16700  Biso   1.000  O
  O5       1.0000 0.08600  0.93600  0.08300  Biso   1.000  O
  O6       1.0000 0.17000  0.87000  0.92900  Biso   1.000  O
  C7       1.0000 0.24700  0.54400  0.55900  Biso   1.000  C
  C8       1.0000 0.42700  0.58100  0.59100  Biso   1.000  C
  C9       1.0000 0.70300  0.56200  0.91900  Biso   1.000  C
  C10      1.0000 0.51300  0.58800  0.88400  Biso   1.000  C
  C11      1.0000 0.84900  0.38100  0.95000  Biso   1.000  C
  C12      1.0000 0.78100  0.31900  0.82300  Biso   1.000  C
  Nd2      1.0000 0.99200  0.47600  0.21800  Biso   1.000  Nd
  N2       1.0000 0.46600  0.62800  0.73200  Biso   1.000  N
  O7       1.0000 0.22700  0.50900  0.43400  Biso   1.000  O
  O8       1.0000 0.17800  0.55000  0.64200  Biso   1.000  O
  O9       1.0000 0.74400  0.53300  0.05000  Biso   1.000  O
  O10      1.0000 0.77300  0.57800  0.83300  Biso   1.000  O
  O11      1.0000 0.91400  0.43600  0.91700  Biso   1.000  O
  O12      1.0000 0.83000  0.37000  0.07100  Biso   1.000  O
  C13      1.0000 0.24700  0.95600  0.55900  Biso   1.000  C
  C14      1.0000 0.42700  0.91900  0.59100  Biso   1.000  C
  C15      1.0000 0.70300  0.93800  0.91900  Biso   1.000  C
  C16      1.0000 0.51300  0.91200  0.88400  Biso   1.000  C
  C17      1.0000 0.84900  0.11900  0.95000  Biso   1.000  C
  C18      1.0000 0.78100  0.18100  0.82300  Biso   1.000  C
  Nd3      1.0000 0.99200  0.02400  0.21800  Biso   1.000  Nd
  N3       1.0000 0.46600  0.87200  0.73200  Biso   1.000  N
  O13      1.0000 0.22700  0.99100  0.43400  Biso   1.000  O
  O14      1.0000 0.17800  0.95000  0.64200  Biso   1.000  O
  O15      1.0000 0.74400  0.96700  0.05000  Biso   1.000  O
  O16      1.0000 0.77300  0.92200  0.83300  Biso   1.000  O
  O17      1.0000 0.91400  0.06400  0.91700  Biso   1.000  O
  O18      1.0000 0.83000  0.13000  0.07100  Biso   1.000  O
  C19      1.0000 0.75300  0.45600  0.44100  Biso   1.000  C
  C20      1.0000 0.57300  0.41900  0.40900  Biso   1.000  C
  C21      1.0000 0.29700  0.43800  0.08100  Biso   1.000  C
  C22      1.0000 0.48700  0.41200  0.11600  Biso   1.000  C
  C23      1.0000 0.15100  0.61900  0.05000  Biso   1.000  C
  C24      1.0000 0.21900  0.68100  0.17700  Biso   1.000  C
  Nd4      1.0000 0.00800  0.52400  0.78200  Biso   1.000  Nd
  N4       1.0000 0.53400  0.37200  0.26800  Biso   1.000  N
  O19      1.0000 0.77300  0.49100  0.56600  Biso   1.000  O
  O20      1.0000 0.82200  0.45000  0.35800  Biso   1.000  O
  O21      1.0000 0.25600  0.46700  0.95000  Biso   1.000  O
  O22      1.0000 0.22700  0.42200  0.16700  Biso   1.000  O
  O23      1.0000 0.08600  0.56400  0.08300  Biso   1.000  O
  O24      1.0000 0.17000  0.63000  0.92900  Biso   1.000  O
  N5       1.0000 0.21800  0.75000  0.08700  Biso   1.000  N
  N6       1.0000 0.78200  0.25000  0.91300  Biso   1.000  N
