data_image0
_cell_length_a       13.0735
_cell_length_b       13.0828
_cell_length_c       15.6584
_cell_angle_alpha    82.741
_cell_angle_beta     68.059
_cell_angle_gamma    84.188

_symmetry_space_group_name_H-M    "P 1"
_symmetry_int_tables_number       1

loop_
  _symmetry_equiv_pos_as_xyz
  'x, y, z'

loop_
  _atom_site_label
  _atom_site_occupancy
  _atom_site_fract_x
  _atom_site_fract_y
  _atom_site_fract_z
  _atom_site_thermal_displace_type
  _atom_site_B_iso_or_equiv
  _atom_site_type_symbol
  Zn1      1.0000 0.92263  0.69994  0.83111  Biso   1.000  Zn
  Zn2      1.0000 0.03486  0.69837  0.62769  Biso   1.000  Zn
  O1       1.0000 0.94410  0.85120  0.78470  Biso   1.000  O
  O2       1.0000 0.02070  0.85250  0.63150  Biso   1.000  O
  O3       1.0000 0.93690  0.54380  0.81580  Biso   1.000  O
  O4       1.0000 0.02860  0.54350  0.66400  Biso   1.000  O
  O5       1.0000 0.78970  0.70970  0.79320  Biso   1.000  O
  O6       1.0000 0.87310  0.70060  0.64140  Biso   1.000  O
  O7       1.0000 0.08040  0.68610  0.82750  Biso   1.000  O
  O8       1.0000 0.16110  0.69600  0.67390  Biso   1.000  O
  N1       1.0000 0.85100  0.68220  0.97200  Biso   1.000  N
  N2       1.0000 0.12500  0.68390  0.49230  Biso   1.000  N
  C1       1.0000 0.75340  0.72210  0.02340  Biso   1.000  C
  H1       1.0000 0.71530  0.77180  0.99460  Biso   1.000  H
  C2       1.0000 0.70400  0.69420  0.11850  Biso   1.000  C
  H2       1.0000 0.63470  0.72600  0.15330  Biso   1.000  H
  C3       1.0000 0.75630  0.62050  0.16150  Biso   1.000  C
  C4       1.0000 0.85860  0.58200  0.10820  Biso   1.000  C
  H3       1.0000 0.89950  0.53370  0.13540  Biso   1.000  H
  C5       1.0000 0.90160  0.61320  0.01580  Biso   1.000  C
  H4       1.0000 0.97210  0.58400  0.98040  Biso   1.000  H
  C6       1.0000 0.70940  0.57820  0.25940  Biso   1.000  C
  H5       1.0000 0.75870  0.54100  0.28540  Biso   1.000  H
  C7       1.0000 0.60600  0.58810  0.31280  Biso   1.000  C
  H6       1.0000 0.55790  0.62870  0.28730  Biso   1.000  H
  C8       1.0000 0.44250  0.55730  0.45190  Biso   1.000  C
  H7       1.0000 0.40170  0.59690  0.41890  Biso   1.000  H
  C9       1.0000 0.55620  0.54220  0.40910  Biso   1.000  C
  C10      1.0000 0.61250  0.48380  0.45900  Biso   1.000  C
  H8       1.0000 0.69030  0.47180  0.43140  Biso   1.000  H
  C11      1.0000 0.18840  0.75730  0.43670  Biso   1.000  C
  H9       1.0000 0.18450  0.82210  0.45950  Biso   1.000  H
  C12      1.0000 0.25880  0.74340  0.34820  Biso   1.000  C
  H10      1.0000 0.30290  0.79780  0.31140  Biso   1.000  H
  C13      1.0000 0.26600  0.65030  0.31240  Biso   1.000  C
  C14      1.0000 0.19960  0.57300  0.37050  Biso   1.000  C
  H11      1.0000 0.20130  0.50770  0.34930  Biso   1.000  H
  C15      1.0000 0.13190  0.59310  0.45860  Biso   1.000  C
  H12      1.0000 0.08770  0.53990  0.49770  Biso   1.000  H
  C16      1.0000 0.34480  0.63150  0.21960  Biso   1.000  C
  H13      1.0000 0.40360  0.67630  0.19120  Biso   1.000  H
  C17      1.0000 0.33910  0.55650  0.17300  Biso   1.000  C
  H14      1.0000 0.27630  0.51620  0.19960  Biso   1.000  H
  C18      1.0000 0.52760  0.56530  0.04960  Biso   1.000  C
  H15      1.0000 0.54710  0.61030  0.08340  Biso   1.000  H
  C19      1.0000 0.42090  0.52980  0.08360  Biso   1.000  C
  C20      1.0000 0.39490  0.46470  0.03310  Biso   1.000  C
  H16      1.0000 0.32280  0.43990  0.05530  Biso   1.000  H
  C21      1.0000 0.98630  0.89530  0.70480  Biso   1.000  C
  C22      1.0000 0.99430  0.01000  0.69610  Biso   1.000  C
  C23      1.0000 0.95400  0.06220  0.77240  Biso   1.000  C
  H17      1.0000 0.91930  0.02540  0.83110  Biso   1.000  H
  C24      1.0000 0.96200  0.16980  0.76710  Biso   1.000  C
  C25      1.0000 0.01630  0.22350  0.67960  Biso   1.000  C
  C26      1.0000 0.05630  0.16780  0.60050  Biso   1.000  C
  H18      1.0000 0.09110  0.20310  0.54120  Biso   1.000  H
  C27      1.0000 0.04550  0.06420  0.60840  Biso   1.000  C
  H19      1.0000 0.07260  0.02810  0.55460  Biso   1.000  H
  C28      1.0000 0.91660  0.22600  0.84520  Biso   1.000  C
  H20      1.0000 0.88000  0.19050  0.90410  Biso   1.000  H
  C29      1.0000 0.92380  0.32970  0.83840  Biso   1.000  C
  H21      1.0000 0.89190  0.36590  0.89210  Biso   1.000  H
  C30      1.0000 0.97860  0.38370  0.75170  Biso   1.000  C
  C31      1.0000 0.02370  0.33090  0.67440  Biso   1.000  C
  H22      1.0000 0.06050  0.36760  0.61610  Biso   1.000  H
  C32      1.0000 0.98200  0.49930  0.74330  Biso   1.000  C
  C33      1.0000 0.78990  0.70650  0.71250  Biso   1.000  C
  C34      1.0000 0.67890  0.70690  0.70440  Biso   1.000  C
  C35      1.0000 0.67090  0.70810  0.61760  Biso   1.000  C
  H23      1.0000 0.73590  0.70960  0.56340  Biso   1.000  H
  C36      1.0000 0.57020  0.70700  0.61040  Biso   1.000  C
  H24      1.0000 0.56600  0.70980  0.55090  Biso   1.000  H
  C37      1.0000 0.47240  0.70180  0.68940  Biso   1.000  C
  C38      1.0000 0.48010  0.69740  0.77770  Biso   1.000  C
  C39      1.0000 0.58520  0.70110  0.78260  Biso   1.000  C
  H25      1.0000 0.59120  0.69960  0.84140  Biso   1.000  H
  C40      1.0000 0.36690  0.70090  0.68360  Biso   1.000  C
  H26      1.0000 0.36070  0.70660  0.62460  Biso   1.000  H
  C41      1.0000 0.27420  0.69210  0.76150  Biso   1.000  C
  C42      1.0000 0.28310  0.68410  0.84890  Biso   1.000  C
  H27      1.0000 0.21860  0.67650  0.90310  Biso   1.000  H
  C43      1.0000 0.38280  0.68700  0.85690  Biso   1.000  C
  H28      1.0000 0.38700  0.68200  0.91660  Biso   1.000  H
  C44      1.0000 0.16360  0.69170  0.75380  Biso   1.000  C
  Zn3      1.0000 0.07737  0.30006  0.16889  Biso   1.000  Zn
  Zn4      1.0000 0.96514  0.30163  0.37231  Biso   1.000  Zn
  O9       1.0000 0.05590  0.14880  0.21530  Biso   1.000  O
  O10      1.0000 0.97930  0.14750  0.36850  Biso   1.000  O
  O11      1.0000 0.06310  0.45620  0.18420  Biso   1.000  O
  O12      1.0000 0.97140  0.45650  0.33600  Biso   1.000  O
  O13      1.0000 0.21030  0.29030  0.20680  Biso   1.000  O
  O14      1.0000 0.12690  0.29940  0.35860  Biso   1.000  O
  O15      1.0000 0.91960  0.31390  0.17250  Biso   1.000  O
  O16      1.0000 0.83890  0.30400  0.32610  Biso   1.000  O
  N3       1.0000 0.14900  0.31780  0.02800  Biso   1.000  N
  N4       1.0000 0.87500  0.31610  0.50770  Biso   1.000  N
  C45      1.0000 0.24660  0.27790  0.97660  Biso   1.000  C
  H29      1.0000 0.28470  0.22820  0.00540  Biso   1.000  H
  C46      1.0000 0.29600  0.30580  0.88150  Biso   1.000  C
  H30      1.0000 0.36530  0.27400  0.84670  Biso   1.000  H
  C47      1.0000 0.24370  0.37950  0.83850  Biso   1.000  C
  C48      1.0000 0.14140  0.41800  0.89180  Biso   1.000  C
  H31      1.0000 0.10050  0.46630  0.86460  Biso   1.000  H
  C49      1.0000 0.09840  0.38680  0.98420  Biso   1.000  C
  H32      1.0000 0.02790  0.41600  0.01960  Biso   1.000  H
  C50      1.0000 0.29060  0.42180  0.74060  Biso   1.000  C
  H33      1.0000 0.24130  0.45900  0.71460  Biso   1.000  H
  C51      1.0000 0.39400  0.41190  0.68720  Biso   1.000  C
  H34      1.0000 0.44210  0.37130  0.71270  Biso   1.000  H
  C52      1.0000 0.55750  0.44270  0.54810  Biso   1.000  C
  H35      1.0000 0.59830  0.40310  0.58110  Biso   1.000  H
  C53      1.0000 0.44380  0.45780  0.59090  Biso   1.000  C
  C54      1.0000 0.38750  0.51620  0.54100  Biso   1.000  C
  H36      1.0000 0.30970  0.52820  0.56860  Biso   1.000  H
  C55      1.0000 0.81160  0.24270  0.56330  Biso   1.000  C
  H37      1.0000 0.81550  0.17790  0.54050  Biso   1.000  H
  C56      1.0000 0.74120  0.25660  0.65180  Biso   1.000  C
  H38      1.0000 0.69710  0.20220  0.68860  Biso   1.000  H
  C57      1.0000 0.73400  0.34970  0.68760  Biso   1.000  C
  C58      1.0000 0.80040  0.42700  0.62950  Biso   1.000  C
  H39      1.0000 0.79870  0.49230  0.65070  Biso   1.000  H
  C59      1.0000 0.86810  0.40690  0.54140  Biso   1.000  C
  H40      1.0000 0.91230  0.46010  0.50230  Biso   1.000  H
  C60      1.0000 0.65520  0.36850  0.78040  Biso   1.000  C
  H41      1.0000 0.59640  0.32370  0.80880  Biso   1.000  H
  C61      1.0000 0.66090  0.44350  0.82700  Biso   1.000  C
  H42      1.0000 0.72370  0.48380  0.80040  Biso   1.000  H
  C62      1.0000 0.47240  0.43470  0.95040  Biso   1.000  C
  H43      1.0000 0.45290  0.38970  0.91660  Biso   1.000  H
  C63      1.0000 0.57910  0.47020  0.91640  Biso   1.000  C
  C64      1.0000 0.60510  0.53530  0.96690  Biso   1.000  C
  H44      1.0000 0.67720  0.56010  0.94470  Biso   1.000  H
  C65      1.0000 0.01370  0.10470  0.29520  Biso   1.000  C
  C66      1.0000 0.00570  0.99000  0.30390  Biso   1.000  C
  C67      1.0000 0.04600  0.93780  0.22760  Biso   1.000  C
  H45      1.0000 0.08070  0.97460  0.16890  Biso   1.000  H
  C68      1.0000 0.03800  0.83020  0.23290  Biso   1.000  C
  C69      1.0000 0.98370  0.77650  0.32040  Biso   1.000  C
  C70      1.0000 0.94370  0.83220  0.39950  Biso   1.000  C
  H46      1.0000 0.90890  0.79690  0.45880  Biso   1.000  H
  C71      1.0000 0.95450  0.93580  0.39160  Biso   1.000  C
  H47      1.0000 0.92740  0.97190  0.44540  Biso   1.000  H
  C72      1.0000 0.08340  0.77400  0.15480  Biso   1.000  C
  H48      1.0000 0.12000  0.80950  0.09590  Biso   1.000  H
  C73      1.0000 0.07620  0.67030  0.16160  Biso   1.000  C
  H49      1.0000 0.10810  0.63410  0.10790  Biso   1.000  H
  C74      1.0000 0.02140  0.61630  0.24830  Biso   1.000  C
  C75      1.0000 0.97630  0.66910  0.32560  Biso   1.000  C
  H50      1.0000 0.93950  0.63240  0.38390  Biso   1.000  H
  C76      1.0000 0.01800  0.50070  0.25670  Biso   1.000  C
  C77      1.0000 0.21010  0.29350  0.28750  Biso   1.000  C
  C78      1.0000 0.32110  0.29310  0.29560  Biso   1.000  C
  C79      1.0000 0.32910  0.29190  0.38240  Biso   1.000  C
  H51      1.0000 0.26410  0.29040  0.43660  Biso   1.000  H
  C80      1.0000 0.42980  0.29300  0.38960  Biso   1.000  C
  H52      1.0000 0.43400  0.29020  0.44910  Biso   1.000  H
  C81      1.0000 0.52760  0.29820  0.31060  Biso   1.000  C
  C82      1.0000 0.51990  0.30260  0.22230  Biso   1.000  C
  C83      1.0000 0.41480  0.29890  0.21740  Biso   1.000  C
  H53      1.0000 0.40880  0.30040  0.15860  Biso   1.000  H
  C84      1.0000 0.63310  0.29910  0.31640  Biso   1.000  C
  H54      1.0000 0.63930  0.29340  0.37540  Biso   1.000  H
  C85      1.0000 0.72580  0.30790  0.23850  Biso   1.000  C
  C86      1.0000 0.71690  0.31590  0.15110  Biso   1.000  C
  H55      1.0000 0.78140  0.32350  0.09690  Biso   1.000  H
  C87      1.0000 0.61720  0.31300  0.14310  Biso   1.000  C
  H56      1.0000 0.61300  0.31800  0.08340  Biso   1.000  H
  C88      1.0000 0.83640  0.30830  0.24620  Biso   1.000  C
