data_image0
_cell_length_a       13.5609
_cell_length_b       17.0431
_cell_length_c       13.4425
_cell_angle_alpha    90
_cell_angle_beta     90.931
_cell_angle_gamma    90

_symmetry_space_group_name_H-M    "P 1"
_symmetry_int_tables_number       1

loop_
  _symmetry_equiv_pos_as_xyz
  'x, y, z'

loop_
  _atom_site_label
  _atom_site_occupancy
  _atom_site_fract_x
  _atom_site_fract_y
  _atom_site_fract_z
  _atom_site_thermal_displace_type
  _atom_site_B_iso_or_equiv
  _atom_site_type_symbol
  P1       1.0000 0.60410  0.57179  0.89644  Biso   1.000  P
  H1       1.0000 0.50700  0.55950  0.93110  Biso   1.000  H
  P2       1.0000 0.77393  0.56689  0.17188  Biso   1.000  P
  H2       1.0000 0.69300  0.51700  0.13580  Biso   1.000  H
  P3       1.0000 0.74153  0.65801  0.54145  Biso   1.000  P
  H3       1.0000 0.83600  0.64210  0.57000  Biso   1.000  H
  P4       1.0000 0.90124  0.42242  0.39240  Biso   1.000  P
  H4       1.0000 0.00000  0.43180  0.42590  Biso   1.000  H
  P5       1.0000 0.75330  0.34236  0.03547  Biso   1.000  P
  H5       1.0000 0.65500  0.35970  0.04980  Biso   1.000  H
  P6       1.0000 0.61694  0.39599  0.34890  Biso   1.000  P
  H6       1.0000 0.62120  0.38000  0.24800  Biso   1.000  H
  P7       1.0000 0.89021  0.58727  0.86442  Biso   1.000  P
  H7       1.0000 0.87510  0.61400  0.76700  Biso   1.000  H
  P8       1.0000 0.72398  0.45042  0.65426  Biso   1.000  P
  H8       1.0000 0.80500  0.50000  0.63070  Biso   1.000  H
  Be1      1.0000 0.74740  0.53730  0.38130  Biso   1.000  Be
  Be2      1.0000 0.75300  0.45220  0.86860  Biso   1.000  Be
  Be3      1.0000 0.75150  0.66870  0.00080  Biso   1.000  Be
  Be4      1.0000 0.59910  0.58710  0.67500  Biso   1.000  Be
  Be5      1.0000 0.89690  0.42950  0.17020  Biso   1.000  Be
  Be6      1.0000 0.75400  0.33050  0.49220  Biso   1.000  Be
  O1       1.0000 0.64700  0.63400  0.96130  Biso   1.000  O
  O2       1.0000 0.65500  0.49400  0.90600  Biso   1.000  O
  O3       1.0000 0.59230  0.60078  0.79220  Biso   1.000  O
  O4       1.0000 0.77280  0.64234  0.11320  Biso   1.000  O
  O5       1.0000 0.75510  0.58833  0.27960  Biso   1.000  O
  O6       1.0000 0.86940  0.52222  0.16000  Biso   1.000  O
  O7       1.0000 0.73940  0.73786  0.49680  Biso   1.000  O
  O8       1.0000 0.71110  0.59853  0.46420  Biso   1.000  O
  O9       1.0000 0.67770  0.65200  0.63250  Biso   1.000  O
  O10      1.0000 0.86050  0.35460  0.45030  Biso   1.000  O
  O11      1.0000 0.90630  0.40186  0.28440  Biso   1.000  O
  O12      1.0000 0.85070  0.49895  0.41320  Biso   1.000  O
  O13      1.0000 0.81000  0.37740  0.11990  Biso   1.000  O
  O14      1.0000 0.76390  0.25543  0.04180  Biso   1.000  O
  O15      1.0000 0.78000  0.37376  0.93460  Biso   1.000  O
  O16      1.0000 0.67390  0.33151  0.40180  Biso   1.000  O
  O17      1.0000 0.65890  0.47617  0.36370  Biso   1.000  O
  O18      1.0000 0.50860  0.39387  0.37640  Biso   1.000  O
  O19      1.0000 0.84300  0.64480  0.93220  Biso   1.000  O
  O20      1.0000 0.84860  0.50650  0.87020  Biso   1.000  O
  O21      1.0000 0.00030  0.58743  0.88510  Biso   1.000  O
  O22      1.0000 0.63030  0.49873  0.64870  Biso   1.000  O
  O23      1.0000 0.71900  0.38566  0.57980  Biso   1.000  O
  O24      1.0000 0.74170  0.41642  0.75720  Biso   1.000  O
  P9       1.0000 0.39590  0.07179  0.60356  Biso   1.000  P
  H9       1.0000 0.49300  0.05950  0.56890  Biso   1.000  H
  P10      1.0000 0.22607  0.06689  0.32812  Biso   1.000  P
  H10      1.0000 0.30700  0.01700  0.36420  Biso   1.000  H
  P11      1.0000 0.25847  0.15801  0.95855  Biso   1.000  P
  H11      1.0000 0.16400  0.14210  0.93000  Biso   1.000  H
  P12      1.0000 0.09876  0.92242  0.10760  Biso   1.000  P
  H12      1.0000 0.00000  0.93180  0.07410  Biso   1.000  H
  P13      1.0000 0.24670  0.84236  0.46453  Biso   1.000  P
  H13      1.0000 0.34500  0.85970  0.45020  Biso   1.000  H
  P14      1.0000 0.38306  0.89599  0.15110  Biso   1.000  P
  H14      1.0000 0.37880  0.88000  0.25200  Biso   1.000  H
  P15      1.0000 0.10979  0.08727  0.63558  Biso   1.000  P
  H15      1.0000 0.12490  0.11400  0.73300  Biso   1.000  H
  P16      1.0000 0.27602  0.95042  0.84574  Biso   1.000  P
  H16      1.0000 0.19500  0.00000  0.86930  Biso   1.000  H
  Be7      1.0000 0.25260  0.03730  0.11870  Biso   1.000  Be
  Be8      1.0000 0.24700  0.95220  0.63140  Biso   1.000  Be
  Be9      1.0000 0.24850  0.16870  0.49920  Biso   1.000  Be
  Be10     1.0000 0.40090  0.08710  0.82500  Biso   1.000  Be
  Be11     1.0000 0.10310  0.92950  0.32980  Biso   1.000  Be
  Be12     1.0000 0.24600  0.83050  0.00780  Biso   1.000  Be
  O25      1.0000 0.35300  0.13400  0.53870  Biso   1.000  O
  O26      1.0000 0.34500  0.99400  0.59400  Biso   1.000  O
  O27      1.0000 0.40770  0.10078  0.70780  Biso   1.000  O
  O28      1.0000 0.22720  0.14234  0.38680  Biso   1.000  O
  O29      1.0000 0.24490  0.08833  0.22040  Biso   1.000  O
  O30      1.0000 0.13060  0.02222  0.34000  Biso   1.000  O
  O31      1.0000 0.26060  0.23786  0.00320  Biso   1.000  O
  O32      1.0000 0.28890  0.09853  0.03580  Biso   1.000  O
  O33      1.0000 0.32230  0.15200  0.86750  Biso   1.000  O
  O34      1.0000 0.13950  0.85460  0.04970  Biso   1.000  O
  O35      1.0000 0.09370  0.90186  0.21560  Biso   1.000  O
  O36      1.0000 0.14930  0.99895  0.08680  Biso   1.000  O
  O37      1.0000 0.19000  0.87740  0.38010  Biso   1.000  O
  O38      1.0000 0.23610  0.75543  0.45820  Biso   1.000  O
  O39      1.0000 0.22000  0.87376  0.56540  Biso   1.000  O
  O40      1.0000 0.32610  0.83151  0.09820  Biso   1.000  O
  O41      1.0000 0.34110  0.97617  0.13630  Biso   1.000  O
  O42      1.0000 0.49140  0.89387  0.12360  Biso   1.000  O
  O43      1.0000 0.15700  0.14480  0.56780  Biso   1.000  O
  O44      1.0000 0.15140  0.00650  0.62980  Biso   1.000  O
  O45      1.0000 0.99970  0.08743  0.61490  Biso   1.000  O
  O46      1.0000 0.36970  0.99873  0.85130  Biso   1.000  O
  O47      1.0000 0.28100  0.88566  0.92020  Biso   1.000  O
  O48      1.0000 0.25830  0.91642  0.74280  Biso   1.000  O
  P17      1.0000 0.39590  0.42821  0.10356  Biso   1.000  P
  H17      1.0000 0.49300  0.44050  0.06890  Biso   1.000  H
  P18      1.0000 0.22607  0.43311  0.82812  Biso   1.000  P
  H18      1.0000 0.30700  0.48300  0.86420  Biso   1.000  H
  P19      1.0000 0.25847  0.34199  0.45855  Biso   1.000  P
  H19      1.0000 0.16400  0.35790  0.43000  Biso   1.000  H
  P20      1.0000 0.09876  0.57758  0.60760  Biso   1.000  P
  H20      1.0000 0.00000  0.56820  0.57410  Biso   1.000  H
  P21      1.0000 0.24670  0.65764  0.96453  Biso   1.000  P
  H21      1.0000 0.34500  0.64030  0.95020  Biso   1.000  H
  P22      1.0000 0.38306  0.60401  0.65110  Biso   1.000  P
  H22      1.0000 0.37880  0.62000  0.75200  Biso   1.000  H
  P23      1.0000 0.10979  0.41273  0.13558  Biso   1.000  P
  H23      1.0000 0.12490  0.38600  0.23300  Biso   1.000  H
  P24      1.0000 0.27602  0.54958  0.34574  Biso   1.000  P
  H24      1.0000 0.19500  0.50000  0.36930  Biso   1.000  H
  Be13     1.0000 0.25260  0.46270  0.61870  Biso   1.000  Be
  Be14     1.0000 0.24700  0.54780  0.13140  Biso   1.000  Be
  Be15     1.0000 0.24850  0.33130  0.99920  Biso   1.000  Be
  Be16     1.0000 0.40090  0.41290  0.32500  Biso   1.000  Be
  Be17     1.0000 0.10310  0.57050  0.82980  Biso   1.000  Be
  Be18     1.0000 0.24600  0.66950  0.50780  Biso   1.000  Be
  O49      1.0000 0.35300  0.36600  0.03870  Biso   1.000  O
  O50      1.0000 0.34500  0.50600  0.09400  Biso   1.000  O
  O51      1.0000 0.40770  0.39922  0.20780  Biso   1.000  O
  O52      1.0000 0.22720  0.35766  0.88680  Biso   1.000  O
  O53      1.0000 0.24490  0.41167  0.72040  Biso   1.000  O
  O54      1.0000 0.13060  0.47778  0.84000  Biso   1.000  O
  O55      1.0000 0.26060  0.26214  0.50320  Biso   1.000  O
  O56      1.0000 0.28890  0.40147  0.53580  Biso   1.000  O
  O57      1.0000 0.32230  0.34800  0.36750  Biso   1.000  O
  O58      1.0000 0.13950  0.64540  0.54970  Biso   1.000  O
  O59      1.0000 0.09370  0.59814  0.71560  Biso   1.000  O
  O60      1.0000 0.14930  0.50105  0.58680  Biso   1.000  O
  O61      1.0000 0.19000  0.62260  0.88010  Biso   1.000  O
  O62      1.0000 0.23610  0.74457  0.95820  Biso   1.000  O
  O63      1.0000 0.22000  0.62624  0.06540  Biso   1.000  O
  O64      1.0000 0.32610  0.66849  0.59820  Biso   1.000  O
  O65      1.0000 0.34110  0.52383  0.63630  Biso   1.000  O
  O66      1.0000 0.49140  0.60613  0.62360  Biso   1.000  O
  O67      1.0000 0.15700  0.35520  0.06780  Biso   1.000  O
  O68      1.0000 0.15140  0.49350  0.12980  Biso   1.000  O
  O69      1.0000 0.99970  0.41257  0.11490  Biso   1.000  O
  O70      1.0000 0.36970  0.50127  0.35130  Biso   1.000  O
  O71      1.0000 0.28100  0.61434  0.42020  Biso   1.000  O
  O72      1.0000 0.25830  0.58358  0.24280  Biso   1.000  O
  P25      1.0000 0.60410  0.92821  0.39644  Biso   1.000  P
  H25      1.0000 0.50700  0.94050  0.43110  Biso   1.000  H
  P26      1.0000 0.77393  0.93311  0.67188  Biso   1.000  P
  H26      1.0000 0.69300  0.98300  0.63580  Biso   1.000  H
  P27      1.0000 0.74153  0.84199  0.04145  Biso   1.000  P
  H27      1.0000 0.83600  0.85790  0.07000  Biso   1.000  H
  P28      1.0000 0.90124  0.07758  0.89240  Biso   1.000  P
  H28      1.0000 0.00000  0.06820  0.92590  Biso   1.000  H
  P29      1.0000 0.75330  0.15764  0.53547  Biso   1.000  P
  H29      1.0000 0.65500  0.14030  0.54980  Biso   1.000  H
  P30      1.0000 0.61694  0.10401  0.84890  Biso   1.000  P
  H30      1.0000 0.62120  0.12000  0.74800  Biso   1.000  H
  P31      1.0000 0.89021  0.91273  0.36442  Biso   1.000  P
  H31      1.0000 0.87510  0.88600  0.26700  Biso   1.000  H
  P32      1.0000 0.72398  0.04958  0.15426  Biso   1.000  P
  H32      1.0000 0.80500  0.00000  0.13070  Biso   1.000  H
  Be19     1.0000 0.74740  0.96270  0.88130  Biso   1.000  Be
  Be20     1.0000 0.75300  0.04780  0.36860  Biso   1.000  Be
  Be21     1.0000 0.75150  0.83130  0.50080  Biso   1.000  Be
  Be22     1.0000 0.59910  0.91290  0.17500  Biso   1.000  Be
  Be23     1.0000 0.89690  0.07050  0.67020  Biso   1.000  Be
  Be24     1.0000 0.75400  0.16950  0.99220  Biso   1.000  Be
  O73      1.0000 0.64700  0.86600  0.46130  Biso   1.000  O
  O74      1.0000 0.65500  0.00600  0.40600  Biso   1.000  O
  O75      1.0000 0.59230  0.89922  0.29220  Biso   1.000  O
  O76      1.0000 0.77280  0.85766  0.61320  Biso   1.000  O
  O77      1.0000 0.75510  0.91167  0.77960  Biso   1.000  O
  O78      1.0000 0.86940  0.97778  0.66000  Biso   1.000  O
  O79      1.0000 0.73940  0.76214  0.99680  Biso   1.000  O
  O80      1.0000 0.71110  0.90147  0.96420  Biso   1.000  O
  O81      1.0000 0.67770  0.84800  0.13250  Biso   1.000  O
  O82      1.0000 0.86050  0.14540  0.95030  Biso   1.000  O
  O83      1.0000 0.90630  0.09814  0.78440  Biso   1.000  O
  O84      1.0000 0.85070  0.00105  0.91320  Biso   1.000  O
  O85      1.0000 0.81000  0.12260  0.61990  Biso   1.000  O
  O86      1.0000 0.76390  0.24457  0.54180  Biso   1.000  O
  O87      1.0000 0.78000  0.12624  0.43460  Biso   1.000  O
  O88      1.0000 0.67390  0.16849  0.90180  Biso   1.000  O
  O89      1.0000 0.65890  0.02383  0.86370  Biso   1.000  O
  O90      1.0000 0.50860  0.10613  0.87640  Biso   1.000  O
  O91      1.0000 0.84300  0.85520  0.43220  Biso   1.000  O
  O92      1.0000 0.84860  0.99350  0.37020  Biso   1.000  O
  O93      1.0000 0.00030  0.91257  0.38510  Biso   1.000  O
  O94      1.0000 0.63030  0.00127  0.14870  Biso   1.000  O
  O95      1.0000 0.71900  0.11434  0.07980  Biso   1.000  O
  O96      1.0000 0.74170  0.08358  0.25720  Biso   1.000  O
