data_NEDWEA_clean
_audit_creation_date              2014-07-02
_audit_creation_method            'Materials Studio'
_symmetry_space_group_name_H-M    'P1'
_symmetry_Int_Tables_number       1
_symmetry_cell_setting            triclinic
loop_
_symmetry_equiv_pos_as_xyz
  x,y,z
_cell_length_a                    12.6594
_cell_length_b                    15.0271
_cell_length_c                    17.0317
_cell_angle_alpha                 108.0090
_cell_angle_beta                  101.0500
_cell_angle_gamma                 106.0500
loop_
_atom_site_label
_atom_site_type_symbol
_atom_site_fract_x
_atom_site_fract_y
_atom_site_fract_z
_atom_site_U_iso_or_equiv
_atom_site_adp_type
_atom_site_occupancy
Mn1    Mn    0.50000   0.50000   0.50000   0.01267  Uiso   1.00
Co1    Co    0.21509   0.37245   0.41478   0.01267  Uiso   1.00
Co2    Co    0.78491   0.62755   0.58522   0.01267  Uiso   1.00
Co3    Co    0.00000   0.50000   0.50000   0.01267  Uiso   1.00
H1     H     0.21750   0.64270   0.66390   0.01267  Uiso   1.00
H2     H     0.30130   0.80610   0.76790   0.01267  Uiso   1.00
H3     H     0.54130   0.86650   0.64610   0.01267  Uiso   1.00
H4     H     0.45680   0.70240   0.54230   0.01267  Uiso   1.00
H5     H     0.18190   0.18290   0.57020   0.01267  Uiso   1.00
H6     H     0.21530   0.11240   0.67200   0.01267  Uiso   1.00
H7     H     0.56040   0.12350   0.78250   0.01267  Uiso   1.00
H8     H     0.55480   0.22320   0.84950   0.01267  Uiso   1.00
H9     H     0.66170   0.08470   0.89820   0.01267  Uiso   1.00
H10    H     0.61320   0.08060   0.97810   0.01267  Uiso   1.00
H11    H     0.75610   0.39340   0.09230   0.01267  Uiso   1.00
H12    H     0.88020   0.45770   0.23290   0.01267  Uiso   1.00
H13    H     0.93720   0.19790   0.18770   0.01267  Uiso   1.00
H14    H     0.79880   0.12680   0.04830   0.01267  Uiso   1.00
H15    H     0.36000   0.13590   0.90480   0.01267  Uiso   1.00
H16    H     0.48050   0.22050   0.96910   0.01267  Uiso   1.00
H17    H     0.55840   0.24930   0.72720   0.01267  Uiso   1.00
H18    H     0.52360   0.32770   0.63090   0.01267  Uiso   1.00
H19    H     0.53490   0.38220   0.24080   0.01267  Uiso   1.00
H20    H     0.55770   0.28700   0.11080   0.01267  Uiso   1.00
H21    H     0.26240   0.06370   0.06900   0.01267  Uiso   1.00
H22    H     0.23720   0.16000   0.19480   0.01267  Uiso   1.00
H23    H     0.35090   0.97640   0.80740   0.01267  Uiso   1.00
H24    H     0.43230   0.95410   0.87790   0.01267  Uiso   1.00
H25    H     0.78250   0.35730   0.33610   0.01267  Uiso   1.00
H26    H     0.69870   0.19390   0.23210   0.01267  Uiso   1.00
H27    H     0.45870   0.13350   0.35390   0.01267  Uiso   1.00
H28    H     0.54320   0.29760   0.45770   0.01267  Uiso   1.00
H29    H     0.81810   0.81710   0.42980   0.01267  Uiso   1.00
H30    H     0.78470   0.88760   0.32800   0.01267  Uiso   1.00
H31    H     0.43960   0.87650   0.21750   0.01267  Uiso   1.00
H32    H     0.44520   0.77680   0.15050   0.01267  Uiso   1.00
H33    H     0.33830   0.91530   0.10180   0.01267  Uiso   1.00
H34    H     0.38680   0.91940   0.02190   0.01267  Uiso   1.00
H35    H     0.24390   0.60660   0.90770   0.01267  Uiso   1.00
H36    H     0.11980   0.54230   0.76710   0.01267  Uiso   1.00
H37    H     0.06280   0.80210   0.81230   0.01267  Uiso   1.00
H38    H     0.20120   0.87320   0.95170   0.01267  Uiso   1.00
H39    H     0.64000   0.86410   0.09520   0.01267  Uiso   1.00
H40    H     0.51950   0.77950   0.03090   0.01267  Uiso   1.00
H41    H     0.44160   0.75070   0.27280   0.01267  Uiso   1.00
H42    H     0.47640   0.67230   0.36910   0.01267  Uiso   1.00
H43    H     0.46510   0.61780   0.75920   0.01267  Uiso   1.00
H44    H     0.44230   0.71300   0.88920   0.01267  Uiso   1.00
H45    H     0.73760   0.93630   0.93100   0.01267  Uiso   1.00
H46    H     0.76280   0.84000   0.80520   0.01267  Uiso   1.00
H47    H     0.64910   0.02360   0.19260   0.01267  Uiso   1.00
H48    H     0.56770   0.04590   0.12210   0.01267  Uiso   1.00
C1     C     0.32570   0.65610   0.59310   0.01267  Uiso   1.00
C2     C     0.28320   0.68820   0.65970   0.01267  Uiso   1.00
C3     C     0.33280   0.78550   0.72200   0.01267  Uiso   1.00
C4     C     0.47500   0.82070   0.64940   0.01267  Uiso   1.00
C5     C     0.42500   0.72360   0.58780   0.01267  Uiso   1.00
C6     C     0.50080   0.09930   0.88310   0.01267  Uiso   1.00
C7     C     0.35010   0.26470   0.59170   0.01267  Uiso   1.00
C8     C     0.25870   0.19850   0.60350   0.01267  Uiso   1.00
C9     C     0.27840   0.15520   0.66270   0.01267  Uiso   1.00
C10    C     0.38990   0.17440   0.70850   0.01267  Uiso   1.00
C11    C     0.51470   0.14980   0.81850   0.01267  Uiso   1.00
C12    C     0.61990   0.11390   0.93650   0.01267  Uiso   1.00
C13    C     0.76250   0.25330   0.06020   0.01267  Uiso   1.00
C14    C     0.78950   0.35240   0.11280   0.01267  Uiso   1.00
C15    C     0.86520   0.39100   0.19530   0.01267  Uiso   1.00
C16    C     0.91930   0.33390   0.22360   0.01267  Uiso   1.00
C17    C     0.89740   0.23640   0.16900   0.01267  Uiso   1.00
C18    C     0.81610   0.19410   0.08560   0.01267  Uiso   1.00
C19    C     0.43770   0.14730   0.94060   0.01267  Uiso   1.00
C20    C     0.48150   0.23720   0.69640   0.01267  Uiso   1.00
C21    C     0.46030   0.28290   0.63840   0.01267  Uiso   1.00
C22    C     0.36900   0.34240   0.31240   0.01267  Uiso   1.00
C23    C     0.38530   0.28150   0.23010   0.01267  Uiso   1.00
C24    C     0.47870   0.31770   0.20540   0.01267  Uiso   1.00
C25    C     0.49290   0.26110   0.12840   0.01267  Uiso   1.00
C26    C     0.41160   0.16760   0.07880   0.01267  Uiso   1.00
C27    C     0.31720   0.12910   0.10360   0.01267  Uiso   1.00
C28    C     0.30290   0.18560   0.17820   0.01267  Uiso   1.00
C29    C     0.42800   0.85120   0.71630   0.01267  Uiso   1.00
C30    C     0.43190   0.98770   0.83620   0.01267  Uiso   1.00
C31    C     0.99910   0.37630   0.31580   0.01267  Uiso   1.00
C32    C     0.27310   0.55290   0.52950   0.01267  Uiso   1.00
C33    C     0.32820   0.31450   0.53130   0.01267  Uiso   1.00
C34    C     0.67430   0.34390   0.40690   0.01267  Uiso   1.00
C35    C     0.71680   0.31180   0.34030   0.01267  Uiso   1.00
C36    C     0.66720   0.21450   0.27800   0.01267  Uiso   1.00
C37    C     0.52500   0.17930   0.35060   0.01267  Uiso   1.00
C38    C     0.57500   0.27640   0.41220   0.01267  Uiso   1.00
C39    C     0.49920   0.90070   0.11690   0.01267  Uiso   1.00
C40    C     0.64990   0.73530   0.40830   0.01267  Uiso   1.00
C41    C     0.74130   0.80150   0.39650   0.01267  Uiso   1.00
C42    C     0.72160   0.84480   0.33730   0.01267  Uiso   1.00
C43    C     0.61010   0.82560   0.29150   0.01267  Uiso   1.00
C44    C     0.48530   0.85020   0.18150   0.01267  Uiso   1.00
C45    C     0.38010   0.88610   0.06350   0.01267  Uiso   1.00
C46    C     0.23750   0.74670   0.93980   0.01267  Uiso   1.00
C47    C     0.21050   0.64760   0.88720   0.01267  Uiso   1.00
C48    C     0.13480   0.60900   0.80470   0.01267  Uiso   1.00
C49    C     0.08070   0.66610   0.77640   0.01267  Uiso   1.00
C50    C     0.10260   0.76360   0.83100   0.01267  Uiso   1.00
C51    C     0.18390   0.80590   0.91440   0.01267  Uiso   1.00
C52    C     0.56230   0.85270   0.05940   0.01267  Uiso   1.00
C53    C     0.51850   0.76280   0.30360   0.01267  Uiso   1.00
C54    C     0.53970   0.71710   0.36160   0.01267  Uiso   1.00
C55    C     0.63100   0.65760   0.68760   0.01267  Uiso   1.00
C56    C     0.61470   0.71850   0.76990   0.01267  Uiso   1.00
C57    C     0.52130   0.68230   0.79460   0.01267  Uiso   1.00
C58    C     0.50710   0.73890   0.87160   0.01267  Uiso   1.00
C59    C     0.58840   0.83240   0.92120   0.01267  Uiso   1.00
C60    C     0.68280   0.87090   0.89640   0.01267  Uiso   1.00
C61    C     0.69710   0.81440   0.82180   0.01267  Uiso   1.00
C62    C     0.57200   0.14880   0.28370   0.01267  Uiso   1.00
C63    C     0.56810   0.01230   0.16380   0.01267  Uiso   1.00
C64    C     0.00090   0.62370   0.68420   0.01267  Uiso   1.00
C65    C     0.72690   0.44710   0.47050   0.01267  Uiso   1.00
C66    C     0.67180   0.68550   0.46870   0.01267  Uiso   1.00
O1     O     0.32669   0.51762   0.47773   0.01267  Uiso   1.00
O2     O     0.41270   0.36751   0.51779   0.01267  Uiso   1.00
O3     O     0.99270   0.45240   0.36718   0.01267  Uiso   1.00
O4     O     0.40110   0.12780   0.76533   0.01267  Uiso   1.00
O5     O     0.68120   0.22100   0.98226   0.01267  Uiso   1.00
O6     O     0.06210   0.32990   0.33283   0.01267  Uiso   1.00
O7     O     0.22500   0.30150   0.49594   0.01267  Uiso   1.00
O8     O     0.45280   0.42122   0.36482   0.01267  Uiso   1.00
O9     O     0.27400   0.30766   0.32415   0.01267  Uiso   1.00
O10    O     0.17608   0.49543   0.52516   0.01267  Uiso   1.00
O11    O     0.42690   0.10590   0.00461   0.01267  Uiso   1.00
O12    O     0.48500   0.94807   0.77302   0.01267  Uiso   1.00
O13    O     0.67331   0.48238   0.52227   0.01267  Uiso   1.00
O14    O     0.58730   0.63249   0.48221   0.01267  Uiso   1.00
O15    O     0.00730   0.54760   0.63282   0.01267  Uiso   1.00
O16    O     0.59890   0.87220   0.23467   0.01267  Uiso   1.00
O17    O     0.31880   0.77900   0.01774   0.01267  Uiso   1.00
O18    O     0.93790   0.67010   0.66717   0.01267  Uiso   1.00
O19    O     0.77500   0.69850   0.50406   0.01267  Uiso   1.00
O20    O     0.54720   0.57878   0.63518   0.01267  Uiso   1.00
O21    O     0.72600   0.69234   0.67585   0.01267  Uiso   1.00
O22    O     0.82392   0.50457   0.47484   0.01267  Uiso   1.00
O23    O     0.57310   0.89410   0.99539   0.01267  Uiso   1.00
O24    O     0.51500   0.05193   0.22698   0.01267  Uiso   1.00
