data_image0
_cell_length_a       9.2671
_cell_length_b       17.1198
_cell_length_c       24.8416
_cell_angle_alpha    90
_cell_angle_beta     90
_cell_angle_gamma    90

_symmetry_space_group_name_H-M    "P 1"
_symmetry_int_tables_number       1

loop_
  _symmetry_equiv_pos_as_xyz
  'x, y, z'

loop_
  _atom_site_label
  _atom_site_occupancy
  _atom_site_fract_x
  _atom_site_fract_y
  _atom_site_fract_z
  _atom_site_thermal_displace_type
  _atom_site_B_iso_or_equiv
  _atom_site_type_symbol
  Zn1      1.0000 0.18146  0.19998  0.24912  Biso   1.000  Zn
  P1       1.0000 0.84496  0.14213  0.24568  Biso   1.000  P
  O1       1.0000 0.97660  0.19137  0.25523  Biso   1.000  O
  O2       1.0000 0.83830  0.07109  0.28521  Biso   1.000  O
  O3       1.0000 0.85470  0.09978  0.19075  Biso   1.000  O
  O4       1.0000 0.71010  0.18986  0.25091  Biso   1.000  O
  N1       1.0000 0.26490  0.14324  0.31314  Biso   1.000  N
  N2       1.0000 0.27780  0.14707  0.18615  Biso   1.000  N
  C1       1.0000 0.18030  0.11500  0.35272  Biso   1.000  C
  C2       1.0000 0.23430  0.07510  0.39655  Biso   1.000  C
  C3       1.0000 0.38310  0.06461  0.40120  Biso   1.000  C
  C4       1.0000 0.46960  0.09200  0.35976  Biso   1.000  C
  C5       1.0000 0.40840  0.13080  0.31696  Biso   1.000  C
  C6       1.0000 0.44430  0.02808  0.45067  Biso   1.000  C
  C7       1.0000 0.25020  0.07240  0.17506  Biso   1.000  C
  C8       1.0000 0.31150  0.03400  0.13242  Biso   1.000  C
  C9       1.0000 0.40410  0.07252  0.09881  Biso   1.000  C
  C10      1.0000 0.43650  0.14990  0.11092  Biso   1.000  C
  C11      1.0000 0.37120  0.18480  0.15425  Biso   1.000  C
  C12      1.0000 0.46100  0.03498  0.04895  Biso   1.000  C
  H1       1.0000 0.17370  0.05920  0.42600  Biso   1.000  H
  H2       1.0000 0.57990  0.09060  0.36170  Biso   1.000  H
  H3       1.0000 0.46410  0.15660  0.28870  Biso   1.000  H
  H4       1.0000 0.07960  0.11920  0.34840  Biso   1.000  H
  H5       1.0000 0.17900  0.04910  0.20150  Biso   1.000  H
  H6       1.0000 0.30720  0.97670  0.12770  Biso   1.000  H
  H7       1.0000 0.49220  0.18040  0.08500  Biso   1.000  H
  H8       1.0000 0.39540  0.23490  0.16470  Biso   1.000  H
  H9       1.0000 0.83950  0.09150  0.31730  Biso   1.000  H
  H10      1.0000 0.87910  0.13130  0.16020  Biso   1.000  H
  Zn2      1.0000 0.81854  0.80002  0.24912  Biso   1.000  Zn
  P2       1.0000 0.15504  0.85787  0.24568  Biso   1.000  P
  O5       1.0000 0.02340  0.80863  0.25523  Biso   1.000  O
  O6       1.0000 0.16170  0.92891  0.28521  Biso   1.000  O
  O7       1.0000 0.14530  0.90022  0.19075  Biso   1.000  O
  O8       1.0000 0.28990  0.81014  0.25091  Biso   1.000  O
  N3       1.0000 0.73510  0.85676  0.31314  Biso   1.000  N
  N4       1.0000 0.72220  0.85293  0.18615  Biso   1.000  N
  C13      1.0000 0.81970  0.88500  0.35272  Biso   1.000  C
  C14      1.0000 0.76570  0.92490  0.39655  Biso   1.000  C
  C15      1.0000 0.61690  0.93539  0.40120  Biso   1.000  C
  C16      1.0000 0.53040  0.90800  0.35976  Biso   1.000  C
  C17      1.0000 0.59160  0.86920  0.31696  Biso   1.000  C
  C18      1.0000 0.55570  0.97192  0.45067  Biso   1.000  C
  C19      1.0000 0.74980  0.92760  0.17506  Biso   1.000  C
  C20      1.0000 0.68850  0.96600  0.13242  Biso   1.000  C
  C21      1.0000 0.59590  0.92748  0.09881  Biso   1.000  C
  C22      1.0000 0.56350  0.85010  0.11092  Biso   1.000  C
  C23      1.0000 0.62880  0.81520  0.15425  Biso   1.000  C
  C24      1.0000 0.53900  0.96502  0.04895  Biso   1.000  C
  H11      1.0000 0.82630  0.94080  0.42600  Biso   1.000  H
  H12      1.0000 0.42010  0.90940  0.36170  Biso   1.000  H
  H13      1.0000 0.53590  0.84340  0.28870  Biso   1.000  H
  H14      1.0000 0.92040  0.88080  0.34840  Biso   1.000  H
  H15      1.0000 0.82100  0.95090  0.20150  Biso   1.000  H
  H16      1.0000 0.69280  0.02330  0.12770  Biso   1.000  H
  H17      1.0000 0.50780  0.81960  0.08500  Biso   1.000  H
  H18      1.0000 0.60460  0.76510  0.16470  Biso   1.000  H
  H19      1.0000 0.16050  0.90850  0.31730  Biso   1.000  H
  H20      1.0000 0.12090  0.86870  0.16020  Biso   1.000  H
  Zn3      1.0000 0.31854  0.69998  0.25088  Biso   1.000  Zn
  P3       1.0000 0.65504  0.64213  0.25432  Biso   1.000  P
  O9       1.0000 0.52340  0.69137  0.24477  Biso   1.000  O
  O10      1.0000 0.66170  0.57109  0.21479  Biso   1.000  O
  O11      1.0000 0.64530  0.59978  0.30925  Biso   1.000  O
  O12      1.0000 0.78990  0.68986  0.24909  Biso   1.000  O
  N5       1.0000 0.23510  0.64324  0.18686  Biso   1.000  N
  N6       1.0000 0.22220  0.64707  0.31385  Biso   1.000  N
  C25      1.0000 0.31970  0.61500  0.14728  Biso   1.000  C
  C26      1.0000 0.26570  0.57510  0.10345  Biso   1.000  C
  C27      1.0000 0.11690  0.56461  0.09880  Biso   1.000  C
  C28      1.0000 0.03040  0.59200  0.14024  Biso   1.000  C
  C29      1.0000 0.09160  0.63080  0.18304  Biso   1.000  C
  C30      1.0000 0.05570  0.52808  0.04933  Biso   1.000  C
  C31      1.0000 0.24980  0.57240  0.32494  Biso   1.000  C
  C32      1.0000 0.18850  0.53400  0.36758  Biso   1.000  C
  C33      1.0000 0.09590  0.57252  0.40119  Biso   1.000  C
  C34      1.0000 0.06350  0.64990  0.38908  Biso   1.000  C
  C35      1.0000 0.12880  0.68480  0.34575  Biso   1.000  C
  C36      1.0000 0.03900  0.53498  0.45105  Biso   1.000  C
  H21      1.0000 0.32630  0.55920  0.07400  Biso   1.000  H
  H22      1.0000 0.92010  0.59060  0.13830  Biso   1.000  H
  H23      1.0000 0.03590  0.65660  0.21130  Biso   1.000  H
  H24      1.0000 0.42040  0.61920  0.15160  Biso   1.000  H
  H25      1.0000 0.32100  0.54910  0.29850  Biso   1.000  H
  H26      1.0000 0.19280  0.47670  0.37230  Biso   1.000  H
  H27      1.0000 0.00780  0.68040  0.41500  Biso   1.000  H
  H28      1.0000 0.10460  0.73490  0.33530  Biso   1.000  H
  H29      1.0000 0.66050  0.59150  0.18270  Biso   1.000  H
  H30      1.0000 0.62090  0.63130  0.33980  Biso   1.000  H
  Zn4      1.0000 0.68146  0.30002  0.25088  Biso   1.000  Zn
  P4       1.0000 0.34496  0.35787  0.25432  Biso   1.000  P
  O13      1.0000 0.47660  0.30863  0.24477  Biso   1.000  O
  O14      1.0000 0.33830  0.42891  0.21479  Biso   1.000  O
  O15      1.0000 0.35470  0.40022  0.30925  Biso   1.000  O
  O16      1.0000 0.21010  0.31014  0.24909  Biso   1.000  O
  N7       1.0000 0.76490  0.35676  0.18686  Biso   1.000  N
  N8       1.0000 0.77780  0.35293  0.31385  Biso   1.000  N
  C37      1.0000 0.68030  0.38500  0.14728  Biso   1.000  C
  C38      1.0000 0.73430  0.42490  0.10345  Biso   1.000  C
  C39      1.0000 0.88310  0.43539  0.09880  Biso   1.000  C
  C40      1.0000 0.96960  0.40800  0.14024  Biso   1.000  C
  C41      1.0000 0.90840  0.36920  0.18304  Biso   1.000  C
  C42      1.0000 0.94430  0.47192  0.04933  Biso   1.000  C
  C43      1.0000 0.75020  0.42760  0.32494  Biso   1.000  C
  C44      1.0000 0.81150  0.46600  0.36758  Biso   1.000  C
  C45      1.0000 0.90410  0.42748  0.40119  Biso   1.000  C
  C46      1.0000 0.93650  0.35010  0.38908  Biso   1.000  C
  C47      1.0000 0.87120  0.31520  0.34575  Biso   1.000  C
  C48      1.0000 0.96100  0.46502  0.45105  Biso   1.000  C
  H31      1.0000 0.67370  0.44080  0.07400  Biso   1.000  H
  H32      1.0000 0.07990  0.40940  0.13830  Biso   1.000  H
  H33      1.0000 0.96410  0.34340  0.21130  Biso   1.000  H
  H34      1.0000 0.57960  0.38080  0.15160  Biso   1.000  H
  H35      1.0000 0.67900  0.45090  0.29850  Biso   1.000  H
  H36      1.0000 0.80720  0.52330  0.37230  Biso   1.000  H
  H37      1.0000 0.99220  0.31960  0.41500  Biso   1.000  H
  H38      1.0000 0.89540  0.26510  0.33530  Biso   1.000  H
  H39      1.0000 0.33950  0.40850  0.18270  Biso   1.000  H
  H40      1.0000 0.37910  0.36870  0.33980  Biso   1.000  H
  Zn5      1.0000 0.81854  0.80002  0.75088  Biso   1.000  Zn
  P5       1.0000 0.15504  0.85787  0.75432  Biso   1.000  P
  O17      1.0000 0.02340  0.80863  0.74477  Biso   1.000  O
  O18      1.0000 0.16170  0.92891  0.71479  Biso   1.000  O
  O19      1.0000 0.14530  0.90022  0.80925  Biso   1.000  O
  O20      1.0000 0.28990  0.81014  0.74909  Biso   1.000  O
  N9       1.0000 0.73510  0.85676  0.68686  Biso   1.000  N
  N10      1.0000 0.72220  0.85293  0.81385  Biso   1.000  N
  C49      1.0000 0.81970  0.88500  0.64728  Biso   1.000  C
  C50      1.0000 0.76570  0.92490  0.60345  Biso   1.000  C
  C51      1.0000 0.61690  0.93539  0.59880  Biso   1.000  C
  C52      1.0000 0.53040  0.90800  0.64024  Biso   1.000  C
  C53      1.0000 0.59160  0.86920  0.68304  Biso   1.000  C
  C54      1.0000 0.55570  0.97192  0.54933  Biso   1.000  C
  C55      1.0000 0.74980  0.92760  0.82494  Biso   1.000  C
  C56      1.0000 0.68850  0.96600  0.86758  Biso   1.000  C
  C57      1.0000 0.59590  0.92748  0.90119  Biso   1.000  C
  C58      1.0000 0.56350  0.85010  0.88908  Biso   1.000  C
  C59      1.0000 0.62880  0.81520  0.84575  Biso   1.000  C
  C60      1.0000 0.53900  0.96502  0.95105  Biso   1.000  C
  H41      1.0000 0.82630  0.94080  0.57400  Biso   1.000  H
  H42      1.0000 0.42010  0.90940  0.63830  Biso   1.000  H
  H43      1.0000 0.53590  0.84340  0.71130  Biso   1.000  H
  H44      1.0000 0.92040  0.88080  0.65160  Biso   1.000  H
  H45      1.0000 0.82100  0.95090  0.79850  Biso   1.000  H
  H46      1.0000 0.69280  0.02330  0.87230  Biso   1.000  H
  H47      1.0000 0.50780  0.81960  0.91500  Biso   1.000  H
  H48      1.0000 0.60460  0.76510  0.83530  Biso   1.000  H
  H49      1.0000 0.16050  0.90850  0.68270  Biso   1.000  H
  H50      1.0000 0.12090  0.86870  0.83980  Biso   1.000  H
  Zn6      1.0000 0.18146  0.19998  0.75088  Biso   1.000  Zn
  P6       1.0000 0.84496  0.14213  0.75432  Biso   1.000  P
  O21      1.0000 0.97660  0.19137  0.74477  Biso   1.000  O
  O22      1.0000 0.83830  0.07109  0.71479  Biso   1.000  O
  O23      1.0000 0.85470  0.09978  0.80925  Biso   1.000  O
  O24      1.0000 0.71010  0.18986  0.74909  Biso   1.000  O
  N11      1.0000 0.26490  0.14324  0.68686  Biso   1.000  N
  N12      1.0000 0.27780  0.14707  0.81385  Biso   1.000  N
  C61      1.0000 0.18030  0.11500  0.64728  Biso   1.000  C
  C62      1.0000 0.23430  0.07510  0.60345  Biso   1.000  C
  C63      1.0000 0.38310  0.06461  0.59880  Biso   1.000  C
  C64      1.0000 0.46960  0.09200  0.64024  Biso   1.000  C
  C65      1.0000 0.40840  0.13080  0.68304  Biso   1.000  C
  C66      1.0000 0.44430  0.02808  0.54933  Biso   1.000  C
  C67      1.0000 0.25020  0.07240  0.82494  Biso   1.000  C
  C68      1.0000 0.31150  0.03400  0.86758  Biso   1.000  C
  C69      1.0000 0.40410  0.07252  0.90119  Biso   1.000  C
  C70      1.0000 0.43650  0.14990  0.88908  Biso   1.000  C
  C71      1.0000 0.37120  0.18480  0.84575  Biso   1.000  C
  C72      1.0000 0.46100  0.03498  0.95105  Biso   1.000  C
  H51      1.0000 0.17370  0.05920  0.57400  Biso   1.000  H
  H52      1.0000 0.57990  0.09060  0.63830  Biso   1.000  H
  H53      1.0000 0.46410  0.15660  0.71130  Biso   1.000  H
  H54      1.0000 0.07960  0.11920  0.65160  Biso   1.000  H
  H55      1.0000 0.17900  0.04910  0.79850  Biso   1.000  H
  H56      1.0000 0.30720  0.97670  0.87230  Biso   1.000  H
  H57      1.0000 0.49220  0.18040  0.91500  Biso   1.000  H
  H58      1.0000 0.39540  0.23490  0.83530  Biso   1.000  H
  H59      1.0000 0.83950  0.09150  0.68270  Biso   1.000  H
  H60      1.0000 0.87910  0.13130  0.83980  Biso   1.000  H
  Zn7      1.0000 0.68146  0.30002  0.74912  Biso   1.000  Zn
  P7       1.0000 0.34496  0.35787  0.74568  Biso   1.000  P
  O25      1.0000 0.47660  0.30863  0.75523  Biso   1.000  O
  O26      1.0000 0.33830  0.42891  0.78521  Biso   1.000  O
  O27      1.0000 0.35470  0.40022  0.69075  Biso   1.000  O
  O28      1.0000 0.21010  0.31014  0.75091  Biso   1.000  O
  N13      1.0000 0.76490  0.35676  0.81314  Biso   1.000  N
  N14      1.0000 0.77780  0.35293  0.68615  Biso   1.000  N
  C73      1.0000 0.68030  0.38500  0.85272  Biso   1.000  C
  C74      1.0000 0.73430  0.42490  0.89655  Biso   1.000  C
  C75      1.0000 0.88310  0.43539  0.90120  Biso   1.000  C
  C76      1.0000 0.96960  0.40800  0.85976  Biso   1.000  C
  C77      1.0000 0.90840  0.36920  0.81696  Biso   1.000  C
  C78      1.0000 0.94430  0.47192  0.95067  Biso   1.000  C
  C79      1.0000 0.75020  0.42760  0.67506  Biso   1.000  C
  C80      1.0000 0.81150  0.46600  0.63242  Biso   1.000  C
  C81      1.0000 0.90410  0.42748  0.59881  Biso   1.000  C
  C82      1.0000 0.93650  0.35010  0.61092  Biso   1.000  C
  C83      1.0000 0.87120  0.31520  0.65425  Biso   1.000  C
  C84      1.0000 0.96100  0.46502  0.54895  Biso   1.000  C
  H61      1.0000 0.67370  0.44080  0.92600  Biso   1.000  H
  H62      1.0000 0.07990  0.40940  0.86170  Biso   1.000  H
  H63      1.0000 0.96410  0.34340  0.78870  Biso   1.000  H
  H64      1.0000 0.57960  0.38080  0.84840  Biso   1.000  H
  H65      1.0000 0.67900  0.45090  0.70150  Biso   1.000  H
  H66      1.0000 0.80720  0.52330  0.62770  Biso   1.000  H
  H67      1.0000 0.99220  0.31960  0.58500  Biso   1.000  H
  H68      1.0000 0.89540  0.26510  0.66470  Biso   1.000  H
  H69      1.0000 0.33950  0.40850  0.81730  Biso   1.000  H
  H70      1.0000 0.37910  0.36870  0.66020  Biso   1.000  H
  Zn8      1.0000 0.31854  0.69998  0.74912  Biso   1.000  Zn
  P8       1.0000 0.65504  0.64213  0.74568  Biso   1.000  P
  O29      1.0000 0.52340  0.69137  0.75523  Biso   1.000  O
  O30      1.0000 0.66170  0.57109  0.78521  Biso   1.000  O
  O31      1.0000 0.64530  0.59978  0.69075  Biso   1.000  O
  O32      1.0000 0.78990  0.68986  0.75091  Biso   1.000  O
  N15      1.0000 0.23510  0.64324  0.81314  Biso   1.000  N
  N16      1.0000 0.22220  0.64707  0.68615  Biso   1.000  N
  C85      1.0000 0.31970  0.61500  0.85272  Biso   1.000  C
  C86      1.0000 0.26570  0.57510  0.89655  Biso   1.000  C
  C87      1.0000 0.11690  0.56461  0.90120  Biso   1.000  C
  C88      1.0000 0.03040  0.59200  0.85976  Biso   1.000  C
  C89      1.0000 0.09160  0.63080  0.81696  Biso   1.000  C
  C90      1.0000 0.05570  0.52808  0.95067  Biso   1.000  C
  C91      1.0000 0.24980  0.57240  0.67506  Biso   1.000  C
  C92      1.0000 0.18850  0.53400  0.63242  Biso   1.000  C
  C93      1.0000 0.09590  0.57252  0.59881  Biso   1.000  C
  C94      1.0000 0.06350  0.64990  0.61092  Biso   1.000  C
  C95      1.0000 0.12880  0.68480  0.65425  Biso   1.000  C
  C96      1.0000 0.03900  0.53498  0.54895  Biso   1.000  C
  H71      1.0000 0.32630  0.55920  0.92600  Biso   1.000  H
  H72      1.0000 0.92010  0.59060  0.86170  Biso   1.000  H
  H73      1.0000 0.03590  0.65660  0.78870  Biso   1.000  H
  H74      1.0000 0.42040  0.61920  0.84840  Biso   1.000  H
  H75      1.0000 0.32100  0.54910  0.70150  Biso   1.000  H
  H76      1.0000 0.19280  0.47670  0.62770  Biso   1.000  H
  H77      1.0000 0.00780  0.68040  0.58500  Biso   1.000  H
  H78      1.0000 0.10460  0.73490  0.66470  Biso   1.000  H
  H79      1.0000 0.66050  0.59150  0.81730  Biso   1.000  H
  H80      1.0000 0.62090  0.63130  0.66020  Biso   1.000  H
  C97      1.0000 0.39080  0.05330  0.50000  Biso   1.000  C
  H81      1.0000 0.32660  0.09140  0.50000  Biso   1.000  H
  C98      1.0000 0.60920  0.94670  0.50000  Biso   1.000  C
  H82      1.0000 0.67340  0.90860  0.50000  Biso   1.000  H
  C99      1.0000 0.10920  0.55330  0.00000  Biso   1.000  C
  H83      1.0000 0.17340  0.59140  0.00000  Biso   1.000  H
  C100     1.0000 0.89080  0.44670  0.00000  Biso   1.000  C
  H84      1.0000 0.82660  0.40860  0.00000  Biso   1.000  H
  C101     1.0000 0.42240  0.06830  0.00000  Biso   1.000  C
  H85      1.0000 0.36420  0.11380  0.00000  Biso   1.000  H
  C102     1.0000 0.57760  0.93170  0.00000  Biso   1.000  C
  H86      1.0000 0.63580  0.88620  0.00000  Biso   1.000  H
  C103     1.0000 0.07760  0.56830  0.50000  Biso   1.000  C
  H87      1.0000 0.13580  0.61380  0.50000  Biso   1.000  H
  C104     1.0000 0.92240  0.43170  0.50000  Biso   1.000  C
  H88      1.0000 0.86420  0.38620  0.50000  Biso   1.000  H
