data_NEGMUI_clean
_audit_creation_date              2014-07-02
_audit_creation_method            'Materials Studio'
_symmetry_space_group_name_H-M    'P1'
_symmetry_Int_Tables_number       1
_symmetry_cell_setting            triclinic
loop_
_symmetry_equiv_pos_as_xyz
  x,y,z
_cell_length_a                    13.0490
_cell_length_b                    13.9009
_cell_length_c                    13.9009
_cell_angle_alpha                 90.0000
_cell_angle_beta                  90.0000
_cell_angle_gamma                 90.0000
loop_
_atom_site_label
_atom_site_type_symbol
_atom_site_fract_x
_atom_site_fract_y
_atom_site_fract_z
_atom_site_U_iso_or_equiv
_atom_site_adp_type
_atom_site_occupancy
Gd1    Gd    0.88382   0.71308   0.21307   0.01267  Uiso   1.00
Gd2    Gd    0.88382   0.28692   0.78693   0.01267  Uiso   1.00
Gd3    Gd    0.11618   0.21307   0.28692   0.01267  Uiso   1.00
Gd4    Gd    0.11618   0.78693   0.71308   0.01267  Uiso   1.00
H1     H     0.76590   0.83890   0.66030   0.01267  Uiso   1.00
H2     H     0.61020   0.77810   0.71960   0.01267  Uiso   1.00
H3     H     0.45820   0.83990   0.66090   0.01267  Uiso   1.00
H4     H     0.55240   0.81650   0.31850   0.01267  Uiso   1.00
H5     H     0.76590   0.16110   0.33970   0.01267  Uiso   1.00
H6     H     0.61020   0.22190   0.28040   0.01267  Uiso   1.00
H7     H     0.45820   0.16010   0.33910   0.01267  Uiso   1.00
H8     H     0.55240   0.18350   0.68150   0.01267  Uiso   1.00
H9     H     0.23410   0.66030   0.16110   0.01267  Uiso   1.00
H10    H     0.38980   0.71960   0.22190   0.01267  Uiso   1.00
H11    H     0.54180   0.66090   0.16010   0.01267  Uiso   1.00
H12    H     0.44760   0.31850   0.18350   0.01267  Uiso   1.00
H13    H     0.23410   0.33970   0.83890   0.01267  Uiso   1.00
H14    H     0.38980   0.28040   0.77810   0.01267  Uiso   1.00
H15    H     0.54180   0.33910   0.83990   0.01267  Uiso   1.00
H16    H     0.44760   0.68150   0.81650   0.01267  Uiso   1.00
Ru1    Ru    0.83030   0.00000   0.50000   0.01267  Uiso   1.00
Ru2    Ru    0.39232   0.00000   0.50000   0.01267  Uiso   1.00
Ru3    Ru    0.16970   0.50000   0.00000   0.01267  Uiso   1.00
Ru4    Ru    0.60768   0.50000   0.00000   0.01267  Uiso   1.00
C1     C     0.61230   0.96230   0.53720   0.01267  Uiso   1.00
C2     C     0.70270   0.86290   0.63620   0.01267  Uiso   1.00
C3     C     0.61070   0.82690   0.67180   0.01267  Uiso   1.00
C4     C     0.52130   0.86350   0.63620   0.01267  Uiso   1.00
C5     C     0.84170   0.89880   0.39450   0.01267  Uiso   1.00
C6     C     0.93340   0.92520   0.57390   0.01267  Uiso   1.00
C7     C     0.37710   0.10370   0.60240   0.01267  Uiso   1.00
C8     C     0.71430   0.57210   0.06670   0.01267  Uiso   1.00
C9     C     0.65990   0.71200   0.33650   0.01267  Uiso   1.00
C10    C     0.61420   0.79130   0.29250   0.01267  Uiso   1.00
C11    C     0.65670   0.83460   0.21160   0.01267  Uiso   1.00
C12    C     0.60070   0.66530   0.42150   0.01267  Uiso   1.00
C13    C     0.59810   0.91840   0.16480   0.01267  Uiso   1.00
C14    C     0.61230   0.03770   0.46280   0.01267  Uiso   1.00
C15    C     0.70270   0.13710   0.36380   0.01267  Uiso   1.00
C16    C     0.61070   0.17310   0.32820   0.01267  Uiso   1.00
C17    C     0.52130   0.13650   0.36380   0.01267  Uiso   1.00
C18    C     0.84170   0.10120   0.60550   0.01267  Uiso   1.00
C19    C     0.93340   0.07480   0.42610   0.01267  Uiso   1.00
C20    C     0.37710   0.89630   0.39760   0.01267  Uiso   1.00
C21    C     0.71430   0.42790   0.93330   0.01267  Uiso   1.00
C22    C     0.65990   0.28800   0.66350   0.01267  Uiso   1.00
C23    C     0.61420   0.20870   0.70750   0.01267  Uiso   1.00
C24    C     0.65670   0.16540   0.78840   0.01267  Uiso   1.00
C25    C     0.60070   0.33470   0.57850   0.01267  Uiso   1.00
C26    C     0.59810   0.08160   0.83520   0.01267  Uiso   1.00
C27    C     0.38770   0.53720   0.03770   0.01267  Uiso   1.00
C28    C     0.29730   0.63620   0.13710   0.01267  Uiso   1.00
C29    C     0.38930   0.67180   0.17310   0.01267  Uiso   1.00
C30    C     0.47870   0.63620   0.13650   0.01267  Uiso   1.00
C31    C     0.15830   0.39450   0.10120   0.01267  Uiso   1.00
C32    C     0.06660   0.57390   0.07480   0.01267  Uiso   1.00
C33    C     0.62290   0.60240   0.89630   0.01267  Uiso   1.00
C34    C     0.28570   0.06670   0.42790   0.01267  Uiso   1.00
C35    C     0.34010   0.33650   0.28800   0.01267  Uiso   1.00
C36    C     0.38580   0.29250   0.20870   0.01267  Uiso   1.00
C37    C     0.34330   0.21160   0.16540   0.01267  Uiso   1.00
C38    C     0.39930   0.42150   0.33470   0.01267  Uiso   1.00
C39    C     0.40190   0.16480   0.08160   0.01267  Uiso   1.00
C40    C     0.38770   0.46280   0.96230   0.01267  Uiso   1.00
C41    C     0.29730   0.36380   0.86290   0.01267  Uiso   1.00
C42    C     0.38930   0.32820   0.82690   0.01267  Uiso   1.00
C43    C     0.47870   0.36380   0.86350   0.01267  Uiso   1.00
C44    C     0.15830   0.60550   0.89880   0.01267  Uiso   1.00
C45    C     0.06660   0.42610   0.92520   0.01267  Uiso   1.00
C46    C     0.62290   0.39760   0.10370   0.01267  Uiso   1.00
C47    C     0.28570   0.93330   0.57210   0.01267  Uiso   1.00
C48    C     0.34010   0.66350   0.71200   0.01267  Uiso   1.00
C49    C     0.38580   0.70750   0.79130   0.01267  Uiso   1.00
C50    C     0.34330   0.78840   0.83460   0.01267  Uiso   1.00
C51    C     0.39930   0.57850   0.66530   0.01267  Uiso   1.00
C52    C     0.40190   0.83520   0.91840   0.01267  Uiso   1.00
N1     N     0.70300   0.93110   0.56810   0.01267  Uiso   1.00
N2     N     0.51920   0.93170   0.56740   0.01267  Uiso   1.00
N3     N     0.77610   0.61680   0.10590   0.01267  Uiso   1.00
N4     N     0.85950   0.84460   0.33530   0.01267  Uiso   1.00
N5     N     0.99020   0.88250   0.62000   0.01267  Uiso   1.00
N6     N     0.35650   0.15890   0.66150   0.01267  Uiso   1.00
N7     N     0.70300   0.06890   0.43190   0.01267  Uiso   1.00
N8     N     0.51920   0.06830   0.43260   0.01267  Uiso   1.00
N9     N     0.77610   0.38320   0.89410   0.01267  Uiso   1.00
N10    N     0.85950   0.15540   0.66470   0.01267  Uiso   1.00
N11    N     0.99020   0.11750   0.38000   0.01267  Uiso   1.00
N12    N     0.35650   0.84110   0.33850   0.01267  Uiso   1.00
N13    N     0.29700   0.56810   0.06890   0.01267  Uiso   1.00
N14    N     0.48080   0.56740   0.06830   0.01267  Uiso   1.00
N15    N     0.22390   0.10590   0.38320   0.01267  Uiso   1.00
N16    N     0.14050   0.33530   0.15540   0.01267  Uiso   1.00
N17    N     0.00980   0.62000   0.11750   0.01267  Uiso   1.00
N18    N     0.64350   0.66150   0.84110   0.01267  Uiso   1.00
N19    N     0.29700   0.43190   0.93110   0.01267  Uiso   1.00
N20    N     0.48080   0.43260   0.93170   0.01267  Uiso   1.00
N21    N     0.22390   0.89410   0.61680   0.01267  Uiso   1.00
N22    N     0.14050   0.66470   0.84460   0.01267  Uiso   1.00
N23    N     0.00980   0.38000   0.88250   0.01267  Uiso   1.00
N24    N     0.64350   0.33850   0.15890   0.01267  Uiso   1.00
O1     O     0.74130   0.66830   0.31550   0.01267  Uiso   1.00
O2     O     0.73940   0.81420   0.16950   0.01267  Uiso   1.00
O3     O     0.74130   0.33170   0.68450   0.01267  Uiso   1.00
O4     O     0.73940   0.18580   0.83050   0.01267  Uiso   1.00
O5     O     0.25870   0.31550   0.33170   0.01267  Uiso   1.00
O6     O     0.26060   0.16950   0.18580   0.01267  Uiso   1.00
O7     O     0.25870   0.68450   0.66830   0.01267  Uiso   1.00
O8     O     0.26060   0.83050   0.81420   0.01267  Uiso   1.00
F1     F     0.66180   0.66370   0.50330   0.01267  Uiso   1.00
F2     F     0.52180   0.71310   0.45270   0.01267  Uiso   1.00
F3     F     0.58630   0.57120   0.41540   0.01267  Uiso   1.00
F4     F     0.50630   0.88380   0.13510   0.01267  Uiso   1.00
F5     F     0.64490   0.95800   0.09910   0.01267  Uiso   1.00
F6     F     0.57390   0.98290   0.23380   0.01267  Uiso   1.00
F7     F     0.66180   0.33630   0.49670   0.01267  Uiso   1.00
F8     F     0.52180   0.28690   0.54730   0.01267  Uiso   1.00
F9     F     0.58630   0.42880   0.58460   0.01267  Uiso   1.00
F10    F     0.50630   0.11620   0.86490   0.01267  Uiso   1.00
F11    F     0.64490   0.04200   0.90090   0.01267  Uiso   1.00
F12    F     0.57390   0.01710   0.76620   0.01267  Uiso   1.00
F13    F     0.33820   0.50330   0.33630   0.01267  Uiso   1.00
F14    F     0.47820   0.45270   0.28690   0.01267  Uiso   1.00
F15    F     0.41370   0.41540   0.42880   0.01267  Uiso   1.00
F16    F     0.49370   0.13510   0.11620   0.01267  Uiso   1.00
F17    F     0.35510   0.09910   0.04200   0.01267  Uiso   1.00
F18    F     0.42610   0.23380   0.01710   0.01267  Uiso   1.00
F19    F     0.33820   0.49670   0.66370   0.01267  Uiso   1.00
F20    F     0.47820   0.54730   0.71310   0.01267  Uiso   1.00
F21    F     0.41370   0.58460   0.57120   0.01267  Uiso   1.00
F22    F     0.49370   0.86490   0.88380   0.01267  Uiso   1.00
F23    F     0.35510   0.90090   0.95800   0.01267  Uiso   1.00
F24    F     0.42610   0.76620   0.98290   0.01267  Uiso   1.00
