data_NEHZIK_clean
_audit_creation_date              2014-07-02
_audit_creation_method            'Materials Studio'
_symmetry_space_group_name_H-M    'P1'
_symmetry_Int_Tables_number       1
_symmetry_cell_setting            triclinic
loop_
_symmetry_equiv_pos_as_xyz
  x,y,z
_cell_length_a                    17.1193
_cell_length_b                    17.1193
_cell_length_c                    17.1193
_cell_angle_alpha                 98.2857
_cell_angle_beta                  115.3370
_cell_angle_gamma                 115.3370
loop_
_atom_site_label
_atom_site_type_symbol
_atom_site_fract_x
_atom_site_fract_y
_atom_site_fract_z
_atom_site_U_iso_or_equiv
_atom_site_adp_type
_atom_site_occupancy
Zn1    Zn    0.38449   0.78687   0.84800   0.01267  Uiso   1.00
Zn2    Zn    0.88449   0.03649   0.59762   0.01267  Uiso   1.00
H1     H     0.32400   0.88610   0.96090   0.01267  Uiso   1.00
H2     H     0.22240   0.81580   0.69280   0.01267  Uiso   1.00
H3     H     0.09640   0.88300   0.64480   0.01267  Uiso   1.00
H4     H     0.10980   0.98170   0.79570   0.01267  Uiso   1.00
H5     H     0.53190   0.99020   0.87550   0.01267  Uiso   1.00
H6     H     0.47180   0.75860   0.71480   0.01267  Uiso   1.00
H7     H     0.61490   0.83720   0.66850   0.01267  Uiso   1.00
H8     H     0.71240   0.02970   0.73350   0.01267  Uiso   1.00
H9     H     0.21150   0.93660   0.89470   0.01267  Uiso   1.00
H10    H     0.64160   0.03240   0.82000   0.01267  Uiso   1.00
H11    H     0.82400   0.86310   0.43790   0.01267  Uiso   1.00
H12    H     0.72240   0.02960   0.40660   0.01267  Uiso   1.00
H13    H     0.59640   0.95160   0.21340   0.01267  Uiso   1.00
H14    H     0.60980   0.81410   0.12810   0.01267  Uiso   1.00
H15    H     0.03190   0.15640   0.54170   0.01267  Uiso   1.00
H16    H     0.97180   0.25700   0.71320   0.01267  Uiso   1.00
H17    H     0.11490   0.44640   0.77770   0.01267  Uiso   1.00
H18    H     0.21240   0.47890   0.68270   0.01267  Uiso   1.00
H19    H     0.71150   0.81680   0.27490   0.01267  Uiso   1.00
H20    H     0.14160   0.32160   0.60920   0.01267  Uiso   1.00
C1     C     0.28970   0.87873   0.89843   0.01267  Uiso   1.00
C2     C     0.23370   0.84052   0.75142   0.01267  Uiso   1.00
C3     C     0.18930   0.88444   0.76894   0.01267  Uiso   1.00
C4     C     0.12020   0.90632   0.70832   0.01267  Uiso   1.00
C5     C     0.08670   0.95577   0.73267   0.01267  Uiso   1.00
C6     C     0.01330   0.97068   0.66198   0.01267  Uiso   1.00
C7     C     0.53370   0.94862   0.83592   0.01267  Uiso   1.00
C8     C     0.50100   0.82206   0.74766   0.01267  Uiso   1.00
C9     C     0.57690   0.89505   0.74835   0.01267  Uiso   1.00
C10    C     0.62960   0.89507   0.70127   0.01267  Uiso   1.00
C11    C     0.69730   0.97144   0.70114   0.01267  Uiso   1.00
C12    C     0.75000   0.96853   0.65193   0.01267  Uiso   1.00
C13    C     0.78970   0.89127   0.41097   0.01267  Uiso   1.00
C14    C     0.73370   0.98228   0.39318   0.01267  Uiso   1.00
C15    C     0.68930   0.92036   0.30486   0.01267  Uiso   1.00
C16    C     0.62020   0.91188   0.21388   0.01267  Uiso   1.00
C17    C     0.58670   0.85403   0.13093   0.01267  Uiso   1.00
C18    C     0.51330   0.85132   0.04262   0.01267  Uiso   1.00
C19    C     0.03370   0.19778   0.58508   0.01267  Uiso   1.00
C20    C     0.00100   0.25334   0.67894   0.01267  Uiso   1.00
C21    C     0.07690   0.32855   0.68185   0.01267  Uiso   1.00
C22    C     0.12960   0.42833   0.73453   0.01267  Uiso   1.00
C23    C     0.19730   0.49616   0.72586   0.01267  Uiso   1.00
C24    C     0.25000   0.59807   0.78147   0.01267  Uiso   1.00
N1     N     0.29750   0.83800   0.83262   0.01267  Uiso   1.00
N2     N     0.22653   0.90794   0.86355   0.01267  Uiso   1.00
N3     N     0.47388   0.85603   0.80295   0.01267  Uiso   1.00
N4     N     0.59645   0.97520   0.80595   0.01267  Uiso   1.00
N5     N     0.79750   0.96488   0.45950   0.01267  Uiso   1.00
N6     N     0.72653   0.86298   0.31859   0.01267  Uiso   1.00
N7     N     0.97388   0.17093   0.61785   0.01267  Uiso   1.00
N8     N     0.09645   0.29050   0.62125   0.01267  Uiso   1.00
O1     O     0.98491   0.01971   0.69348   0.01267  Uiso   1.00
O2     O     0.98248   0.94072   0.57880   0.01267  Uiso   1.00
O3     O     0.80798   0.04748   0.65386   0.01267  Uiso   1.00
O4     O     0.73724   0.89336   0.61238   0.01267  Uiso   1.00
O5     O     0.48491   0.79143   0.96520   0.01267  Uiso   1.00
O6     O     0.48248   0.90368   0.04176   0.01267  Uiso   1.00
O7     O     0.30798   0.65412   0.76050   0.01267  Uiso   1.00
O8     O     0.23724   0.62486   0.84388   0.01267  Uiso   1.00
Zn3    Zn    0.11551   0.96351   0.40238   0.01267  Uiso   1.00
Zn4    Zn    0.61551   0.21313   0.15200   0.01267  Uiso   1.00
H21    H     0.17600   0.13690   0.56210   0.01267  Uiso   1.00
H22    H     0.27760   0.97040   0.59340   0.01267  Uiso   1.00
H23    H     0.40360   0.04840   0.78660   0.01267  Uiso   1.00
H24    H     0.39020   0.18590   0.87190   0.01267  Uiso   1.00
H25    H     0.96810   0.84360   0.45830   0.01267  Uiso   1.00
H26    H     0.02820   0.74300   0.28680   0.01267  Uiso   1.00
H27    H     0.88510   0.55360   0.22230   0.01267  Uiso   1.00
H28    H     0.78760   0.52110   0.31730   0.01267  Uiso   1.00
H29    H     0.28850   0.18320   0.72510   0.01267  Uiso   1.00
H30    H     0.85840   0.67840   0.39080   0.01267  Uiso   1.00
H31    H     0.67600   0.11390   0.03910   0.01267  Uiso   1.00
H32    H     0.77760   0.18420   0.30720   0.01267  Uiso   1.00
H33    H     0.90360   0.11700   0.35520   0.01267  Uiso   1.00
H34    H     0.89020   0.01830   0.20430   0.01267  Uiso   1.00
H35    H     0.46810   0.00980   0.12450   0.01267  Uiso   1.00
H36    H     0.52820   0.24140   0.28520   0.01267  Uiso   1.00
H37    H     0.38510   0.16280   0.33150   0.01267  Uiso   1.00
H38    H     0.28760   0.97030   0.26650   0.01267  Uiso   1.00
H39    H     0.78850   0.06340   0.10530   0.01267  Uiso   1.00
H40    H     0.35840   0.96760   0.18000   0.01267  Uiso   1.00
C25    C     0.21030   0.10873   0.58903   0.01267  Uiso   1.00
C26    C     0.26630   0.01772   0.60682   0.01267  Uiso   1.00
C27    C     0.31070   0.07964   0.69514   0.01267  Uiso   1.00
C28    C     0.37980   0.08812   0.78612   0.01267  Uiso   1.00
C29    C     0.41330   0.14597   0.86907   0.01267  Uiso   1.00
C30    C     0.48670   0.14868   0.95738   0.01267  Uiso   1.00
C31    C     0.96630   0.80222   0.41492   0.01267  Uiso   1.00
C32    C     0.99900   0.74666   0.32106   0.01267  Uiso   1.00
C33    C     0.92310   0.67145   0.31815   0.01267  Uiso   1.00
C34    C     0.87040   0.57167   0.26547   0.01267  Uiso   1.00
C35    C     0.80270   0.50384   0.27414   0.01267  Uiso   1.00
C36    C     0.75000   0.40193   0.21853   0.01267  Uiso   1.00
C37    C     0.71030   0.12127   0.10157   0.01267  Uiso   1.00
C38    C     0.76630   0.15948   0.24858   0.01267  Uiso   1.00
C39    C     0.81070   0.11556   0.23106   0.01267  Uiso   1.00
C40    C     0.87980   0.09368   0.29168   0.01267  Uiso   1.00
C41    C     0.91330   0.04423   0.26733   0.01267  Uiso   1.00
C42    C     0.98670   0.02932   0.33802   0.01267  Uiso   1.00
C43    C     0.46630   0.05138   0.16408   0.01267  Uiso   1.00
C44    C     0.49900   0.17794   0.25234   0.01267  Uiso   1.00
C45    C     0.42310   0.10495   0.25165   0.01267  Uiso   1.00
C46    C     0.37040   0.10493   0.29873   0.01267  Uiso   1.00
C47    C     0.30270   0.02856   0.29886   0.01267  Uiso   1.00
C48    C     0.25000   0.03147   0.34807   0.01267  Uiso   1.00
N9     N     0.20250   0.03512   0.54050   0.01267  Uiso   1.00
N10    N     0.27347   0.13702   0.68141   0.01267  Uiso   1.00
N11    N     0.02612   0.82907   0.38215   0.01267  Uiso   1.00
N12    N     0.90355   0.70950   0.37875   0.01267  Uiso   1.00
N13    N     0.70250   0.16200   0.16738   0.01267  Uiso   1.00
N14    N     0.77347   0.09206   0.13645   0.01267  Uiso   1.00
N15    N     0.52612   0.14397   0.19705   0.01267  Uiso   1.00
N16    N     0.40355   0.02480   0.19405   0.01267  Uiso   1.00
O9     O     0.51509   0.20857   0.03480   0.01267  Uiso   1.00
O10    O     0.51752   0.09632   0.95824   0.01267  Uiso   1.00
O11    O     0.69202   0.34588   0.23950   0.01267  Uiso   1.00
O12    O     0.76276   0.37514   0.15612   0.01267  Uiso   1.00
O13    O     0.01509   0.98029   0.30652   0.01267  Uiso   1.00
O14    O     0.01752   0.05928   0.42120   0.01267  Uiso   1.00
O15    O     0.19202   0.95252   0.34614   0.01267  Uiso   1.00
O16    O     0.26276   0.10664   0.38762   0.01267  Uiso   1.00
Zn5    Zn    0.06113   0.84800   0.96351   0.01267  Uiso   1.00
Zn6    Zn    0.56113   0.59762   0.21313   0.01267  Uiso   1.00
H41    H     0.07480   0.96090   0.13690   0.01267  Uiso   1.00
H42    H     0.87700   0.69280   0.97040   0.01267  Uiso   1.00
H43    H     0.76180   0.64480   0.04840   0.01267  Uiso   1.00
H44    H     0.81400   0.79570   0.18590   0.01267  Uiso   1.00
H45    H     0.88530   0.87550   0.84360   0.01267  Uiso   1.00
H46    H     0.95620   0.71480   0.74300   0.01267  Uiso   1.00
H47    H     0.83130   0.66850   0.55360   0.01267  Uiso   1.00
H48    H     0.70380   0.73350   0.52110   0.01267  Uiso   1.00
H49    H     0.95810   0.89470   0.18320   0.01267  Uiso   1.00
H50    H     0.78760   0.82000   0.67840   0.01267  Uiso   1.00
H51    H     0.57480   0.43790   0.11390   0.01267  Uiso   1.00
H52    H     0.37700   0.40660   0.18420   0.01267  Uiso   1.00
H53    H     0.26180   0.21340   0.11700   0.01267  Uiso   1.00
H54    H     0.31400   0.12810   0.01830   0.01267  Uiso   1.00
H55    H     0.38530   0.54170   0.00980   0.01267  Uiso   1.00
H56    H     0.45620   0.71320   0.24140   0.01267  Uiso   1.00
H57    H     0.33130   0.77770   0.16280   0.01267  Uiso   1.00
H58    H     0.20380   0.68270   0.97030   0.01267  Uiso   1.00
H59    H     0.45810   0.27490   0.06340   0.01267  Uiso   1.00
H60    H     0.28760   0.60920   0.96760   0.01267  Uiso   1.00
C49    C     0.01970   0.89843   0.10873   0.01267  Uiso   1.00
C50    C     0.91090   0.75142   0.01772   0.01267  Uiso   1.00
C51    C     0.88450   0.76894   0.07964   0.01267  Uiso   1.00
C52    C     0.80200   0.70832   0.08812   0.01267  Uiso   1.00
C53    C     0.77690   0.73267   0.14597   0.01267  Uiso   1.00
C54    C     0.69130   0.66198   0.14868   0.01267  Uiso   1.00
C55    C     0.88730   0.83592   0.80222   0.01267  Uiso   1.00
C56    C     0.92560   0.74766   0.74666   0.01267  Uiso   1.00
C57    C     0.85330   0.74835   0.67145   0.01267  Uiso   1.00
C58    C     0.80620   0.70127   0.57167   0.01267  Uiso   1.00
C59    C     0.72970   0.70114   0.50384   0.01267  Uiso   1.00
C60    C     0.68340   0.65193   0.40193   0.01267  Uiso   1.00
C61    C     0.51970   0.41097   0.12127   0.01267  Uiso   1.00
C62    C     0.41090   0.39318   0.15948   0.01267  Uiso   1.00
C63    C     0.38450   0.30486   0.11556   0.01267  Uiso   1.00
C64    C     0.30200   0.21388   0.09368   0.01267  Uiso   1.00
C65    C     0.27690   0.13093   0.04423   0.01267  Uiso   1.00
C66    C     0.19130   0.04262   0.02932   0.01267  Uiso   1.00
C67    C     0.38730   0.58508   0.05138   0.01267  Uiso   1.00
C68    C     0.42560   0.67894   0.17794   0.01267  Uiso   1.00
C69    C     0.35330   0.68185   0.10495   0.01267  Uiso   1.00
C70    C     0.30620   0.73453   0.10493   0.01267  Uiso   1.00
C71    C     0.22970   0.72586   0.02856   0.01267  Uiso   1.00
C72    C     0.18340   0.78147   0.03147   0.01267  Uiso   1.00
N17    N     0.99462   0.83262   0.03512   0.01267  Uiso   1.00
N18    N     0.95561   0.86355   0.13702   0.01267  Uiso   1.00
N19    N     0.94692   0.80295   0.82907   0.01267  Uiso   1.00
N20    N     0.83075   0.80595   0.70950   0.01267  Uiso   1.00
N21    N     0.49462   0.45950   0.16200   0.01267  Uiso   1.00
N22    N     0.45561   0.31859   0.09206   0.01267  Uiso   1.00
N23    N     0.44692   0.61785   0.14397   0.01267  Uiso   1.00
N24    N     0.33075   0.62125   0.02480   0.01267  Uiso   1.00
O17    O     0.67377   0.69348   0.20857   0.01267  Uiso   1.00
O18    O     0.63808   0.57880   0.09632   0.01267  Uiso   1.00
O19    O     0.60638   0.65386   0.34588   0.01267  Uiso   1.00
O20    O     0.71902   0.61238   0.37514   0.01267  Uiso   1.00
O21    O     0.17377   0.96520   0.98029   0.01267  Uiso   1.00
O22    O     0.13808   0.04176   0.05928   0.01267  Uiso   1.00
O23    O     0.10638   0.76050   0.95252   0.01267  Uiso   1.00
O24    O     0.21902   0.84388   0.10664   0.01267  Uiso   1.00
Zn7    Zn    0.43887   0.40238   0.78687   0.01267  Uiso   1.00
Zn8    Zn    0.93887   0.15200   0.03649   0.01267  Uiso   1.00
H61    H     0.42520   0.56210   0.88610   0.01267  Uiso   1.00
H62    H     0.62300   0.59340   0.81580   0.01267  Uiso   1.00
H63    H     0.73820   0.78660   0.88300   0.01267  Uiso   1.00
H64    H     0.68600   0.87190   0.98170   0.01267  Uiso   1.00
H65    H     0.61470   0.45830   0.99020   0.01267  Uiso   1.00
H66    H     0.54380   0.28680   0.75860   0.01267  Uiso   1.00
H67    H     0.66870   0.22230   0.83720   0.01267  Uiso   1.00
H68    H     0.79620   0.31730   0.02970   0.01267  Uiso   1.00
H69    H     0.54190   0.72510   0.93660   0.01267  Uiso   1.00
H70    H     0.71240   0.39080   0.03240   0.01267  Uiso   1.00
H71    H     0.92520   0.03910   0.86310   0.01267  Uiso   1.00
H72    H     0.12300   0.30720   0.02960   0.01267  Uiso   1.00
H73    H     0.23820   0.35520   0.95160   0.01267  Uiso   1.00
H74    H     0.18600   0.20430   0.81410   0.01267  Uiso   1.00
H75    H     0.11470   0.12450   0.15640   0.01267  Uiso   1.00
H76    H     0.04380   0.28520   0.25700   0.01267  Uiso   1.00
H77    H     0.16870   0.33150   0.44640   0.01267  Uiso   1.00
H78    H     0.29620   0.26650   0.47890   0.01267  Uiso   1.00
H79    H     0.04190   0.10530   0.81680   0.01267  Uiso   1.00
H80    H     0.21240   0.18000   0.32160   0.01267  Uiso   1.00
C73    C     0.48030   0.58903   0.87873   0.01267  Uiso   1.00
C74    C     0.58910   0.60682   0.84052   0.01267  Uiso   1.00
C75    C     0.61550   0.69514   0.88444   0.01267  Uiso   1.00
C76    C     0.69800   0.78612   0.90632   0.01267  Uiso   1.00
C77    C     0.72310   0.86907   0.95577   0.01267  Uiso   1.00
C78    C     0.80870   0.95738   0.97068   0.01267  Uiso   1.00
C79    C     0.61270   0.41492   0.94862   0.01267  Uiso   1.00
C80    C     0.57440   0.32106   0.82206   0.01267  Uiso   1.00
C81    C     0.64670   0.31815   0.89505   0.01267  Uiso   1.00
C82    C     0.69380   0.26547   0.89507   0.01267  Uiso   1.00
C83    C     0.77030   0.27414   0.97144   0.01267  Uiso   1.00
C84    C     0.81660   0.21853   0.96853   0.01267  Uiso   1.00
C85    C     0.98030   0.10157   0.89127   0.01267  Uiso   1.00
C86    C     0.08910   0.24858   0.98228   0.01267  Uiso   1.00
C87    C     0.11550   0.23106   0.92036   0.01267  Uiso   1.00
C88    C     0.19800   0.29168   0.91188   0.01267  Uiso   1.00
C89    C     0.22310   0.26733   0.85403   0.01267  Uiso   1.00
C90    C     0.30870   0.33802   0.85132   0.01267  Uiso   1.00
C91    C     0.11270   0.16408   0.19778   0.01267  Uiso   1.00
C92    C     0.07440   0.25234   0.25334   0.01267  Uiso   1.00
C93    C     0.14670   0.25165   0.32855   0.01267  Uiso   1.00
C94    C     0.19380   0.29873   0.42833   0.01267  Uiso   1.00
C95    C     0.27030   0.29886   0.49616   0.01267  Uiso   1.00
C96    C     0.31660   0.34807   0.59807   0.01267  Uiso   1.00
N25    N     0.50538   0.54050   0.83800   0.01267  Uiso   1.00
N26    N     0.54439   0.68141   0.90794   0.01267  Uiso   1.00
N27    N     0.55308   0.38215   0.85603   0.01267  Uiso   1.00
N28    N     0.66925   0.37875   0.97520   0.01267  Uiso   1.00
N29    N     0.00538   0.16738   0.96488   0.01267  Uiso   1.00
N30    N     0.04439   0.13645   0.86298   0.01267  Uiso   1.00
N31    N     0.05308   0.19705   0.17093   0.01267  Uiso   1.00
N32    N     0.16925   0.19405   0.29050   0.01267  Uiso   1.00
O25    O     0.82623   0.03480   0.01971   0.01267  Uiso   1.00
O26    O     0.86192   0.95824   0.94072   0.01267  Uiso   1.00
O27    O     0.89362   0.23950   0.04748   0.01267  Uiso   1.00
O28    O     0.78098   0.15612   0.89336   0.01267  Uiso   1.00
O29    O     0.32623   0.30652   0.79143   0.01267  Uiso   1.00
O30    O     0.36192   0.42120   0.90368   0.01267  Uiso   1.00
O31    O     0.39362   0.34614   0.65412   0.01267  Uiso   1.00
O32    O     0.28098   0.38762   0.62486   0.01267  Uiso   1.00
