data_NEJSEC_clean
_audit_creation_date              2014-07-02
_audit_creation_method            'Materials Studio'
_symmetry_space_group_name_H-M    'P1'
_symmetry_Int_Tables_number       1
_symmetry_cell_setting            triclinic
loop_
_symmetry_equiv_pos_as_xyz
  x,y,z
_cell_length_a                    10.8044
_cell_length_b                    14.0530
_cell_length_c                    21.6780
_cell_angle_alpha                 89.8780
_cell_angle_beta                  83.3630
_cell_angle_gamma                 88.9810
loop_
_atom_site_label
_atom_site_type_symbol
_atom_site_fract_x
_atom_site_fract_y
_atom_site_fract_z
_atom_site_U_iso_or_equiv
_atom_site_adp_type
_atom_site_occupancy
Cu1    Cu    0.71846   0.29889   0.67165   0.01267  Uiso   1.00
Cu2    Cu    0.72322   0.10993   0.67164   0.01267  Uiso   1.00
Cu3    Cu    0.73297   0.29646   0.17047   0.01267  Uiso   1.00
Cu4    Cu    0.73731   0.10729   0.17126   0.01267  Uiso   1.00
H1     H     0.77230   0.34390   0.86380   0.01267  Uiso   1.00
H2     H     0.78640   0.34300   0.96990   0.01267  Uiso   1.00
H3     H     0.68070   0.07180   0.97930   0.01267  Uiso   1.00
H4     H     0.66870   0.07150   0.87410   0.01267  Uiso   1.00
H5     H     0.32690   0.05950   0.68650   0.01267  Uiso   1.00
H6     H     0.11320   0.06010   0.68550   0.01267  Uiso   1.00
H7     H     0.11450   0.34380   0.65590   0.01267  Uiso   1.00
H8     H     0.32800   0.34390   0.65860   0.01267  Uiso   1.00
H9     H     0.79780   0.07640   0.47150   0.01267  Uiso   1.00
H10    H     0.78870   0.07310   0.36620   0.01267  Uiso   1.00
H11    H     0.68490   0.34760   0.36970   0.01267  Uiso   1.00
H12    H     0.68450   0.34770   0.47700   0.01267  Uiso   1.00
H13    H     0.34110   0.05630   0.18890   0.01267  Uiso   1.00
H14    H     0.12960   0.05480   0.18290   0.01267  Uiso   1.00
H15    H     0.12900   0.33760   0.15140   0.01267  Uiso   1.00
H16    H     0.34120   0.33950   0.15570   0.01267  Uiso   1.00
H17    H     0.90580   0.93710   0.66280   0.01267  Uiso   1.00
H18    H     0.91180   0.77360   0.66280   0.01267  Uiso   1.00
H19    H     0.53790   0.77900   0.66930   0.01267  Uiso   1.00
H20    H     0.54420   0.94200   0.67150   0.01267  Uiso   1.00
H21    H     0.89300   0.45940   0.11940   0.01267  Uiso   1.00
H22    H     0.90250   0.62240   0.11610   0.01267  Uiso   1.00
H23    H     0.56950   0.63250   0.22140   0.01267  Uiso   1.00
H24    H     0.57430   0.46860   0.22240   0.01267  Uiso   1.00
H25    H     0.55750   0.93970   0.17480   0.01267  Uiso   1.00
H26    H     0.55140   0.77660   0.17400   0.01267  Uiso   1.00
H27    H     0.92570   0.77070   0.15890   0.01267  Uiso   1.00
H28    H     0.91960   0.93450   0.16100   0.01267  Uiso   1.00
H29    H     0.57480   0.46860   0.62470   0.01267  Uiso   1.00
H30    H     0.57420   0.63140   0.61900   0.01267  Uiso   1.00
H31    H     0.86900   0.62820   0.71760   0.01267  Uiso   1.00
H32    H     0.85690   0.46520   0.72090   0.01267  Uiso   1.00
C1     C     0.71280   0.20650   0.78883   0.01267  Uiso   1.00
C2     C     0.48690   0.20160   0.67432   0.01267  Uiso   1.00
C3     C     0.73420   0.21040   0.55425   0.01267  Uiso   1.00
C4     C     0.95430   0.20190   0.66857   0.01267  Uiso   1.00
C5     C     0.72930   0.20580   0.28786   0.01267  Uiso   1.00
C6     C     0.50050   0.20040   0.17544   0.01267  Uiso   1.00
C7     C     0.74070   0.20710   0.05361   0.01267  Uiso   1.00
C8     C     0.96940   0.19600   0.16573   0.01267  Uiso   1.00
C9     C     0.71970   0.20720   0.85755   0.01267  Uiso   1.00
C10    C     0.75420   0.28820   0.88696   0.01267  Uiso   1.00
C11    C     0.76200   0.28760   0.95062   0.01267  Uiso   1.00
C12    C     0.73510   0.20860   0.98548   0.01267  Uiso   1.00
C13    C     0.69980   0.12720   0.95601   0.01267  Uiso   1.00
C14    C     0.69260   0.12720   0.89322   0.01267  Uiso   1.00
C15    C     0.34900   0.20120   0.67234   0.01267  Uiso   1.00
C16    C     0.28400   0.11690   0.68043   0.01267  Uiso   1.00
C17    C     0.15700   0.11720   0.67952   0.01267  Uiso   1.00
C18    C     0.09260   0.20210   0.66981   0.01267  Uiso   1.00
C19    C     0.15750   0.28650   0.66209   0.01267  Uiso   1.00
C20    C     0.28450   0.28650   0.66354   0.01267  Uiso   1.00
C21    C     0.73610   0.21130   0.48521   0.01267  Uiso   1.00
C22    C     0.77100   0.13100   0.45138   0.01267  Uiso   1.00
C23    C     0.76710   0.12960   0.38827   0.01267  Uiso   1.00
C24    C     0.73260   0.20870   0.35674   0.01267  Uiso   1.00
C25    C     0.70460   0.29130   0.39024   0.01267  Uiso   1.00
C26    C     0.70540   0.29140   0.45447   0.01267  Uiso   1.00
C27    C     0.36340   0.19850   0.17292   0.01267  Uiso   1.00
C28    C     0.29840   0.11310   0.18111   0.01267  Uiso   1.00
C29    C     0.17260   0.11230   0.17780   0.01267  Uiso   1.00
C30    C     0.10790   0.19630   0.16695   0.01267  Uiso   1.00
C31    C     0.17210   0.28080   0.15884   0.01267  Uiso   1.00
C32    C     0.29840   0.28190   0.16157   0.01267  Uiso   1.00
C33    C     0.83030   0.90440   0.66466   0.01267  Uiso   1.00
C34    C     0.83480   0.80620   0.66435   0.01267  Uiso   1.00
C35    C     0.72470   0.75580   0.66636   0.01267  Uiso   1.00
C36    C     0.61490   0.80930   0.66847   0.01267  Uiso   1.00
C37    C     0.61970   0.90720   0.66940   0.01267  Uiso   1.00
C38    C     0.82730   0.49520   0.14079   0.01267  Uiso   1.00
C39    C     0.83350   0.59290   0.13818   0.01267  Uiso   1.00
C40    C     0.73690   0.64760   0.16844   0.01267  Uiso   1.00
C41    C     0.63760   0.59890   0.20038   0.01267  Uiso   1.00
C42    C     0.64120   0.50080   0.20057   0.01267  Uiso   1.00
C43    C     0.63310   0.90490   0.17162   0.01267  Uiso   1.00
C44    C     0.62870   0.80680   0.17130   0.01267  Uiso   1.00
C45    C     0.73710   0.75320   0.16701   0.01267  Uiso   1.00
C46    C     0.84860   0.80360   0.16250   0.01267  Uiso   1.00
C47    C     0.84410   0.90170   0.16346   0.01267  Uiso   1.00
C48    C     0.63510   0.50190   0.64350   0.01267  Uiso   1.00
C49    C     0.63400   0.59930   0.63990   0.01267  Uiso   1.00
C50    C     0.72330   0.65080   0.66775   0.01267  Uiso   1.00
C51    C     0.80730   0.59760   0.69810   0.01267  Uiso   1.00
C52    C     0.80000   0.49980   0.69950   0.01267  Uiso   1.00
N1     N     0.72460   0.95524   0.66749   0.01267  Uiso   1.00
N2     N     0.73510   0.44931   0.17132   0.01267  Uiso   1.00
N3     N     0.73830   0.95232   0.16771   0.01267  Uiso   1.00
N4     N     0.71700   0.45228   0.67214   0.01267  Uiso   1.00
O1     O     0.72030   0.28564   0.76179   0.01267  Uiso   1.00
O2     O     0.70021   0.12729   0.76380   0.01267  Uiso   1.00
O3     O     0.53635   0.28073   0.68051   0.01267  Uiso   1.00
O4     O     0.54342   0.12198   0.67016   0.01267  Uiso   1.00
O5     O     0.71886   0.28962   0.58157   0.01267  Uiso   1.00
O6     O     0.74690   0.13116   0.58017   0.01267  Uiso   1.00
O7     O     0.90066   0.28110   0.66225   0.01267  Uiso   1.00
O8     O     0.90141   0.12246   0.67383   0.01267  Uiso   1.00
O9     O     0.71561   0.28464   0.26114   0.01267  Uiso   1.00
O10    O     0.73970   0.12626   0.26207   0.01267  Uiso   1.00
O11    O     0.55240   0.27963   0.17153   0.01267  Uiso   1.00
O12    O     0.55595   0.12097   0.18122   0.01267  Uiso   1.00
O13    O     0.74970   0.28660   0.07971   0.01267  Uiso   1.00
O14    O     0.73500   0.12780   0.08057   0.01267  Uiso   1.00
O15    O     0.91385   0.27580   0.16937   0.01267  Uiso   1.00
O16    O     0.91793   0.11654   0.16210   0.01267  Uiso   1.00
Cu5    Cu    0.28154   0.70111   0.32835   0.01267  Uiso   1.00
Cu6    Cu    0.27678   0.89007   0.32836   0.01267  Uiso   1.00
Cu7    Cu    0.26703   0.70354   0.82953   0.01267  Uiso   1.00
Cu8    Cu    0.26269   0.89271   0.82874   0.01267  Uiso   1.00
H33    H     0.22770   0.65610   0.13620   0.01267  Uiso   1.00
H34    H     0.21360   0.65700   0.03010   0.01267  Uiso   1.00
H35    H     0.31930   0.92820   0.02070   0.01267  Uiso   1.00
H36    H     0.33130   0.92850   0.12590   0.01267  Uiso   1.00
H37    H     0.67310   0.94050   0.31350   0.01267  Uiso   1.00
H38    H     0.88680   0.93990   0.31450   0.01267  Uiso   1.00
H39    H     0.88550   0.65620   0.34410   0.01267  Uiso   1.00
H40    H     0.67200   0.65610   0.34140   0.01267  Uiso   1.00
H41    H     0.20220   0.92360   0.52850   0.01267  Uiso   1.00
H42    H     0.21130   0.92690   0.63380   0.01267  Uiso   1.00
H43    H     0.31510   0.65240   0.63030   0.01267  Uiso   1.00
H44    H     0.31550   0.65230   0.52300   0.01267  Uiso   1.00
H45    H     0.65890   0.94370   0.81110   0.01267  Uiso   1.00
H46    H     0.87040   0.94520   0.81710   0.01267  Uiso   1.00
H47    H     0.87100   0.66240   0.84860   0.01267  Uiso   1.00
H48    H     0.65880   0.66050   0.84430   0.01267  Uiso   1.00
H49    H     0.09420   0.06290   0.33720   0.01267  Uiso   1.00
H50    H     0.08820   0.22640   0.33720   0.01267  Uiso   1.00
H51    H     0.46210   0.22100   0.33070   0.01267  Uiso   1.00
H52    H     0.45580   0.05800   0.32850   0.01267  Uiso   1.00
H53    H     0.10700   0.54060   0.88060   0.01267  Uiso   1.00
H54    H     0.09750   0.37760   0.88390   0.01267  Uiso   1.00
H55    H     0.43050   0.36750   0.77860   0.01267  Uiso   1.00
H56    H     0.42570   0.53140   0.77760   0.01267  Uiso   1.00
H57    H     0.44250   0.06030   0.82520   0.01267  Uiso   1.00
H58    H     0.44860   0.22340   0.82600   0.01267  Uiso   1.00
H59    H     0.07430   0.22930   0.84110   0.01267  Uiso   1.00
H60    H     0.08040   0.06550   0.83900   0.01267  Uiso   1.00
H61    H     0.42520   0.53140   0.37530   0.01267  Uiso   1.00
H62    H     0.42580   0.36860   0.38100   0.01267  Uiso   1.00
H63    H     0.13100   0.37180   0.28240   0.01267  Uiso   1.00
H64    H     0.14310   0.53480   0.27910   0.01267  Uiso   1.00
C53    C     0.28720   0.79350   0.21117   0.01267  Uiso   1.00
C54    C     0.51310   0.79840   0.32568   0.01267  Uiso   1.00
C55    C     0.26580   0.78960   0.44575   0.01267  Uiso   1.00
C56    C     0.04570   0.79810   0.33143   0.01267  Uiso   1.00
C57    C     0.27070   0.79420   0.71214   0.01267  Uiso   1.00
C58    C     0.49950   0.79960   0.82456   0.01267  Uiso   1.00
C59    C     0.25930   0.79290   0.94639   0.01267  Uiso   1.00
C60    C     0.03060   0.80400   0.83427   0.01267  Uiso   1.00
C61    C     0.28030   0.79280   0.14245   0.01267  Uiso   1.00
C62    C     0.24580   0.71180   0.11304   0.01267  Uiso   1.00
C63    C     0.23800   0.71240   0.04938   0.01267  Uiso   1.00
C64    C     0.26490   0.79140   0.01452   0.01267  Uiso   1.00
C65    C     0.30020   0.87280   0.04399   0.01267  Uiso   1.00
C66    C     0.30740   0.87280   0.10678   0.01267  Uiso   1.00
C67    C     0.65100   0.79880   0.32766   0.01267  Uiso   1.00
C68    C     0.71600   0.88310   0.31957   0.01267  Uiso   1.00
C69    C     0.84300   0.88280   0.32048   0.01267  Uiso   1.00
C70    C     0.90740   0.79790   0.33019   0.01267  Uiso   1.00
C71    C     0.84250   0.71350   0.33791   0.01267  Uiso   1.00
C72    C     0.71550   0.71350   0.33646   0.01267  Uiso   1.00
C73    C     0.26390   0.78870   0.51479   0.01267  Uiso   1.00
C74    C     0.22900   0.86900   0.54862   0.01267  Uiso   1.00
C75    C     0.23290   0.87040   0.61173   0.01267  Uiso   1.00
C76    C     0.26740   0.79130   0.64326   0.01267  Uiso   1.00
C77    C     0.29540   0.70870   0.60976   0.01267  Uiso   1.00
C78    C     0.29460   0.70860   0.54553   0.01267  Uiso   1.00
C79    C     0.63660   0.80150   0.82708   0.01267  Uiso   1.00
C80    C     0.70160   0.88690   0.81889   0.01267  Uiso   1.00
C81    C     0.82740   0.88770   0.82220   0.01267  Uiso   1.00
C82    C     0.89210   0.80370   0.83305   0.01267  Uiso   1.00
C83    C     0.82790   0.71920   0.84116   0.01267  Uiso   1.00
C84    C     0.70160   0.71810   0.83843   0.01267  Uiso   1.00
C85    C     0.16970   0.09560   0.33534   0.01267  Uiso   1.00
C86    C     0.16520   0.19380   0.33565   0.01267  Uiso   1.00
C87    C     0.27530   0.24420   0.33364   0.01267  Uiso   1.00
C88    C     0.38510   0.19070   0.33153   0.01267  Uiso   1.00
C89    C     0.38030   0.09280   0.33060   0.01267  Uiso   1.00
C90    C     0.17270   0.50480   0.85921   0.01267  Uiso   1.00
C91    C     0.16650   0.40710   0.86182   0.01267  Uiso   1.00
C92    C     0.26310   0.35240   0.83156   0.01267  Uiso   1.00
C93    C     0.36240   0.40110   0.79962   0.01267  Uiso   1.00
C94    C     0.35880   0.49920   0.79943   0.01267  Uiso   1.00
C95    C     0.36690   0.09510   0.82838   0.01267  Uiso   1.00
C96    C     0.37130   0.19320   0.82870   0.01267  Uiso   1.00
C97    C     0.26290   0.24680   0.83299   0.01267  Uiso   1.00
C98    C     0.15140   0.19640   0.83750   0.01267  Uiso   1.00
C99    C     0.15590   0.09830   0.83654   0.01267  Uiso   1.00
C100   C     0.36490   0.49810   0.35650   0.01267  Uiso   1.00
C101   C     0.36600   0.40070   0.36010   0.01267  Uiso   1.00
C102   C     0.27670   0.34920   0.33225   0.01267  Uiso   1.00
C103   C     0.19270   0.40240   0.30190   0.01267  Uiso   1.00
C104   C     0.20000   0.50020   0.30050   0.01267  Uiso   1.00
N5     N     0.27540   0.04476   0.33251   0.01267  Uiso   1.00
N6     N     0.26490   0.55069   0.82868   0.01267  Uiso   1.00
N7     N     0.26170   0.04768   0.83229   0.01267  Uiso   1.00
N8     N     0.28300   0.54772   0.32786   0.01267  Uiso   1.00
O17    O     0.27970   0.71436   0.23821   0.01267  Uiso   1.00
O18    O     0.29979   0.87271   0.23620   0.01267  Uiso   1.00
O19    O     0.46365   0.71927   0.31949   0.01267  Uiso   1.00
O20    O     0.45658   0.87802   0.32984   0.01267  Uiso   1.00
O21    O     0.28114   0.71038   0.41843   0.01267  Uiso   1.00
O22    O     0.25310   0.86884   0.41983   0.01267  Uiso   1.00
O23    O     0.09934   0.71890   0.33775   0.01267  Uiso   1.00
O24    O     0.09859   0.87754   0.32617   0.01267  Uiso   1.00
O25    O     0.28439   0.71536   0.73886   0.01267  Uiso   1.00
O26    O     0.26030   0.87374   0.73793   0.01267  Uiso   1.00
O27    O     0.44760   0.72037   0.82847   0.01267  Uiso   1.00
O28    O     0.44405   0.87903   0.81878   0.01267  Uiso   1.00
O29    O     0.25030   0.71340   0.92029   0.01267  Uiso   1.00
O30    O     0.26500   0.87220   0.91943   0.01267  Uiso   1.00
O31    O     0.08615   0.72420   0.83063   0.01267  Uiso   1.00
O32    O     0.08207   0.88346   0.83790   0.01267  Uiso   1.00
