data_NEJSOM_clean
_audit_creation_date              2014-07-02
_audit_creation_method            'Materials Studio'
_symmetry_space_group_name_H-M    'P1'
_symmetry_Int_Tables_number       1
_symmetry_cell_setting            triclinic
loop_
_symmetry_equiv_pos_as_xyz
  x,y,z
_cell_length_a                    10.8060
_cell_length_b                    10.8340
_cell_length_c                    16.2700
_cell_angle_alpha                 90.4920
_cell_angle_beta                  97.1540
_cell_angle_gamma                 90.8550
loop_
_atom_site_label
_atom_site_type_symbol
_atom_site_fract_x
_atom_site_fract_y
_atom_site_fract_z
_atom_site_U_iso_or_equiv
_atom_site_adp_type
_atom_site_occupancy
Cu1    Cu    0.31628   0.84051   0.77723   0.01267  Uiso   1.00
Cu2    Cu    0.28423   0.83782   0.61278   0.01267  Uiso   1.00
H1     H     0.50330   0.88940   0.93520   0.01267  Uiso   1.00
H2     H     0.51580   0.88590   0.07740   0.01267  Uiso   1.00
H3     H     0.16610   0.75390   0.05450   0.01267  Uiso   1.00
H4     H     0.16670   0.75190   0.91380   0.01267  Uiso   1.00
H5     H     0.66770   0.83650   0.57100   0.01267  Uiso   1.00
H6     H     0.88000   0.83320   0.56840   0.01267  Uiso   1.00
H7     H     0.71840   0.84470   0.82010   0.01267  Uiso   1.00
H8     H     0.93230   0.84340   0.81840   0.01267  Uiso   1.00
H9     H     0.27340   0.22910   0.57310   0.01267  Uiso   1.00
H10    H     0.17170   0.80770   0.18630   0.01267  Uiso   1.00
H11    H     0.31660   0.45080   0.81980   0.01267  Uiso   1.00
H12    H     0.31690   0.23660   0.82160   0.01267  Uiso   1.00
H13    H     0.44540   0.84400   0.33490   0.01267  Uiso   1.00
H14    H     0.42330   0.84590   0.20350   0.01267  Uiso   1.00
H15    H     0.27720   0.44200   0.57210   0.01267  Uiso   1.00
H16    H     0.08450   0.83020   0.45560   0.01267  Uiso   1.00
H17    H     0.07170   0.82140   0.31370   0.01267  Uiso   1.00
H18    H     0.44750   0.85130   0.47560   0.01267  Uiso   1.00
C1     C     0.43260   0.86430   0.95950   0.01267  Uiso   1.00
C2     C     0.44040   0.86340   0.04510   0.01267  Uiso   1.00
C3     C     0.33860   0.82990   0.08300   0.01267  Uiso   1.00
C4     C     0.23590   0.78480   0.03170   0.01267  Uiso   1.00
C5     C     0.23620   0.78540   0.94750   0.01267  Uiso   1.00
C6     C     0.72170   0.83790   0.62100   0.01267  Uiso   1.00
C7     C     0.67280   0.84140   0.69600   0.01267  Uiso   1.00
C8     C     0.84780   0.83630   0.61940   0.01267  Uiso   1.00
C9     C     0.30080   0.60510   0.69450   0.01267  Uiso   1.00
C10    C     0.29890   0.46770   0.69500   0.01267  Uiso   1.00
C11    C     0.75140   0.84300   0.76930   0.01267  Uiso   1.00
C12    C     0.92880   0.83920   0.69300   0.01267  Uiso   1.00
C13    C     0.87870   0.84210   0.76820   0.01267  Uiso   1.00
C14    C     0.06610   0.83700   0.69210   0.01267  Uiso   1.00
C15    C     0.28360   0.27340   0.62350   0.01267  Uiso   1.00
C16    C     0.29640   0.21110   0.69680   0.01267  Uiso   1.00
C17    C     0.25080   0.82210   0.21620   0.01267  Uiso   1.00
C18    C     0.30930   0.40590   0.76970   0.01267  Uiso   1.00
C19    C     0.29930   0.07230   0.69770   0.01267  Uiso   1.00
C20    C     0.53360   0.84230   0.69720   0.01267  Uiso   1.00
C21    C     0.30880   0.27810   0.77080   0.01267  Uiso   1.00
C22    C     0.36990   0.83980   0.35790   0.01267  Uiso   1.00
C23    C     0.34400   0.83370   0.17330   0.01267  Uiso   1.00
C24    C     0.28540   0.40070   0.62300   0.01267  Uiso   1.00
C25    C     0.15840   0.83170   0.43070   0.01267  Uiso   1.00
C26    C     0.15040   0.82660   0.34560   0.01267  Uiso   1.00
C27    C     0.25730   0.82930   0.30680   0.01267  Uiso   1.00
C28    C     0.37030   0.84400   0.44210   0.01267  Uiso   1.00
N1     N     0.26740   0.83840   0.47900   0.01267  Uiso   1.00
N2     N     0.33190   0.83190   0.91080   0.01267  Uiso   1.00
O1     O     0.10550   0.83190   0.62239   0.01267  Uiso   1.00
O2     O     0.31170   0.65970   0.76327   0.01267  Uiso   1.00
O3     O     0.28980   0.65590   0.62514   0.01267  Uiso   1.00
O4     O     0.31660   0.02130   0.76738   0.01267  Uiso   1.00
O5     O     0.13360   0.84080   0.76099   0.01267  Uiso   1.00
O6     O     0.28360   0.01790   0.62917   0.01267  Uiso   1.00
O7     O     0.49470   0.84260   0.76682   0.01267  Uiso   1.00
O8     O     0.46700   0.84340   0.62837   0.01267  Uiso   1.00
Cu3    Cu    0.68372   0.15949   0.22277   0.01267  Uiso   1.00
Cu4    Cu    0.71577   0.16218   0.38722   0.01267  Uiso   1.00
H19    H     0.49670   0.11060   0.06480   0.01267  Uiso   1.00
H20    H     0.48420   0.11410   0.92260   0.01267  Uiso   1.00
H21    H     0.83390   0.24610   0.94550   0.01267  Uiso   1.00
H22    H     0.83330   0.24810   0.08620   0.01267  Uiso   1.00
H23    H     0.33230   0.16350   0.42900   0.01267  Uiso   1.00
H24    H     0.12000   0.16680   0.43160   0.01267  Uiso   1.00
H25    H     0.28160   0.15530   0.17990   0.01267  Uiso   1.00
H26    H     0.06770   0.15660   0.18160   0.01267  Uiso   1.00
H27    H     0.72660   0.77090   0.42690   0.01267  Uiso   1.00
H28    H     0.82830   0.19230   0.81370   0.01267  Uiso   1.00
H29    H     0.68340   0.54920   0.18020   0.01267  Uiso   1.00
H30    H     0.68310   0.76340   0.17840   0.01267  Uiso   1.00
H31    H     0.55460   0.15600   0.66510   0.01267  Uiso   1.00
H32    H     0.57670   0.15410   0.79650   0.01267  Uiso   1.00
H33    H     0.72280   0.55800   0.42790   0.01267  Uiso   1.00
H34    H     0.91550   0.16980   0.54440   0.01267  Uiso   1.00
H35    H     0.92830   0.17860   0.68630   0.01267  Uiso   1.00
H36    H     0.55250   0.14870   0.52440   0.01267  Uiso   1.00
C29    C     0.56740   0.13570   0.04050   0.01267  Uiso   1.00
C30    C     0.55960   0.13660   0.95490   0.01267  Uiso   1.00
C31    C     0.66140   0.17010   0.91700   0.01267  Uiso   1.00
C32    C     0.76410   0.21520   0.96830   0.01267  Uiso   1.00
C33    C     0.76380   0.21460   0.05250   0.01267  Uiso   1.00
C34    C     0.27830   0.16210   0.37900   0.01267  Uiso   1.00
C35    C     0.32720   0.15860   0.30400   0.01267  Uiso   1.00
C36    C     0.15220   0.16370   0.38060   0.01267  Uiso   1.00
C37    C     0.69920   0.39490   0.30550   0.01267  Uiso   1.00
C38    C     0.70110   0.53230   0.30500   0.01267  Uiso   1.00
C39    C     0.24860   0.15700   0.23070   0.01267  Uiso   1.00
C40    C     0.07120   0.16080   0.30700   0.01267  Uiso   1.00
C41    C     0.12130   0.15790   0.23180   0.01267  Uiso   1.00
C42    C     0.93390   0.16300   0.30790   0.01267  Uiso   1.00
C43    C     0.71640   0.72660   0.37650   0.01267  Uiso   1.00
C44    C     0.70360   0.78890   0.30320   0.01267  Uiso   1.00
C45    C     0.74920   0.17790   0.78380   0.01267  Uiso   1.00
C46    C     0.69070   0.59410   0.23030   0.01267  Uiso   1.00
C47    C     0.70070   0.92770   0.30230   0.01267  Uiso   1.00
C48    C     0.46640   0.15770   0.30280   0.01267  Uiso   1.00
C49    C     0.69120   0.72190   0.22920   0.01267  Uiso   1.00
C50    C     0.63010   0.16020   0.64210   0.01267  Uiso   1.00
C51    C     0.65600   0.16630   0.82670   0.01267  Uiso   1.00
C52    C     0.71460   0.59930   0.37700   0.01267  Uiso   1.00
C53    C     0.84160   0.16830   0.56930   0.01267  Uiso   1.00
C54    C     0.84960   0.17340   0.65440   0.01267  Uiso   1.00
C55    C     0.74270   0.17070   0.69320   0.01267  Uiso   1.00
C56    C     0.62970   0.15600   0.55790   0.01267  Uiso   1.00
N3     N     0.73260   0.16160   0.52100   0.01267  Uiso   1.00
N4     N     0.66810   0.16810   0.08920   0.01267  Uiso   1.00
O9     O     0.89450   0.16810   0.37761   0.01267  Uiso   1.00
O10    O     0.68830   0.34030   0.23673   0.01267  Uiso   1.00
O11    O     0.71020   0.34410   0.37486   0.01267  Uiso   1.00
O12    O     0.68340   0.97870   0.23262   0.01267  Uiso   1.00
O13    O     0.86640   0.15920   0.23901   0.01267  Uiso   1.00
O14    O     0.71640   0.98210   0.37083   0.01267  Uiso   1.00
O15    O     0.50530   0.15740   0.23318   0.01267  Uiso   1.00
O16    O     0.53300   0.15660   0.37163   0.01267  Uiso   1.00
