data_NEKBEL_clean
_audit_creation_date              2014-07-02
_audit_creation_method            'Materials Studio'
_symmetry_space_group_name_H-M    'P1'
_symmetry_Int_Tables_number       1
_symmetry_cell_setting            triclinic
loop_
_symmetry_equiv_pos_as_xyz
  x,y,z
_cell_length_a                    7.1790
_cell_length_b                    14.6340
_cell_length_c                    22.1340
_cell_angle_alpha                 90.0000
_cell_angle_beta                  91.1210
_cell_angle_gamma                 90.0000
loop_
_atom_site_label
_atom_site_type_symbol
_atom_site_fract_x
_atom_site_fract_y
_atom_site_fract_z
_atom_site_U_iso_or_equiv
_atom_site_adp_type
_atom_site_occupancy
Co1    Co    0.75210   0.52840   0.76213   0.01267  Uiso   1.00
Co2    Co    0.74790   0.02840   0.73787   0.01267  Uiso   1.00
Co3    Co    0.24790   0.47160   0.23787   0.01267  Uiso   1.00
Co4    Co    0.25210   0.97160   0.26213   0.01267  Uiso   1.00
Co5    Co    0.50000   0.50000   0.50000   0.01267  Uiso   1.00
Co6    Co    0.00000   0.00000   0.00000   0.01267  Uiso   1.00
H1     H     0.67650   0.48610   0.62870   0.01267  Uiso   1.00
H2     H     0.79210   0.71980   0.70000   0.01267  Uiso   1.00
H3     H     0.74860   0.79150   0.60650   0.01267  Uiso   1.00
H4     H     0.62080   0.70410   0.52830   0.01267  Uiso   1.00
H5     H     0.82350   0.98610   0.87130   0.01267  Uiso   1.00
H6     H     0.70790   0.21980   0.80000   0.01267  Uiso   1.00
H7     H     0.75140   0.29150   0.89350   0.01267  Uiso   1.00
H8     H     0.87920   0.20410   0.97170   0.01267  Uiso   1.00
H9     H     0.32350   0.51390   0.37130   0.01267  Uiso   1.00
H10    H     0.20790   0.28020   0.30000   0.01267  Uiso   1.00
H11    H     0.25140   0.20850   0.39350   0.01267  Uiso   1.00
H12    H     0.37920   0.29590   0.47170   0.01267  Uiso   1.00
H13    H     0.17650   0.01390   0.12870   0.01267  Uiso   1.00
H14    H     0.29210   0.78020   0.20000   0.01267  Uiso   1.00
H15    H     0.24860   0.70850   0.10650   0.01267  Uiso   1.00
H16    H     0.12080   0.79590   0.02830   0.01267  Uiso   1.00
W1     W     0.24022   0.28497   0.67749   0.01267  Uiso   1.00
W2     W     0.25978   0.78497   0.82251   0.01267  Uiso   1.00
W3     W     0.75978   0.71503   0.32251   0.01267  Uiso   1.00
W4     W     0.74022   0.21503   0.17749   0.01267  Uiso   1.00
C1     C     0.45000   0.37490   0.71340   0.01267  Uiso   1.00
C2     C     0.32600   0.37800   0.60820   0.01267  Uiso   1.00
C3     C     0.27300   0.20210   0.59830   0.01267  Uiso   1.00
C4     C     0.45600   0.18760   0.69720   0.01267  Uiso   1.00
C5     C     0.24800   0.26760   0.77310   0.01267  Uiso   1.00
C6     C     0.07400   0.39460   0.71180   0.01267  Uiso   1.00
C7     C     0.99500   0.29830   0.62560   0.01267  Uiso   1.00
C8     C     0.06000   0.17130   0.69900   0.01267  Uiso   1.00
C9     C     0.68100   0.55080   0.62570   0.01267  Uiso   1.00
C10    C     0.73800   0.68570   0.66770   0.01267  Uiso   1.00
C11    C     0.71700   0.72900   0.61240   0.01267  Uiso   1.00
C12    C     0.65800   0.67600   0.56530   0.01267  Uiso   1.00
C13    C     0.05000   0.87490   0.78660   0.01267  Uiso   1.00
C14    C     0.17400   0.87800   0.89180   0.01267  Uiso   1.00
C15    C     0.22700   0.70210   0.90170   0.01267  Uiso   1.00
C16    C     0.04400   0.68760   0.80280   0.01267  Uiso   1.00
C17    C     0.25200   0.76760   0.72690   0.01267  Uiso   1.00
C18    C     0.42600   0.89460   0.78820   0.01267  Uiso   1.00
C19    C     0.50500   0.79830   0.87440   0.01267  Uiso   1.00
C20    C     0.44000   0.67130   0.80100   0.01267  Uiso   1.00
C21    C     0.81900   0.05080   0.87430   0.01267  Uiso   1.00
C22    C     0.76200   0.18570   0.83230   0.01267  Uiso   1.00
C23    C     0.78300   0.22900   0.88760   0.01267  Uiso   1.00
C24    C     0.84200   0.17600   0.93470   0.01267  Uiso   1.00
C25    C     0.55000   0.62510   0.28660   0.01267  Uiso   1.00
C26    C     0.67400   0.62200   0.39180   0.01267  Uiso   1.00
C27    C     0.72700   0.79790   0.40170   0.01267  Uiso   1.00
C28    C     0.54400   0.81240   0.30280   0.01267  Uiso   1.00
C29    C     0.75200   0.73240   0.22690   0.01267  Uiso   1.00
C30    C     0.92600   0.60540   0.28820   0.01267  Uiso   1.00
C31    C     0.00500   0.70170   0.37440   0.01267  Uiso   1.00
C32    C     0.94000   0.82870   0.30100   0.01267  Uiso   1.00
C33    C     0.31900   0.44920   0.37430   0.01267  Uiso   1.00
C34    C     0.26200   0.31430   0.33230   0.01267  Uiso   1.00
C35    C     0.28300   0.27100   0.38760   0.01267  Uiso   1.00
C36    C     0.34200   0.32400   0.43470   0.01267  Uiso   1.00
C37    C     0.95000   0.12510   0.21340   0.01267  Uiso   1.00
C38    C     0.82600   0.12200   0.10820   0.01267  Uiso   1.00
C39    C     0.77300   0.29790   0.09830   0.01267  Uiso   1.00
C40    C     0.95600   0.31240   0.19720   0.01267  Uiso   1.00
C41    C     0.74800   0.23240   0.27310   0.01267  Uiso   1.00
C42    C     0.57400   0.10540   0.21180   0.01267  Uiso   1.00
C43    C     0.49500   0.20170   0.12560   0.01267  Uiso   1.00
C44    C     0.56000   0.32870   0.19900   0.01267  Uiso   1.00
C45    C     0.18100   0.94920   0.12570   0.01267  Uiso   1.00
C46    C     0.23800   0.81430   0.16770   0.01267  Uiso   1.00
C47    C     0.21700   0.77100   0.11240   0.01267  Uiso   1.00
C48    C     0.15800   0.82400   0.06530   0.01267  Uiso   1.00
N1     N     0.55700   0.42900   0.73150   0.01267  Uiso   1.00
N2     N     0.38200   0.42120   0.56930   0.01267  Uiso   1.00
N3     N     0.28300   0.16250   0.55380   0.01267  Uiso   1.00
N4     N     0.56200   0.13060   0.70840   0.01267  Uiso   1.00
N5     N     0.25200   0.25440   0.82480   0.01267  Uiso   1.00
N6     N     0.97900   0.44820   0.72960   0.01267  Uiso   1.00
N7     N     0.85900   0.31200   0.59210   0.01267  Uiso   1.00
N8     N     0.96300   0.11080   0.70880   0.01267  Uiso   1.00
N9     N     0.63600   0.58460   0.57110   0.01267  Uiso   1.00
N10    N     0.72700   0.59430   0.67400   0.01267  Uiso   1.00
N11    N     0.94300   0.92900   0.76850   0.01267  Uiso   1.00
N12    N     0.11800   0.92120   0.93070   0.01267  Uiso   1.00
N13    N     0.21700   0.66250   0.94620   0.01267  Uiso   1.00
N14    N     0.93800   0.63060   0.79160   0.01267  Uiso   1.00
N15    N     0.24800   0.75440   0.67520   0.01267  Uiso   1.00
N16    N     0.52100   0.94820   0.77040   0.01267  Uiso   1.00
N17    N     0.64100   0.81200   0.90790   0.01267  Uiso   1.00
N18    N     0.53700   0.61080   0.79120   0.01267  Uiso   1.00
N19    N     0.86400   0.08460   0.92890   0.01267  Uiso   1.00
N20    N     0.77300   0.09430   0.82600   0.01267  Uiso   1.00
N21    N     0.44300   0.57100   0.26850   0.01267  Uiso   1.00
N22    N     0.61800   0.57880   0.43070   0.01267  Uiso   1.00
N23    N     0.71700   0.83750   0.44620   0.01267  Uiso   1.00
N24    N     0.43800   0.86940   0.29160   0.01267  Uiso   1.00
N25    N     0.74800   0.74560   0.17520   0.01267  Uiso   1.00
N26    N     0.02100   0.55180   0.27040   0.01267  Uiso   1.00
N27    N     0.14100   0.68800   0.40790   0.01267  Uiso   1.00
N28    N     0.03700   0.88920   0.29120   0.01267  Uiso   1.00
N29    N     0.36400   0.41540   0.42890   0.01267  Uiso   1.00
N30    N     0.27300   0.40570   0.32600   0.01267  Uiso   1.00
N31    N     0.05700   0.07100   0.23150   0.01267  Uiso   1.00
N32    N     0.88200   0.07880   0.06930   0.01267  Uiso   1.00
N33    N     0.78300   0.33750   0.05380   0.01267  Uiso   1.00
N34    N     0.06200   0.36940   0.20840   0.01267  Uiso   1.00
N35    N     0.75200   0.24560   0.32480   0.01267  Uiso   1.00
N36    N     0.47900   0.05180   0.22960   0.01267  Uiso   1.00
N37    N     0.35900   0.18800   0.09210   0.01267  Uiso   1.00
N38    N     0.46300   0.38920   0.20880   0.01267  Uiso   1.00
N39    N     0.13600   0.91540   0.07110   0.01267  Uiso   1.00
N40    N     0.22700   0.90570   0.17400   0.01267  Uiso   1.00
