data_image0
_cell_length_a       16.3417
_cell_length_b       16.3417
_cell_length_c       16.3417
_cell_angle_alpha    90
_cell_angle_beta     90
_cell_angle_gamma    90

_symmetry_space_group_name_H-M    "P 1"
_symmetry_int_tables_number       1

loop_
  _symmetry_equiv_pos_as_xyz
  'x, y, z'

loop_
  _atom_site_label
  _atom_site_occupancy
  _atom_site_fract_x
  _atom_site_fract_y
  _atom_site_fract_z
  _atom_site_thermal_displace_type
  _atom_site_B_iso_or_equiv
  _atom_site_type_symbol
  N1       1.0000 0.58357  0.68576  0.31171  Biso   1.000  N
  C1       1.0000 0.60638  0.70817  0.38841  Biso   1.000  C
  H1       1.0000 0.57866  0.75168  0.41519  Biso   1.000  H
  N2       1.0000 0.91643  0.81424  0.31171  Biso   1.000  N
  C2       1.0000 0.89362  0.79183  0.38841  Biso   1.000  C
  H2       1.0000 0.92134  0.74832  0.41519  Biso   1.000  H
  N3       1.0000 0.91643  0.68576  0.18829  Biso   1.000  N
  C3       1.0000 0.89362  0.70817  0.11159  Biso   1.000  C
  H3       1.0000 0.92134  0.75168  0.08481  Biso   1.000  H
  N4       1.0000 0.58357  0.81424  0.18829  Biso   1.000  N
  C4       1.0000 0.60638  0.79183  0.11159  Biso   1.000  C
  H4       1.0000 0.57866  0.74832  0.08481  Biso   1.000  H
  N5       1.0000 0.31171  0.58357  0.68576  Biso   1.000  N
  C5       1.0000 0.38841  0.60638  0.70817  Biso   1.000  C
  H5       1.0000 0.41519  0.57866  0.75168  Biso   1.000  H
  N6       1.0000 0.31171  0.91643  0.81424  Biso   1.000  N
  C6       1.0000 0.38841  0.89362  0.79183  Biso   1.000  C
  H6       1.0000 0.41519  0.92134  0.74832  Biso   1.000  H
  N7       1.0000 0.18829  0.91643  0.68576  Biso   1.000  N
  C7       1.0000 0.11159  0.89362  0.70817  Biso   1.000  C
  H7       1.0000 0.08481  0.92134  0.75168  Biso   1.000  H
  N8       1.0000 0.18829  0.58357  0.81424  Biso   1.000  N
  C8       1.0000 0.11159  0.60638  0.79183  Biso   1.000  C
  H8       1.0000 0.08481  0.57866  0.74832  Biso   1.000  H
  N9       1.0000 0.68576  0.31171  0.58357  Biso   1.000  N
  C9       1.0000 0.70817  0.38841  0.60638  Biso   1.000  C
  H9       1.0000 0.75168  0.41519  0.57866  Biso   1.000  H
  N10      1.0000 0.81424  0.31171  0.91643  Biso   1.000  N
  C10      1.0000 0.79183  0.38841  0.89362  Biso   1.000  C
  H10      1.0000 0.74832  0.41519  0.92134  Biso   1.000  H
  N11      1.0000 0.68576  0.18829  0.91643  Biso   1.000  N
  C11      1.0000 0.70817  0.11159  0.89362  Biso   1.000  C
  H11      1.0000 0.75168  0.08481  0.92134  Biso   1.000  H
  N12      1.0000 0.81424  0.18829  0.58357  Biso   1.000  N
  C12      1.0000 0.79183  0.11159  0.60638  Biso   1.000  C
  H12      1.0000 0.74832  0.08481  0.57866  Biso   1.000  H
  N13      1.0000 0.18576  0.08357  0.68829  Biso   1.000  N
  C13      1.0000 0.20817  0.10638  0.61159  Biso   1.000  C
  H13      1.0000 0.25168  0.07866  0.58481  Biso   1.000  H
  N14      1.0000 0.31424  0.41643  0.68829  Biso   1.000  N
  C14      1.0000 0.29183  0.39362  0.61159  Biso   1.000  C
  H14      1.0000 0.24832  0.42134  0.58481  Biso   1.000  H
  N15      1.0000 0.18576  0.41643  0.81171  Biso   1.000  N
  C15      1.0000 0.20817  0.39362  0.88841  Biso   1.000  C
  H15      1.0000 0.25168  0.42134  0.91519  Biso   1.000  H
  N16      1.0000 0.31424  0.08357  0.81171  Biso   1.000  N
  C16      1.0000 0.29183  0.10638  0.88841  Biso   1.000  C
  H16      1.0000 0.24832  0.07866  0.91519  Biso   1.000  H
  N17      1.0000 0.08357  0.81171  0.31424  Biso   1.000  N
  C17      1.0000 0.10638  0.88841  0.29183  Biso   1.000  C
  H17      1.0000 0.07866  0.91519  0.24832  Biso   1.000  H
  N18      1.0000 0.41643  0.81171  0.18576  Biso   1.000  N
  C18      1.0000 0.39362  0.88841  0.20817  Biso   1.000  C
  H18      1.0000 0.42134  0.91519  0.25168  Biso   1.000  H
  N19      1.0000 0.41643  0.68829  0.31424  Biso   1.000  N
  C19      1.0000 0.39362  0.61159  0.29183  Biso   1.000  C
  H19      1.0000 0.42134  0.58481  0.24832  Biso   1.000  H
  N20      1.0000 0.08357  0.68829  0.18576  Biso   1.000  N
  C20      1.0000 0.10638  0.61159  0.20817  Biso   1.000  C
  H20      1.0000 0.07866  0.58481  0.25168  Biso   1.000  H
  N21      1.0000 0.81171  0.18576  0.41643  Biso   1.000  N
  C21      1.0000 0.88841  0.20817  0.39362  Biso   1.000  C
  H21      1.0000 0.91519  0.25168  0.42134  Biso   1.000  H
  N22      1.0000 0.81171  0.31424  0.08357  Biso   1.000  N
  C22      1.0000 0.88841  0.29183  0.10638  Biso   1.000  C
  H22      1.0000 0.91519  0.24832  0.07866  Biso   1.000  H
  N23      1.0000 0.68829  0.18576  0.08357  Biso   1.000  N
  C23      1.0000 0.61159  0.20817  0.10638  Biso   1.000  C
  H23      1.0000 0.58481  0.25168  0.07866  Biso   1.000  H
  N24      1.0000 0.68829  0.31424  0.41643  Biso   1.000  N
  C24      1.0000 0.61159  0.29183  0.39362  Biso   1.000  C
  H24      1.0000 0.58481  0.24832  0.42134  Biso   1.000  H
  N25      1.0000 0.41643  0.31424  0.68829  Biso   1.000  N
  C25      1.0000 0.39362  0.29183  0.61159  Biso   1.000  C
  H25      1.0000 0.42134  0.24832  0.58481  Biso   1.000  H
  N26      1.0000 0.08357  0.18576  0.68829  Biso   1.000  N
  C26      1.0000 0.10638  0.20817  0.61159  Biso   1.000  C
  H26      1.0000 0.07866  0.25168  0.58481  Biso   1.000  H
  N27      1.0000 0.08357  0.31424  0.81171  Biso   1.000  N
  C27      1.0000 0.10638  0.29183  0.88841  Biso   1.000  C
  H27      1.0000 0.07866  0.24832  0.91519  Biso   1.000  H
  N28      1.0000 0.41643  0.18576  0.81171  Biso   1.000  N
  C28      1.0000 0.39362  0.20817  0.88841  Biso   1.000  C
  H28      1.0000 0.42134  0.25168  0.91519  Biso   1.000  H
  N29      1.0000 0.68829  0.41643  0.31424  Biso   1.000  N
  C29      1.0000 0.61159  0.39362  0.29183  Biso   1.000  C
  H29      1.0000 0.58481  0.42134  0.24832  Biso   1.000  H
  N30      1.0000 0.68829  0.08357  0.18576  Biso   1.000  N
  C30      1.0000 0.61159  0.10638  0.20817  Biso   1.000  C
  H30      1.0000 0.58481  0.07866  0.25168  Biso   1.000  H
  N31      1.0000 0.81171  0.08357  0.31424  Biso   1.000  N
  C31      1.0000 0.88841  0.10638  0.29183  Biso   1.000  C
  H31      1.0000 0.91519  0.07866  0.24832  Biso   1.000  H
  N32      1.0000 0.81171  0.41643  0.18576  Biso   1.000  N
  C32      1.0000 0.88841  0.39362  0.20817  Biso   1.000  C
  H32      1.0000 0.91519  0.42134  0.25168  Biso   1.000  H
  N33      1.0000 0.31424  0.68829  0.41643  Biso   1.000  N
  C33      1.0000 0.29183  0.61159  0.39362  Biso   1.000  C
  H33      1.0000 0.24832  0.58481  0.42134  Biso   1.000  H
  N34      1.0000 0.18576  0.68829  0.08357  Biso   1.000  N
  C34      1.0000 0.20817  0.61159  0.10638  Biso   1.000  C
  H34      1.0000 0.25168  0.58481  0.07866  Biso   1.000  H
  N35      1.0000 0.31424  0.81171  0.08357  Biso   1.000  N
  C35      1.0000 0.29183  0.88841  0.10638  Biso   1.000  C
  H35      1.0000 0.24832  0.91519  0.07866  Biso   1.000  H
  N36      1.0000 0.18576  0.81171  0.41643  Biso   1.000  N
  C36      1.0000 0.20817  0.88841  0.39362  Biso   1.000  C
  H36      1.0000 0.25168  0.91519  0.42134  Biso   1.000  H
  N37      1.0000 0.81424  0.91643  0.31171  Biso   1.000  N
  C37      1.0000 0.79183  0.89362  0.38841  Biso   1.000  C
  H37      1.0000 0.74832  0.92134  0.41519  Biso   1.000  H
  N38      1.0000 0.68576  0.58357  0.31171  Biso   1.000  N
  C38      1.0000 0.70817  0.60638  0.38841  Biso   1.000  C
  H38      1.0000 0.75168  0.57866  0.41519  Biso   1.000  H
  N39      1.0000 0.81424  0.58357  0.18829  Biso   1.000  N
  C39      1.0000 0.79183  0.60638  0.11159  Biso   1.000  C
  H39      1.0000 0.74832  0.57866  0.08481  Biso   1.000  H
  N40      1.0000 0.68576  0.91643  0.18829  Biso   1.000  N
  C40      1.0000 0.70817  0.89362  0.11159  Biso   1.000  C
  H40      1.0000 0.75168  0.92134  0.08481  Biso   1.000  H
  N41      1.0000 0.91643  0.18829  0.68576  Biso   1.000  N
  C41      1.0000 0.89362  0.11159  0.70817  Biso   1.000  C
  H41      1.0000 0.92134  0.08481  0.75168  Biso   1.000  H
  N42      1.0000 0.58357  0.18829  0.81424  Biso   1.000  N
  C42      1.0000 0.60638  0.11159  0.79183  Biso   1.000  C
  H42      1.0000 0.57866  0.08481  0.74832  Biso   1.000  H
  N43      1.0000 0.58357  0.31171  0.68576  Biso   1.000  N
  C43      1.0000 0.60638  0.38841  0.70817  Biso   1.000  C
  H43      1.0000 0.57866  0.41519  0.75168  Biso   1.000  H
  N44      1.0000 0.91643  0.31171  0.81424  Biso   1.000  N
  C44      1.0000 0.89362  0.38841  0.79183  Biso   1.000  C
  H44      1.0000 0.92134  0.41519  0.74832  Biso   1.000  H
  N45      1.0000 0.18829  0.81424  0.58357  Biso   1.000  N
  C45      1.0000 0.11159  0.79183  0.60638  Biso   1.000  C
  H45      1.0000 0.08481  0.74832  0.57866  Biso   1.000  H
  N46      1.0000 0.18829  0.68576  0.91643  Biso   1.000  N
  C46      1.0000 0.11159  0.70817  0.89362  Biso   1.000  C
  H46      1.0000 0.08481  0.75168  0.92134  Biso   1.000  H
  N47      1.0000 0.31171  0.81424  0.91643  Biso   1.000  N
  C47      1.0000 0.38841  0.79183  0.89362  Biso   1.000  C
  H47      1.0000 0.41519  0.74832  0.92134  Biso   1.000  H
  N48      1.0000 0.31171  0.68576  0.58357  Biso   1.000  N
  C48      1.0000 0.38841  0.70817  0.60638  Biso   1.000  C
  H48      1.0000 0.41519  0.75168  0.57866  Biso   1.000  H
  Pd1      1.0000 0.50000  0.75000  0.25000  Biso   1.000  Pd
  Pd2      1.0000 0.00000  0.75000  0.25000  Biso   1.000  Pd
  Pd3      1.0000 0.25000  0.50000  0.75000  Biso   1.000  Pd
  Pd4      1.0000 0.25000  0.00000  0.75000  Biso   1.000  Pd
  Pd5      1.0000 0.75000  0.25000  0.50000  Biso   1.000  Pd
  Pd6      1.0000 0.75000  0.25000  0.00000  Biso   1.000  Pd
  Pd7      1.0000 0.50000  0.25000  0.75000  Biso   1.000  Pd
  Pd8      1.0000 0.00000  0.25000  0.75000  Biso   1.000  Pd
  Pd9      1.0000 0.75000  0.50000  0.25000  Biso   1.000  Pd
  Pd10     1.0000 0.75000  0.00000  0.25000  Biso   1.000  Pd
  Pd11     1.0000 0.25000  0.75000  0.50000  Biso   1.000  Pd
  Pd12     1.0000 0.25000  0.75000  0.00000  Biso   1.000  Pd
  C49      1.0000 0.62354  0.62354  0.27313  Biso   1.000  C
  C50      1.0000 0.66841  0.66841  0.42699  Biso   1.000  C
  O1       1.0000 0.60291  0.60291  0.20242  Biso   1.000  O
  H49      1.0000 0.68409  0.68409  0.48073  Biso   1.000  H
  C51      1.0000 0.87646  0.87646  0.27313  Biso   1.000  C
  C52      1.0000 0.83160  0.83160  0.42699  Biso   1.000  C
  O2       1.0000 0.89710  0.89710  0.20242  Biso   1.000  O
  H50      1.0000 0.81592  0.81592  0.48073  Biso   1.000  H
  C53      1.0000 0.87646  0.62354  0.22687  Biso   1.000  C
  C54      1.0000 0.83160  0.66841  0.07301  Biso   1.000  C
  O3       1.0000 0.89710  0.60291  0.29758  Biso   1.000  O
  H51      1.0000 0.81592  0.68409  0.01927  Biso   1.000  H
  C55      1.0000 0.62354  0.87646  0.22687  Biso   1.000  C
  C56      1.0000 0.66841  0.83160  0.07301  Biso   1.000  C
  O4       1.0000 0.60291  0.89710  0.29758  Biso   1.000  O
  H52      1.0000 0.68409  0.81592  0.01927  Biso   1.000  H
  C57      1.0000 0.27313  0.62354  0.62354  Biso   1.000  C
  C58      1.0000 0.42699  0.66841  0.66841  Biso   1.000  C
  O5       1.0000 0.20242  0.60291  0.60291  Biso   1.000  O
  H53      1.0000 0.48073  0.68409  0.68409  Biso   1.000  H
  C59      1.0000 0.27313  0.87646  0.87646  Biso   1.000  C
  C60      1.0000 0.42699  0.83160  0.83160  Biso   1.000  C
  O6       1.0000 0.20242  0.89710  0.89710  Biso   1.000  O
  H54      1.0000 0.48073  0.81592  0.81592  Biso   1.000  H
  C61      1.0000 0.22687  0.87646  0.62354  Biso   1.000  C
  C62      1.0000 0.07301  0.83160  0.66841  Biso   1.000  C
  O7       1.0000 0.29758  0.89710  0.60291  Biso   1.000  O
  H55      1.0000 0.01927  0.81592  0.68409  Biso   1.000  H
  C63      1.0000 0.22687  0.62354  0.87646  Biso   1.000  C
  C64      1.0000 0.07301  0.66841  0.83160  Biso   1.000  C
  O8       1.0000 0.29758  0.60291  0.89710  Biso   1.000  O
  H56      1.0000 0.01927  0.68409  0.81592  Biso   1.000  H
  C65      1.0000 0.62354  0.27313  0.62354  Biso   1.000  C
  C66      1.0000 0.66841  0.42699  0.66841  Biso   1.000  C
  O9       1.0000 0.60291  0.20242  0.60291  Biso   1.000  O
  H57      1.0000 0.68409  0.48073  0.68409  Biso   1.000  H
  C67      1.0000 0.87646  0.27313  0.87646  Biso   1.000  C
  C68      1.0000 0.83160  0.42699  0.83160  Biso   1.000  C
  O10      1.0000 0.89710  0.20242  0.89710  Biso   1.000  O
  H58      1.0000 0.81592  0.48073  0.81592  Biso   1.000  H
  C69      1.0000 0.62354  0.22687  0.87646  Biso   1.000  C
  C70      1.0000 0.66841  0.07301  0.83160  Biso   1.000  C
  O11      1.0000 0.60291  0.29758  0.89710  Biso   1.000  O
  H59      1.0000 0.68409  0.01927  0.81592  Biso   1.000  H
  C71      1.0000 0.87646  0.22687  0.62354  Biso   1.000  C
  C72      1.0000 0.83160  0.07301  0.66841  Biso   1.000  C
  O12      1.0000 0.89710  0.29758  0.60291  Biso   1.000  O
  H60      1.0000 0.81592  0.01927  0.68409  Biso   1.000  H
  C73      1.0000 0.12354  0.12354  0.72687  Biso   1.000  C
  C74      1.0000 0.16841  0.16841  0.57301  Biso   1.000  C
  O13      1.0000 0.10291  0.10291  0.79758  Biso   1.000  O
  H61      1.0000 0.18409  0.18409  0.51927  Biso   1.000  H
  C75      1.0000 0.37646  0.37646  0.72687  Biso   1.000  C
  C76      1.0000 0.33159  0.33159  0.57301  Biso   1.000  C
  O14      1.0000 0.39710  0.39710  0.79758  Biso   1.000  O
  H62      1.0000 0.31592  0.31592  0.51927  Biso   1.000  H
  C77      1.0000 0.12354  0.37646  0.77313  Biso   1.000  C
  C78      1.0000 0.16841  0.33159  0.92699  Biso   1.000  C
  O15      1.0000 0.10291  0.39710  0.70242  Biso   1.000  O
  H63      1.0000 0.18409  0.31592  0.98073  Biso   1.000  H
  C79      1.0000 0.37646  0.12354  0.77313  Biso   1.000  C
  C80      1.0000 0.33159  0.16841  0.92699  Biso   1.000  C
  O16      1.0000 0.39710  0.10291  0.70242  Biso   1.000  O
  H64      1.0000 0.31592  0.18409  0.98073  Biso   1.000  H
  C81      1.0000 0.12354  0.77313  0.37646  Biso   1.000  C
  C82      1.0000 0.16841  0.92699  0.33159  Biso   1.000  C
  O17      1.0000 0.10291  0.70242  0.39710  Biso   1.000  O
  H65      1.0000 0.18409  0.98073  0.31592  Biso   1.000  H
  C83      1.0000 0.37646  0.77313  0.12354  Biso   1.000  C
  C84      1.0000 0.33159  0.92699  0.16841  Biso   1.000  C
  O18      1.0000 0.39710  0.70242  0.10291  Biso   1.000  O
  H66      1.0000 0.31592  0.98073  0.18409  Biso   1.000  H
  C85      1.0000 0.37646  0.72687  0.37646  Biso   1.000  C
  C86      1.0000 0.33159  0.57301  0.33159  Biso   1.000  C
  O19      1.0000 0.39710  0.79758  0.39710  Biso   1.000  O
  H67      1.0000 0.31592  0.51927  0.31592  Biso   1.000  H
  C87      1.0000 0.12354  0.72687  0.12354  Biso   1.000  C
  C88      1.0000 0.16841  0.57301  0.16841  Biso   1.000  C
  O20      1.0000 0.10291  0.79758  0.10291  Biso   1.000  O
  H68      1.0000 0.18409  0.51927  0.18409  Biso   1.000  H
  C89      1.0000 0.77313  0.12354  0.37646  Biso   1.000  C
  C90      1.0000 0.92699  0.16841  0.33159  Biso   1.000  C
  O21      1.0000 0.70242  0.10291  0.39710  Biso   1.000  O
  H69      1.0000 0.98073  0.18409  0.31592  Biso   1.000  H
  C91      1.0000 0.77313  0.37646  0.12354  Biso   1.000  C
  C92      1.0000 0.92699  0.33159  0.16841  Biso   1.000  C
  O22      1.0000 0.70242  0.39710  0.10291  Biso   1.000  O
  H70      1.0000 0.98073  0.31592  0.18409  Biso   1.000  H
  C93      1.0000 0.72687  0.12354  0.12354  Biso   1.000  C
  C94      1.0000 0.57301  0.16841  0.16841  Biso   1.000  C
  O23      1.0000 0.79758  0.10291  0.10291  Biso   1.000  O
  H71      1.0000 0.51927  0.18409  0.18409  Biso   1.000  H
  C95      1.0000 0.72687  0.37646  0.37646  Biso   1.000  C
  C96      1.0000 0.57301  0.33159  0.33159  Biso   1.000  C
  O24      1.0000 0.79758  0.39710  0.39710  Biso   1.000  O
  H72      1.0000 0.51927  0.31592  0.31592  Biso   1.000  H
