data_NEPWIQ_clean
_audit_creation_date              2014-07-02
_audit_creation_method            'Materials Studio'
_symmetry_space_group_name_H-M    'P1'
_symmetry_Int_Tables_number       1
_symmetry_cell_setting            triclinic
loop_
_symmetry_equiv_pos_as_xyz
  x,y,z
_cell_length_a                    9.2021
_cell_length_b                    9.2021
_cell_length_c                    14.1973
_cell_angle_alpha                 79.8390
_cell_angle_beta                  79.8393
_cell_angle_gamma                 117.1060
loop_
_atom_site_label
_atom_site_type_symbol
_atom_site_fract_x
_atom_site_fract_y
_atom_site_fract_z
_atom_site_U_iso_or_equiv
_atom_site_adp_type
_atom_site_occupancy
Er1    Er    0.00868   0.75868   0.98264   0.01267  Uiso   1.00
Er2    Er    0.24132   0.99132   0.51736   0.01267  Uiso   1.00
Er3    Er    0.99132   0.24132   0.01736   0.01267  Uiso   1.00
Er4    Er    0.75868   0.00868   0.48264   0.01267  Uiso   1.00
H1     H     0.39490   0.81690   0.06960   0.01267  Uiso   1.00
H2     H     0.53550   0.61350   0.06960   0.01267  Uiso   1.00
H3     H     0.18310   0.60510   0.43040   0.01267  Uiso   1.00
H4     H     0.38650   0.46450   0.43040   0.01267  Uiso   1.00
H5     H     0.60510   0.18310   0.93040   0.01267  Uiso   1.00
H6     H     0.46450   0.38650   0.93040   0.01267  Uiso   1.00
H7     H     0.81690   0.39490   0.56960   0.01267  Uiso   1.00
H8     H     0.61350   0.53550   0.56960   0.01267  Uiso   1.00
C1     C     0.24006   0.57206   0.05948   0.01267  Uiso   1.00
C2     C     0.39742   0.71822   0.06556   0.01267  Uiso   1.00
C3     C     0.70046   0.86846   0.05948   0.01267  Uiso   1.00
C4     C     0.53702   0.71622   0.06556   0.01267  Uiso   1.00
C5     C     0.42794   0.75994   0.44052   0.01267  Uiso   1.00
C6     C     0.28178   0.60258   0.43444   0.01267  Uiso   1.00
C7     C     0.13154   0.29954   0.44052   0.01267  Uiso   1.00
C8     C     0.28378   0.46298   0.43444   0.01267  Uiso   1.00
C9     C     0.75994   0.42794   0.94052   0.01267  Uiso   1.00
C10    C     0.60258   0.28178   0.93444   0.01267  Uiso   1.00
C11    C     0.29954   0.13154   0.94052   0.01267  Uiso   1.00
C12    C     0.46298   0.28378   0.93444   0.01267  Uiso   1.00
C13    C     0.57206   0.24006   0.55948   0.01267  Uiso   1.00
C14    C     0.71822   0.39742   0.56556   0.01267  Uiso   1.00
C15    C     0.86846   0.70046   0.55948   0.01267  Uiso   1.00
C16    C     0.71622   0.53702   0.56556   0.01267  Uiso   1.00
C17    C     0.07560   0.92440   0.75000   0.01267  Uiso   1.00
C18    C     0.17440   0.82560   0.75000   0.01267  Uiso   1.00
C19    C     0.92440   0.07560   0.25000   0.01267  Uiso   1.00
C20    C     0.82560   0.17440   0.25000   0.01267  Uiso   1.00
O1     O     0.13198   0.60682   0.03480   0.01267  Uiso   1.00
O2     O     0.22029   0.42449   0.07462   0.01267  Uiso   1.00
O3     O     0.00701   0.92683   0.83336   0.01267  Uiso   1.00
O4     O     0.83322   0.85838   0.03480   0.01267  Uiso   1.00
O5     O     0.70509   0.00089   0.07462   0.01267  Uiso   1.00
O6     O     0.15963   0.73981   0.83336   0.01267  Uiso   1.00
O7     O     0.39318   0.86802   0.46520   0.01267  Uiso   1.00
O8     O     0.57551   0.77971   0.42538   0.01267  Uiso   1.00
O9     O     0.07317   0.99299   0.66664   0.01267  Uiso   1.00
O10    O     0.14162   0.16678   0.46520   0.01267  Uiso   1.00
O11    O     0.99911   0.29491   0.42538   0.01267  Uiso   1.00
O12    O     0.26019   0.84037   0.66664   0.01267  Uiso   1.00
O13    O     0.86802   0.39318   0.96520   0.01267  Uiso   1.00
O14    O     0.77971   0.57551   0.92538   0.01267  Uiso   1.00
O15    O     0.99299   0.07317   0.16664   0.01267  Uiso   1.00
O16    O     0.16678   0.14162   0.96520   0.01267  Uiso   1.00
O17    O     0.29491   0.99911   0.92538   0.01267  Uiso   1.00
O18    O     0.84037   0.26019   0.16664   0.01267  Uiso   1.00
O19    O     0.60682   0.13198   0.53480   0.01267  Uiso   1.00
O20    O     0.42449   0.22029   0.57462   0.01267  Uiso   1.00
O21    O     0.92683   0.00701   0.33336   0.01267  Uiso   1.00
O22    O     0.85838   0.83322   0.53480   0.01267  Uiso   1.00
O23    O     0.00089   0.70509   0.57462   0.01267  Uiso   1.00
O24    O     0.73981   0.15963   0.33336   0.01267  Uiso   1.00
