data_NERMON_clean
_audit_creation_date              2014-07-02
_audit_creation_method            'Materials Studio'
_symmetry_space_group_name_H-M    'P1'
_symmetry_Int_Tables_number       1
_symmetry_cell_setting            triclinic
loop_
_symmetry_equiv_pos_as_xyz
  x,y,z
_cell_length_a                    7.0122
_cell_length_b                    11.1241
_cell_length_c                    20.0433
_cell_angle_alpha                 106.1110
_cell_angle_beta                  98.2925
_cell_angle_gamma                 90.0000
loop_
_atom_site_label
_atom_site_type_symbol
_atom_site_fract_x
_atom_site_fract_y
_atom_site_fract_z
_atom_site_U_iso_or_equiv
_atom_site_adp_type
_atom_site_occupancy
Er1    Er    0.14666   0.07046   0.74063   0.01267  Uiso   1.00
Er2    Er    0.35334   0.32983   0.25937   0.01267  Uiso   1.00
Er3    Er    0.85334   0.92954   0.25937   0.01267  Uiso   1.00
Er4    Er    0.64666   0.67017   0.74063   0.01267  Uiso   1.00
H1     H     0.49760   0.20330   0.99020   0.01267  Uiso   1.00
H2     H     0.36340   0.83310   0.90860   0.01267  Uiso   1.00
H3     H     0.52760   0.71810   0.54480   0.01267  Uiso   1.00
H4     H     0.42370   0.69340   0.42540   0.01267  Uiso   1.00
H5     H     0.18630   0.02720   0.47540   0.01267  Uiso   1.00
H6     H     0.29710   0.05630   0.59320   0.01267  Uiso   1.00
H7     H     0.00240   0.21310   0.00980   0.01267  Uiso   1.00
H8     H     0.13660   0.92450   0.09140   0.01267  Uiso   1.00
H9     H     0.97240   0.17330   0.45520   0.01267  Uiso   1.00
H10    H     0.07630   0.26800   0.57460   0.01267  Uiso   1.00
H11    H     0.31370   0.55180   0.52460   0.01267  Uiso   1.00
H12    H     0.20290   0.46310   0.40680   0.01267  Uiso   1.00
H13    H     0.50240   0.79670   0.00980   0.01267  Uiso   1.00
H14    H     0.63660   0.16690   0.09140   0.01267  Uiso   1.00
H15    H     0.47240   0.28190   0.45520   0.01267  Uiso   1.00
H16    H     0.57630   0.30660   0.57460   0.01267  Uiso   1.00
H17    H     0.81370   0.97280   0.52460   0.01267  Uiso   1.00
H18    H     0.70290   0.94370   0.40680   0.01267  Uiso   1.00
H19    H     0.99760   0.78690   0.99020   0.01267  Uiso   1.00
H20    H     0.86340   0.07550   0.90860   0.01267  Uiso   1.00
H21    H     0.02760   0.82670   0.54480   0.01267  Uiso   1.00
H22    H     0.92370   0.73200   0.42540   0.01267  Uiso   1.00
H23    H     0.68630   0.44820   0.47540   0.01267  Uiso   1.00
H24    H     0.79710   0.53690   0.59320   0.01267  Uiso   1.00
C1     C     0.32750   0.04240   0.86900   0.01267  Uiso   1.00
C2     C     0.41640   0.02070   0.93680   0.01267  Uiso   1.00
C3     C     0.49950   0.12200   0.99420   0.01267  Uiso   1.00
C4     C     0.41920   0.89990   0.94540   0.01267  Uiso   1.00
C5     C     0.46700   0.89210   0.65740   0.01267  Uiso   1.00
C6     C     0.41470   0.88460   0.58200   0.01267  Uiso   1.00
C7     C     0.45650   0.78000   0.53100   0.01267  Uiso   1.00
C8     C     0.39420   0.76460   0.45880   0.01267  Uiso   1.00
C9     C     0.28910   0.85670   0.43860   0.01267  Uiso   1.00
C10    C     0.25450   0.96440   0.48940   0.01267  Uiso   1.00
C11    C     0.31790   0.98190   0.56040   0.01267  Uiso   1.00
C12    C     0.21180   0.83900   0.36260   0.01267  Uiso   1.00
C13    C     0.17250   0.17340   0.13100   0.01267  Uiso   1.00
C14    C     0.08360   0.08390   0.06320   0.01267  Uiso   1.00
C15    C     0.00050   0.12780   0.00580   0.01267  Uiso   1.00
C16    C     0.08080   0.95450   0.05460   0.01267  Uiso   1.00
C17    C     0.03300   0.23470   0.34260   0.01267  Uiso   1.00
C18    C     0.08530   0.30260   0.41800   0.01267  Uiso   1.00
C19    C     0.04350   0.24900   0.46900   0.01267  Uiso   1.00
C20    C     0.10580   0.30580   0.54120   0.01267  Uiso   1.00
C21    C     0.21090   0.41810   0.56140   0.01267  Uiso   1.00
C22    C     0.24550   0.47500   0.51060   0.01267  Uiso   1.00
C23    C     0.18210   0.42150   0.43960   0.01267  Uiso   1.00
C24    C     0.28820   0.47640   0.63740   0.01267  Uiso   1.00
C25    C     0.67250   0.95760   0.13100   0.01267  Uiso   1.00
C26    C     0.58360   0.97930   0.06320   0.01267  Uiso   1.00
C27    C     0.50050   0.87800   0.00580   0.01267  Uiso   1.00
C28    C     0.58080   0.10010   0.05460   0.01267  Uiso   1.00
C29    C     0.53300   0.10790   0.34260   0.01267  Uiso   1.00
C30    C     0.58530   0.11540   0.41800   0.01267  Uiso   1.00
C31    C     0.54350   0.22000   0.46900   0.01267  Uiso   1.00
C32    C     0.60580   0.23540   0.54120   0.01267  Uiso   1.00
C33    C     0.71090   0.14330   0.56140   0.01267  Uiso   1.00
C34    C     0.74550   0.03560   0.51060   0.01267  Uiso   1.00
C35    C     0.68210   0.01810   0.43960   0.01267  Uiso   1.00
C36    C     0.78820   0.16100   0.63740   0.01267  Uiso   1.00
C37    C     0.82750   0.82660   0.86900   0.01267  Uiso   1.00
C38    C     0.91640   0.91610   0.93680   0.01267  Uiso   1.00
C39    C     0.99950   0.87220   0.99420   0.01267  Uiso   1.00
C40    C     0.91920   0.04550   0.94540   0.01267  Uiso   1.00
C41    C     0.96700   0.76530   0.65740   0.01267  Uiso   1.00
C42    C     0.91470   0.69740   0.58200   0.01267  Uiso   1.00
C43    C     0.95650   0.75100   0.53100   0.01267  Uiso   1.00
C44    C     0.89420   0.69420   0.45880   0.01267  Uiso   1.00
C45    C     0.78910   0.58190   0.43860   0.01267  Uiso   1.00
C46    C     0.75450   0.52500   0.48940   0.01267  Uiso   1.00
C47    C     0.81790   0.57850   0.56040   0.01267  Uiso   1.00
C48    C     0.71180   0.52360   0.36260   0.01267  Uiso   1.00
O1     O     0.21400   0.95890   0.82520   0.01267  Uiso   1.00
O2     O     0.35460   0.14360   0.85540   0.01267  Uiso   1.00
O3     O     0.42220   0.98870   0.70400   0.01267  Uiso   1.00
O4     O     0.55720   0.80330   0.67240   0.01267  Uiso   1.00
O5     O     0.05610   0.89300   0.34960   0.01267  Uiso   1.00
O6     O     0.29810   0.77140   0.31600   0.01267  Uiso   1.00
O7     O     0.28600   0.13370   0.17480   0.01267  Uiso   1.00
O8     O     0.14540   0.28820   0.14460   0.01267  Uiso   1.00
O9     O     0.07780   0.28470   0.29600   0.01267  Uiso   1.00
O10    O     0.94280   0.13090   0.32760   0.01267  Uiso   1.00
O11    O     0.44390   0.54340   0.65040   0.01267  Uiso   1.00
O12    O     0.20190   0.45540   0.68400   0.01267  Uiso   1.00
O13    O     0.78600   0.04110   0.17480   0.01267  Uiso   1.00
O14    O     0.64540   0.85640   0.14460   0.01267  Uiso   1.00
O15    O     0.57780   0.01130   0.29600   0.01267  Uiso   1.00
O16    O     0.44280   0.19670   0.32760   0.01267  Uiso   1.00
O17    O     0.94390   0.10700   0.65040   0.01267  Uiso   1.00
O18    O     0.70190   0.22860   0.68400   0.01267  Uiso   1.00
O19    O     0.71400   0.86630   0.82520   0.01267  Uiso   1.00
O20    O     0.85460   0.71180   0.85540   0.01267  Uiso   1.00
O21    O     0.92220   0.71530   0.70400   0.01267  Uiso   1.00
O22    O     0.05720   0.86910   0.67240   0.01267  Uiso   1.00
O23    O     0.55610   0.45660   0.34960   0.01267  Uiso   1.00
O24    O     0.79810   0.54460   0.31600   0.01267  Uiso   1.00
