data_NERVEL_clean
_audit_creation_date              2014-07-02
_audit_creation_method            'Materials Studio'
_symmetry_space_group_name_H-M    'P1'
_symmetry_Int_Tables_number       1
_symmetry_cell_setting            triclinic
loop_
_symmetry_equiv_pos_as_xyz
  x,y,z
_cell_length_a                    10.5407
_cell_length_b                    11.8266
_cell_length_c                    14.1122
_cell_angle_alpha                 106.8780
_cell_angle_beta                  102.4110
_cell_angle_gamma                 111.0110
loop_
_atom_site_label
_atom_site_type_symbol
_atom_site_fract_x
_atom_site_fract_y
_atom_site_fract_z
_atom_site_U_iso_or_equiv
_atom_site_adp_type
_atom_site_occupancy
Co1    Co    0.80670   0.50859   0.78733   0.01267  Uiso   1.00
Co2    Co    0.54880   0.76918   0.30993   0.01267  Uiso   1.00
Co3    Co    0.19330   0.49141   0.21267   0.01267  Uiso   1.00
Co4    Co    0.45120   0.23082   0.69007   0.01267  Uiso   1.00
H1     H     0.87800   0.82210   0.38570   0.01267  Uiso   1.00
H2     H     0.05460   0.80620   0.31950   0.01267  Uiso   1.00
H3     H     0.00250   0.72930   0.13770   0.01267  Uiso   1.00
H4     H     0.59340   0.66730   0.10080   0.01267  Uiso   1.00
H5     H     0.73260   0.99400   0.25010   0.01267  Uiso   1.00
H6     H     0.84640   0.22040   0.31310   0.01267  Uiso   1.00
H7     H     0.83350   0.34630   0.46680   0.01267  Uiso   1.00
H8     H     0.61540   0.01200   0.49470   0.01267  Uiso   1.00
H9     H     0.97620   0.81000   0.86420   0.01267  Uiso   1.00
H10    H     0.00100   0.97760   0.80750   0.01267  Uiso   1.00
H11    H     0.86020   0.92790   0.63650   0.01267  Uiso   1.00
H12    H     0.69340   0.54630   0.58690   0.01267  Uiso   1.00
H13    H     0.07450   0.54230   0.70900   0.01267  Uiso   1.00
H14    H     0.31760   0.60540   0.77770   0.01267  Uiso   1.00
H15    H     0.43270   0.67980   0.95990   0.01267  Uiso   1.00
H16    H     0.04540   0.60400   0.98790   0.01267  Uiso   1.00
H17    H     0.58140   0.48140   0.78840   0.01267  Uiso   1.00
H18    H     0.52650   0.44830   0.69000   0.01267  Uiso   1.00
H19    H     0.12200   0.17790   0.61430   0.01267  Uiso   1.00
H20    H     0.94540   0.19380   0.68050   0.01267  Uiso   1.00
H21    H     0.99750   0.27070   0.86230   0.01267  Uiso   1.00
H22    H     0.40660   0.33270   0.89920   0.01267  Uiso   1.00
H23    H     0.26740   0.00600   0.74990   0.01267  Uiso   1.00
H24    H     0.15360   0.77960   0.68690   0.01267  Uiso   1.00
H25    H     0.16650   0.65370   0.53320   0.01267  Uiso   1.00
H26    H     0.38460   0.98800   0.50530   0.01267  Uiso   1.00
H27    H     0.02380   0.19000   0.13580   0.01267  Uiso   1.00
H28    H     0.99900   0.02240   0.19250   0.01267  Uiso   1.00
H29    H     0.13980   0.07210   0.36350   0.01267  Uiso   1.00
H30    H     0.30660   0.45370   0.41310   0.01267  Uiso   1.00
H31    H     0.92550   0.45770   0.29100   0.01267  Uiso   1.00
H32    H     0.68240   0.39460   0.22230   0.01267  Uiso   1.00
H33    H     0.56730   0.32020   0.04010   0.01267  Uiso   1.00
H34    H     0.95460   0.39600   0.01210   0.01267  Uiso   1.00
H35    H     0.41860   0.51860   0.21160   0.01267  Uiso   1.00
H36    H     0.47350   0.55170   0.31000   0.01267  Uiso   1.00
C1     C     0.85460   0.78740   0.31260   0.01267  Uiso   1.00
C2     C     0.96200   0.77970   0.27340   0.01267  Uiso   1.00
C3     C     0.93080   0.73260   0.16550   0.01267  Uiso   1.00
C4     C     0.79060   0.69040   0.09940   0.01267  Uiso   1.00
C5     C     0.68840   0.69810   0.14540   0.01267  Uiso   1.00
C6     C     0.74210   0.63380   0.98010   0.01267  Uiso   1.00
C7     C     0.73100   0.04370   0.31400   0.01267  Uiso   1.00
C8     C     0.79730   0.17960   0.35050   0.01267  Uiso   1.00
C9     C     0.79070   0.25450   0.44210   0.01267  Uiso   1.00
C10    C     0.71950   0.19150   0.49680   0.01267  Uiso   1.00
C11    C     0.66060   0.05490   0.45670   0.01267  Uiso   1.00
C12    C     0.69890   0.26580   0.59410   0.01267  Uiso   1.00
C13    C     0.92160   0.78910   0.79490   0.01267  Uiso   1.00
C14    C     0.93620   0.89050   0.76170   0.01267  Uiso   1.00
C15    C     0.85380   0.86100   0.66000   0.01267  Uiso   1.00
C16    C     0.76140   0.73010   0.59350   0.01267  Uiso   1.00
C17    C     0.75480   0.63440   0.63210   0.01267  Uiso   1.00
C18    C     0.66640   0.69040   0.48090   0.01267  Uiso   1.00
C19    C     0.11860   0.56970   0.78160   0.01267  Uiso   1.00
C20    C     0.26450   0.60800   0.82240   0.01267  Uiso   1.00
C21    C     0.33300   0.65090   0.93080   0.01267  Uiso   1.00
C22    C     0.24950   0.64950   0.99430   0.01267  Uiso   1.00
C23    C     0.10220   0.60710   0.94570   0.01267  Uiso   1.00
C24    C     0.30650   0.68180   0.11090   0.01267  Uiso   1.00
C25    C     0.14540   0.21260   0.68740   0.01267  Uiso   1.00
C26    C     0.03800   0.22030   0.72660   0.01267  Uiso   1.00
C27    C     0.06920   0.26740   0.83450   0.01267  Uiso   1.00
C28    C     0.20940   0.30960   0.90060   0.01267  Uiso   1.00
C29    C     0.31160   0.30190   0.85460   0.01267  Uiso   1.00
C30    C     0.25790   0.36620   0.01990   0.01267  Uiso   1.00
C31    C     0.26900   0.95630   0.68600   0.01267  Uiso   1.00
C32    C     0.20270   0.82040   0.64950   0.01267  Uiso   1.00
C33    C     0.20930   0.74550   0.55790   0.01267  Uiso   1.00
C34    C     0.28050   0.80850   0.50320   0.01267  Uiso   1.00
C35    C     0.33940   0.94510   0.54330   0.01267  Uiso   1.00
C36    C     0.30110   0.73420   0.40590   0.01267  Uiso   1.00
C37    C     0.07840   0.21090   0.20510   0.01267  Uiso   1.00
C38    C     0.06380   0.10950   0.23830   0.01267  Uiso   1.00
C39    C     0.14620   0.13900   0.34000   0.01267  Uiso   1.00
C40    C     0.23860   0.26990   0.40650   0.01267  Uiso   1.00
C41    C     0.24520   0.36560   0.36790   0.01267  Uiso   1.00
C42    C     0.33360   0.30960   0.51910   0.01267  Uiso   1.00
C43    C     0.88140   0.43030   0.21840   0.01267  Uiso   1.00
C44    C     0.73550   0.39200   0.17760   0.01267  Uiso   1.00
C45    C     0.66700   0.34910   0.06920   0.01267  Uiso   1.00
C46    C     0.75050   0.35050   0.00570   0.01267  Uiso   1.00
C47    C     0.89780   0.39290   0.05430   0.01267  Uiso   1.00
C48    C     0.69350   0.31820   0.88910   0.01267  Uiso   1.00
N1     N     0.71860   0.74710   0.25007   0.01267  Uiso   1.00
N2     N     0.66480   0.98120   0.36687   0.01267  Uiso   1.00
N3     N     0.83250   0.66240   0.73170   0.01267  Uiso   1.00
N4     N     0.03660   0.57030   0.84250   0.01267  Uiso   1.00
N5     N     0.28140   0.25290   0.74993   0.01267  Uiso   1.00
N6     N     0.33520   0.01880   0.63313   0.01267  Uiso   1.00
N7     N     0.16750   0.33760   0.26830   0.01267  Uiso   1.00
N8     N     0.96340   0.42970   0.15750   0.01267  Uiso   1.00
O1     O     0.83700   0.63530   0.93974   0.01267  Uiso   1.00
O2     O     0.60960   0.58670   0.92987   0.01267  Uiso   1.00
O3     O     0.78270   0.38760   0.64073   0.01267  Uiso   1.00
O4     O     0.60020   0.20010   0.61958   0.01267  Uiso   1.00
O5     O     0.66650   0.78310   0.45485   0.01267  Uiso   1.00
O6     O     0.59600   0.57020   0.42350   0.01267  Uiso   1.00
O7     O     0.21480   0.63490   0.14962   0.01267  Uiso   1.00
O8     O     0.44140   0.75160   0.16033   0.01267  Uiso   1.00
O9     O     0.57400   0.44140   0.74252   0.01267  Uiso   1.00
O10    O     0.16300   0.36470   0.06026   0.01267  Uiso   1.00
O11    O     0.39040   0.41330   0.07013   0.01267  Uiso   1.00
O12    O     0.21730   0.61240   0.35927   0.01267  Uiso   1.00
O13    O     0.39980   0.79990   0.38042   0.01267  Uiso   1.00
O14    O     0.33350   0.21690   0.54515   0.01267  Uiso   1.00
O15    O     0.40400   0.42980   0.57650   0.01267  Uiso   1.00
O16    O     0.78520   0.36510   0.85038   0.01267  Uiso   1.00
O17    O     0.55860   0.24840   0.83967   0.01267  Uiso   1.00
O18    O     0.42600   0.55860   0.25748   0.01267  Uiso   1.00
