data_NESVEO_charged
_audit_creation_date              2014-07-02
_audit_creation_method            'Materials Studio'
_symmetry_space_group_name_H-M    'P1'
_symmetry_Int_Tables_number       1
_symmetry_cell_setting            triclinic
loop_
_symmetry_equiv_pos_as_xyz
  x,y,z
_cell_length_a                    19.2223
_cell_length_b                    19.2223
_cell_length_c                    19.2223
_cell_angle_alpha                 69.9784
_cell_angle_beta                  71.6240
_cell_angle_gamma                 110.0220
loop_
_atom_site_label
_atom_site_type_symbol
_atom_site_fract_x
_atom_site_fract_y
_atom_site_fract_z
_atom_site_U_iso_or_equiv
_atom_site_adp_type
_atom_site_occupancy
Zn1    Zn    0.21455   0.53663   0.93640   0.01267  Uiso   1.00
Zn2    Zn    0.52697   0.46337   0.32208   0.01267  Uiso   1.00
Zn3    Zn    0.67792   0.15095   0.78545   0.01267  Uiso   1.00
Zn4    Zn    0.06360   0.84905   0.47303   0.01267  Uiso   1.00
Zn5    Zn    0.78545   0.46337   0.06360   0.01267  Uiso   1.00
Zn6    Zn    0.47303   0.53663   0.67792   0.01267  Uiso   1.00
Zn7    Zn    0.32208   0.84905   0.21455   0.01267  Uiso   1.00
Zn8    Zn    0.93640   0.15095   0.52697   0.01267  Uiso   1.00
Zn9    Zn    0.39182   0.67880   0.71302   0.01267  Uiso   1.00
Zn10   Zn    0.60818   0.32120   0.28698   0.01267  Uiso   1.00
Zn11   Zn    0.71302   0.10484   0.60818   0.01267  Uiso   1.00
Zn12   Zn    0.28698   0.89516   0.39182   0.01267  Uiso   1.00
H1     H     0.21190   0.72030   0.64040   0.01267  Uiso   1.00
H2     H     0.97300   0.67570   0.72070   0.01267  Uiso   1.00
H3     H     0.03880   0.57020   0.88880   0.01267  Uiso   1.00
H4     H     0.17610   0.34080   0.04630   0.01267  Uiso   1.00
H5     H     0.18370   0.21630   0.07420   0.01267  Uiso   1.00
H6     H     0.63930   0.27970   0.50840   0.01267  Uiso   1.00
H7     H     0.60360   0.32430   0.70270   0.01267  Uiso   1.00
H8     H     0.54100   0.42980   0.53140   0.01267  Uiso   1.00
H9     H     0.61290   0.65920   0.16470   0.01267  Uiso   1.00
H10    H     0.70950   0.78370   0.03260   0.01267  Uiso   1.00
H11    H     0.49160   0.85230   0.78810   0.01267  Uiso   1.00
H12    H     0.29730   0.69370   0.02700   0.01267  Uiso   1.00
H13    H     0.46860   0.92760   0.96120   0.01267  Uiso   1.00
H14    H     0.83530   0.22240   0.82390   0.01267  Uiso   1.00
H15    H     0.96740   0.25790   0.81630   0.01267  Uiso   1.00
H16    H     0.35960   0.14770   0.36070   0.01267  Uiso   1.00
H17    H     0.27930   0.30630   0.39640   0.01267  Uiso   1.00
H18    H     0.11120   0.07240   0.45900   0.01267  Uiso   1.00
H19    H     0.95370   0.77760   0.38710   0.01267  Uiso   1.00
H20    H     0.92580   0.74210   0.29050   0.01267  Uiso   1.00
H21    H     0.78810   0.27970   0.35960   0.01267  Uiso   1.00
H22    H     0.02700   0.32430   0.27930   0.01267  Uiso   1.00
H23    H     0.96120   0.42980   0.11120   0.01267  Uiso   1.00
H24    H     0.82390   0.65920   0.95370   0.01267  Uiso   1.00
H25    H     0.81630   0.78370   0.92580   0.01267  Uiso   1.00
H26    H     0.36070   0.72030   0.49160   0.01267  Uiso   1.00
H27    H     0.39640   0.67570   0.29730   0.01267  Uiso   1.00
H28    H     0.45900   0.57020   0.46860   0.01267  Uiso   1.00
H29    H     0.38710   0.34080   0.83530   0.01267  Uiso   1.00
H30    H     0.29050   0.21630   0.96740   0.01267  Uiso   1.00
H31    H     0.50840   0.14770   0.21190   0.01267  Uiso   1.00
H32    H     0.70270   0.30630   0.97300   0.01267  Uiso   1.00
H33    H     0.53140   0.07240   0.03880   0.01267  Uiso   1.00
H34    H     0.16470   0.77760   0.17610   0.01267  Uiso   1.00
H35    H     0.03260   0.74210   0.18370   0.01267  Uiso   1.00
H36    H     0.64040   0.85230   0.63930   0.01267  Uiso   1.00
H37    H     0.72070   0.69370   0.60360   0.01267  Uiso   1.00
H38    H     0.88880   0.92760   0.54100   0.01267  Uiso   1.00
H39    H     0.04630   0.22240   0.61290   0.01267  Uiso   1.00
H40    H     0.07420   0.25790   0.70950   0.01267  Uiso   1.00
C1     C     0.11729   0.76420   0.57791   0.01267  Uiso   1.00
C2     C     0.09605   0.70792   0.66681   0.01267  Uiso   1.00
C3     C     0.15718   0.69504   0.68434   0.01267  Uiso   1.00
C4     C     0.01393   0.66810   0.73277   0.01267  Uiso   1.00
C5     C     0.90240   0.57498   0.88746   0.01267  Uiso   1.00
C6     C     0.99153   0.61670   0.81717   0.01267  Uiso   1.00
C7     C     0.19893   0.62790   0.79057   0.01267  Uiso   1.00
C8     C     0.13571   0.64381   0.76850   0.01267  Uiso   1.00
C9     C     0.05299   0.60490   0.83331   0.01267  Uiso   1.00
C10    C     0.27180   0.41140   0.92100   0.01267  Uiso   1.00
C11    C     0.21530   0.33900   0.00470   0.01267  Uiso   1.00
C12    C     0.22130   0.26580   0.02130   0.01267  Uiso   1.00
C13    C     0.65789   0.23580   0.64691   0.01267  Uiso   1.00
C14    C     0.62527   0.29208   0.61187   0.01267  Uiso   1.00
C15    C     0.62062   0.30496   0.53786   0.01267  Uiso   1.00
C16    C     0.59913   0.33190   0.65417   0.01267  Uiso   1.00
C17    C     0.53756   0.42502   0.67258   0.01267  Uiso   1.00
C18    C     0.56613   0.38330   0.62517   0.01267  Uiso   1.00
C19    C     0.58153   0.37210   0.42897   0.01267  Uiso   1.00
C20    C     0.58769   0.35619   0.50810   0.01267  Uiso   1.00
C21    C     0.56179   0.39510   0.55191   0.01267  Uiso   1.00
C22    C     0.66760   0.58860   0.13960   0.01267  Uiso   1.00
C23    C     0.65630   0.66100   0.12370   0.01267  Uiso   1.00
C24    C     0.71290   0.73420   0.04450   0.01267  Uiso   1.00
C25    C     0.35309   0.69520   0.88271   0.01267  Uiso   1.00
C26    C     0.38813   0.76286   0.90395   0.01267  Uiso   1.00
C27    C     0.46214   0.84152   0.84282   0.01267  Uiso   1.00
C28    C     0.34583   0.74670   0.98607   0.01267  Uiso   1.00
C29    C     0.32742   0.78986   0.09760   0.01267  Uiso   1.00
C30    C     0.37483   0.80870   0.00847   0.01267  Uiso   1.00
C31    C     0.57103   0.98950   0.80107   0.01267  Uiso   1.00
C32    C     0.49190   0.90421   0.86429   0.01267  Uiso   1.00
C33    C     0.44809   0.88630   0.94701   0.01267  Uiso   1.00
C34    C     0.86040   0.19280   0.72820   0.01267  Uiso   1.00
C35    C     0.87630   0.22000   0.78470   0.01267  Uiso   1.00
C36    C     0.95550   0.24260   0.77870   0.01267  Uiso   1.00
C37    C     0.42209   0.30480   0.34211   0.01267  Uiso   1.00
C38    C     0.33319   0.23714   0.37473   0.01267  Uiso   1.00
C39    C     0.31566   0.15848   0.37938   0.01267  Uiso   1.00
C40    C     0.26723   0.25330   0.40087   0.01267  Uiso   1.00
C41    C     0.11254   0.21014   0.46244   0.01267  Uiso   1.00
C42    C     0.18283   0.19130   0.43387   0.01267  Uiso   1.00
C43    C     0.20943   0.01050   0.41847   0.01267  Uiso   1.00
C44    C     0.23150   0.09579   0.41231   0.01267  Uiso   1.00
C45    C     0.16669   0.11370   0.43821   0.01267  Uiso   1.00
C46    C     0.07900   0.80720   0.33240   0.01267  Uiso   1.00
C47    C     0.99530   0.78000   0.34370   0.01267  Uiso   1.00
C48    C     0.97870   0.75740   0.28710   0.01267  Uiso   1.00
C49    C     0.88271   0.23580   0.42209   0.01267  Uiso   1.00
C50    C     0.90395   0.29208   0.33319   0.01267  Uiso   1.00
C51    C     0.84282   0.30496   0.31566   0.01267  Uiso   1.00
C52    C     0.98607   0.33190   0.26723   0.01267  Uiso   1.00
C53    C     0.09760   0.42502   0.11254   0.01267  Uiso   1.00
C54    C     0.00847   0.38330   0.18283   0.01267  Uiso   1.00
C55    C     0.80107   0.37210   0.20943   0.01267  Uiso   1.00
C56    C     0.86429   0.35619   0.23150   0.01267  Uiso   1.00
C57    C     0.94701   0.39510   0.16669   0.01267  Uiso   1.00
C58    C     0.72820   0.58860   0.07900   0.01267  Uiso   1.00
C59    C     0.78470   0.66100   0.99530   0.01267  Uiso   1.00
C60    C     0.77870   0.73420   0.97870   0.01267  Uiso   1.00
C61    C     0.34211   0.76420   0.35309   0.01267  Uiso   1.00
C62    C     0.37473   0.70792   0.38813   0.01267  Uiso   1.00
C63    C     0.37938   0.69504   0.46214   0.01267  Uiso   1.00
C64    C     0.40087   0.66810   0.34583   0.01267  Uiso   1.00
C65    C     0.46244   0.57498   0.32742   0.01267  Uiso   1.00
C66    C     0.43387   0.61670   0.37483   0.01267  Uiso   1.00
C67    C     0.41847   0.62790   0.57103   0.01267  Uiso   1.00
C68    C     0.41231   0.64381   0.49190   0.01267  Uiso   1.00
C69    C     0.43821   0.60490   0.44809   0.01267  Uiso   1.00
C70    C     0.33240   0.41140   0.86040   0.01267  Uiso   1.00
C71    C     0.34370   0.33900   0.87630   0.01267  Uiso   1.00
C72    C     0.28710   0.26580   0.95550   0.01267  Uiso   1.00
C73    C     0.64691   0.30480   0.11729   0.01267  Uiso   1.00
C74    C     0.61187   0.23714   0.09605   0.01267  Uiso   1.00
C75    C     0.53786   0.15848   0.15718   0.01267  Uiso   1.00
C76    C     0.65417   0.25330   0.01393   0.01267  Uiso   1.00
C77    C     0.67258   0.21014   0.90240   0.01267  Uiso   1.00
C78    C     0.62517   0.19130   0.99153   0.01267  Uiso   1.00
C79    C     0.42897   0.01050   0.19893   0.01267  Uiso   1.00
C80    C     0.50810   0.09579   0.13571   0.01267  Uiso   1.00
C81    C     0.55191   0.11370   0.05299   0.01267  Uiso   1.00
C82    C     0.13960   0.80720   0.27180   0.01267  Uiso   1.00
C83    C     0.12370   0.78000   0.21530   0.01267  Uiso   1.00
C84    C     0.04450   0.75740   0.22130   0.01267  Uiso   1.00
C85    C     0.57791   0.69520   0.65789   0.01267  Uiso   1.00
C86    C     0.66681   0.76286   0.62527   0.01267  Uiso   1.00
C87    C     0.68434   0.84152   0.62062   0.01267  Uiso   1.00
C88    C     0.73277   0.74670   0.59913   0.01267  Uiso   1.00
C89    C     0.88746   0.78986   0.53756   0.01267  Uiso   1.00
C90    C     0.81717   0.80870   0.56613   0.01267  Uiso   1.00
C91    C     0.79057   0.98950   0.58153   0.01267  Uiso   1.00
C92    C     0.76850   0.90421   0.58769   0.01267  Uiso   1.00
C93    C     0.83331   0.88630   0.56179   0.01267  Uiso   1.00
C94    C     0.92100   0.19280   0.66760   0.01267  Uiso   1.00
C95    C     0.00470   0.22000   0.65630   0.01267  Uiso   1.00
C96    C     0.02130   0.24260   0.71290   0.01267  Uiso   1.00
N1     N     0.27873   0.49030   0.88599   0.01267  Uiso   1.00
N2     N     0.62371   0.50970   0.21157   0.01267  Uiso   1.00
N3     N     0.78843   0.16472   0.72127   0.01267  Uiso   1.00
N4     N     0.11401   0.83528   0.37629   0.01267  Uiso   1.00
N5     N     0.72127   0.50970   0.11401   0.01267  Uiso   1.00
N6     N     0.37629   0.49030   0.78843   0.01267  Uiso   1.00
N7     N     0.21157   0.83528   0.27873   0.01267  Uiso   1.00
N8     N     0.88599   0.16472   0.62371   0.01267  Uiso   1.00
N9     N     0.34341   0.53718   0.80623   0.01267  Uiso   1.00
N10    N     0.65659   0.46282   0.19377   0.01267  Uiso   1.00
N11    N     0.80623   0.14964   0.65659   0.01267  Uiso   1.00
N12    N     0.19377   0.85036   0.34341   0.01267  Uiso   1.00
O1     O     0.84634   0.57883   0.87113   0.01267  Uiso   1.00
O2     O     0.19079   0.80037   0.51878   0.01267  Uiso   1.00
O3     O     0.27191   0.66149   0.73396   0.01267  Uiso   1.00
O4     O     0.05130   0.75780   0.57070   0.01267  Uiso   1.00
O5     O     0.16610   0.56630   0.86480   0.01267  Uiso   1.00
O6     O     0.89382   0.54047   0.96165   0.01267  Uiso   1.00
O7     O     0.55004   0.42117   0.73249   0.01267  Uiso   1.00
O8     O     0.68085   0.19963   0.60958   0.01267  Uiso   1.00
O9     O     0.60455   0.33851   0.38958   0.01267  Uiso   1.00
O10    O     0.67150   0.24220   0.70650   0.01267  Uiso   1.00
O11    O     0.56890   0.43370   0.40020   0.01267  Uiso   1.00
O12    O     0.49788   0.45953   0.64665   0.01267  Uiso   1.00
O13    O     0.26751   0.71747   0.15366   0.01267  Uiso   1.00
O14    O     0.39042   0.70957   0.80921   0.01267  Uiso   1.00
O15    O     0.61042   0.00587   0.72809   0.01267  Uiso   1.00
O16    O     0.29350   0.62200   0.94870   0.01267  Uiso   1.00
O17    O     0.59980   0.03090   0.83390   0.01267  Uiso   1.00
O18    O     0.35335   0.85547   0.10618   0.01267  Uiso   1.00
O19    O     0.12887   0.28253   0.44996   0.01267  Uiso   1.00
O20    O     0.48122   0.29043   0.31915   0.01267  Uiso   1.00
O21    O     0.26604   0.99413   0.39545   0.01267  Uiso   1.00
O22    O     0.42930   0.37800   0.32850   0.01267  Uiso   1.00
O23    O     0.13520   0.96910   0.43110   0.01267  Uiso   1.00
O24    O     0.03835   0.14453   0.50212   0.01267  Uiso   1.00
O25    O     0.15366   0.42117   0.12887   0.01267  Uiso   1.00
O26    O     0.80921   0.19963   0.48122   0.01267  Uiso   1.00
O27    O     0.72809   0.33851   0.26604   0.01267  Uiso   1.00
O28    O     0.94870   0.24220   0.42930   0.01267  Uiso   1.00
O29    O     0.83390   0.43370   0.13520   0.01267  Uiso   1.00
O30    O     0.10618   0.45953   0.03835   0.01267  Uiso   1.00
O31    O     0.44996   0.57883   0.26751   0.01267  Uiso   1.00
O32    O     0.31915   0.80037   0.39042   0.01267  Uiso   1.00
O33    O     0.39545   0.66149   0.61042   0.01267  Uiso   1.00
O34    O     0.32850   0.75780   0.29350   0.01267  Uiso   1.00
O35    O     0.43110   0.56630   0.59980   0.01267  Uiso   1.00
O36    O     0.50212   0.54047   0.35335   0.01267  Uiso   1.00
O37    O     0.73249   0.28253   0.84634   0.01267  Uiso   1.00
O38    O     0.60958   0.29043   0.19079   0.01267  Uiso   1.00
O39    O     0.38958   0.99413   0.27191   0.01267  Uiso   1.00
O40    O     0.70650   0.37800   0.05130   0.01267  Uiso   1.00
O41    O     0.40020   0.96910   0.16610   0.01267  Uiso   1.00
O42    O     0.64665   0.14453   0.89382   0.01267  Uiso   1.00
O43    O     0.87113   0.71747   0.55004   0.01267  Uiso   1.00
O44    O     0.51878   0.70957   0.68085   0.01267  Uiso   1.00
O45    O     0.73396   0.00587   0.60455   0.01267  Uiso   1.00
O46    O     0.57070   0.62200   0.67150   0.01267  Uiso   1.00
O47    O     0.86480   0.03090   0.56890   0.01267  Uiso   1.00
O48    O     0.96165   0.85547   0.49788   0.01267  Uiso   1.00
O49    O     0.44360   0.81370   0.62990   0.01267  Uiso   1.00
O50    O     0.55640   0.18630   0.37010   0.01267  Uiso   1.00
O51    O     0.62990   0.07350   0.55640   0.01267  Uiso   1.00
O52    O     0.37010   0.92650   0.44360   0.01267  Uiso   1.00
