data_NETHOJ_clean_h
_audit_creation_date              2014-07-02
_audit_creation_method            'Materials Studio'
_symmetry_space_group_name_H-M    'P1'
_symmetry_Int_Tables_number       1
_symmetry_cell_setting            triclinic
loop_
_symmetry_equiv_pos_as_xyz
  x,y,z
_cell_length_a                    8.4620
_cell_length_b                    9.7210
_cell_length_c                    17.2660
_cell_angle_alpha                 90.0000
_cell_angle_beta                  90.0000
_cell_angle_gamma                 112.1700
loop_
_atom_site_label
_atom_site_type_symbol
_atom_site_fract_x
_atom_site_fract_y
_atom_site_fract_z
_atom_site_U_iso_or_equiv
_atom_site_adp_type
_atom_site_occupancy
Dy1    Dy    0.84353   0.52470   0.74222   0.01267  Uiso   1.00
Dy2    Dy    0.15647   0.97530   0.24222   0.01267  Uiso   1.00
Dy3    Dy    0.15647   0.47530   0.25778   0.01267  Uiso   1.00
Dy4    Dy    0.84353   0.02470   0.75778   0.01267  Uiso   1.00
C1     C     0.90500   0.52400   0.90210   0.01267  Uiso   1.00
C2     C     0.94400   0.52900   0.98630   0.01267  Uiso   1.00
C3     C     0.13000   0.86700   0.78750   0.01267  Uiso   1.00
C4     C     0.31400   0.96200   0.78440   0.01267  Uiso   1.00
C5     C     0.37500   0.10500   0.80200   0.01267  Uiso   1.00
C6     C     0.56000   0.20100   0.79050   0.01267  Uiso   1.00
C7     C     0.09500   0.97600   0.40210   0.01267  Uiso   1.00
C8     C     0.05600   0.97100   0.48630   0.01267  Uiso   1.00
C9     C     0.87000   0.63300   0.28750   0.01267  Uiso   1.00
C10    C     0.68600   0.53800   0.28440   0.01267  Uiso   1.00
C11    C     0.62500   0.39500   0.30200   0.01267  Uiso   1.00
C12    C     0.44000   0.29900   0.29050   0.01267  Uiso   1.00
C13    C     0.09500   0.47600   0.09790   0.01267  Uiso   1.00
C14    C     0.05600   0.47100   0.01370   0.01267  Uiso   1.00
C15    C     0.87000   0.13300   0.21250   0.01267  Uiso   1.00
C16    C     0.68600   0.03800   0.21560   0.01267  Uiso   1.00
C17    C     0.62500   0.89500   0.19800   0.01267  Uiso   1.00
C18    C     0.44000   0.79900   0.20950   0.01267  Uiso   1.00
C19    C     0.90500   0.02400   0.59790   0.01267  Uiso   1.00
C20    C     0.94400   0.02900   0.51370   0.01267  Uiso   1.00
C21    C     0.13000   0.36700   0.71250   0.01267  Uiso   1.00
C22    C     0.31400   0.46200   0.71560   0.01267  Uiso   1.00
C23    C     0.37500   0.60500   0.69800   0.01267  Uiso   1.00
C24    C     0.56000   0.70100   0.70950   0.01267  Uiso   1.00
O1     O     0.96300   0.45370   0.85560   0.01267  Uiso   1.00
O2     O     0.81300   0.59140   0.87810   0.01267  Uiso   1.00
O3     O     0.09000   0.73300   0.76920   0.01267  Uiso   1.00
O4     O     0.02510   0.92410   0.80610   0.01267  Uiso   1.00
O5     O     0.66100   0.14300   0.77100   0.01267  Uiso   1.00
O6     O     0.60100   0.33830   0.79790   0.01267  Uiso   1.00
O7     O     0.03700   0.04630   0.35560   0.01267  Uiso   1.00
O8     O     0.18700   0.90860   0.37810   0.01267  Uiso   1.00
O9     O     0.91000   0.76700   0.26920   0.01267  Uiso   1.00
O10    O     0.97490   0.57590   0.30610   0.01267  Uiso   1.00
O11    O     0.33900   0.35700   0.27100   0.01267  Uiso   1.00
O12    O     0.39900   0.16170   0.29790   0.01267  Uiso   1.00
O13    O     0.03700   0.54630   0.14440   0.01267  Uiso   1.00
O14    O     0.18700   0.40860   0.12190   0.01267  Uiso   1.00
O15    O     0.91000   0.26700   0.23080   0.01267  Uiso   1.00
O16    O     0.97490   0.07590   0.19390   0.01267  Uiso   1.00
O17    O     0.33900   0.85700   0.22900   0.01267  Uiso   1.00
O18    O     0.39900   0.66170   0.20210   0.01267  Uiso   1.00
O19    O     0.96300   0.95370   0.64440   0.01267  Uiso   1.00
O20    O     0.81300   0.09140   0.62190   0.01267  Uiso   1.00
O21    O     0.09000   0.23300   0.73080   0.01267  Uiso   1.00
O22    O     0.02510   0.42410   0.69390   0.01267  Uiso   1.00
O23    O     0.66100   0.64300   0.72900   0.01267  Uiso   1.00
O24    O     0.60100   0.83830   0.70210   0.01267  Uiso   1.00
H1     H     0.87965   0.58184   0.02839   0.01267  Uiso   1.00
H2     H     0.41075   0.91243   0.76614   0.01267  Uiso   1.00
H3     H     0.28660   0.15826   0.82654   0.01267  Uiso   1.00
H4     H     0.12035   0.91816   0.52839   0.01267  Uiso   1.00
H5     H     0.58925   0.58757   0.26614   0.01267  Uiso   1.00
H6     H     0.71340   0.34174   0.32654   0.01267  Uiso   1.00
H7     H     0.12035   0.41816   0.97161   0.01267  Uiso   1.00
H8     H     0.58925   0.08757   0.23386   0.01267  Uiso   1.00
H9     H     0.71340   0.84174   0.17346   0.01267  Uiso   1.00
H10    H     0.41075   0.41243   0.73386   0.01267  Uiso   1.00
H11    H     0.28660   0.65826   0.67346   0.01267  Uiso   1.00
