data_image0
_cell_length_a       14.226
_cell_length_b       15.117
_cell_length_c       17.557
_cell_angle_alpha    90
_cell_angle_beta     90
_cell_angle_gamma    90

_symmetry_space_group_name_H-M    "P 1"
_symmetry_int_tables_number       1

loop_
  _symmetry_equiv_pos_as_xyz
  'x, y, z'

loop_
  _atom_site_label
  _atom_site_occupancy
  _atom_site_fract_x
  _atom_site_fract_y
  _atom_site_fract_z
  _atom_site_thermal_displace_type
  _atom_site_B_iso_or_equiv
  _atom_site_type_symbol
  Zn1      1.0000 0.05320  0.72420  0.34100  Biso   1.000  Zn
  Al1      1.0000 0.94470  0.40220  0.43770  Biso   1.000  Al
  Al2      1.0000 0.07660  0.10450  0.43060  Biso   1.000  Al
  Al3      1.0000 0.71110  0.65970  0.46220  Biso   1.000  Al
  P1       1.0000 0.05010  0.90480  0.42620  Biso   1.000  P
  P2       1.0000 0.91500  0.60020  0.42500  Biso   1.000  P
  P3       1.0000 0.06080  0.72930  0.15880  Biso   1.000  P
  P4       1.0000 0.21480  0.66080  0.45060  Biso   1.000  P
  O1       1.0000 0.04320  0.00010  0.39750  Biso   1.000  O
  O2       1.0000 0.94470  0.50840  0.39940  Biso   1.000  O
  O3       1.0000 0.05230  0.83940  0.35700  Biso   1.000  O
  O4       1.0000 0.05580  0.82850  0.13710  Biso   1.000  O
  O5       1.0000 0.95060  0.67030  0.37030  Biso   1.000  O
  O6       1.0000 0.97210  0.68310  0.12910  Biso   1.000  O
  O7       1.0000 0.30300  0.60630  0.42700  Biso   1.000  O
  O8       1.0000 0.80630  0.60530  0.43510  Biso   1.000  O
  O9       1.0000 0.95730  0.61680  0.50490  Biso   1.000  O
  O10      1.0000 0.96410  0.88260  0.47530  Biso   1.000  O
  O11      1.0000 0.16170  0.60580  0.51020  Biso   1.000  O
  O12      1.0000 0.07220  0.71580  0.24260  Biso   1.000  O
  O13      1.0000 0.15140  0.67150  0.38170  Biso   1.000  O
  O14      1.0000 0.24730  0.74630  0.48640  Biso   1.000  O
  O15      1.0000 0.13970  0.89980  0.47700  Biso   1.000  O
  O16      1.0000 0.14960  0.69360  0.11810  Biso   1.000  O
  Zn2      1.0000 0.44680  0.27580  0.84100  Biso   1.000  Zn
  Al4      1.0000 0.55530  0.59780  0.93770  Biso   1.000  Al
  Al5      1.0000 0.42340  0.89550  0.93060  Biso   1.000  Al
  Al6      1.0000 0.78890  0.34030  0.96220  Biso   1.000  Al
  P5       1.0000 0.44990  0.09520  0.92620  Biso   1.000  P
  P6       1.0000 0.58500  0.39980  0.92500  Biso   1.000  P
  P7       1.0000 0.43920  0.27070  0.65880  Biso   1.000  P
  P8       1.0000 0.28520  0.33920  0.95060  Biso   1.000  P
  O17      1.0000 0.45680  0.99990  0.89750  Biso   1.000  O
  O18      1.0000 0.55530  0.49160  0.89940  Biso   1.000  O
  O19      1.0000 0.44770  0.16060  0.85700  Biso   1.000  O
  O20      1.0000 0.44420  0.17150  0.63710  Biso   1.000  O
  O21      1.0000 0.54940  0.32970  0.87030  Biso   1.000  O
  O22      1.0000 0.52790  0.31690  0.62910  Biso   1.000  O
  O23      1.0000 0.19700  0.39370  0.92700  Biso   1.000  O
  O24      1.0000 0.69370  0.39470  0.93510  Biso   1.000  O
  O25      1.0000 0.54270  0.38320  0.00490  Biso   1.000  O
  O26      1.0000 0.53590  0.11740  0.97530  Biso   1.000  O
  O27      1.0000 0.33830  0.39420  0.01020  Biso   1.000  O
  O28      1.0000 0.42780  0.28420  0.74260  Biso   1.000  O
  O29      1.0000 0.34860  0.32850  0.88170  Biso   1.000  O
  O30      1.0000 0.25270  0.25370  0.98640  Biso   1.000  O
  O31      1.0000 0.36030  0.10020  0.97700  Biso   1.000  O
  O32      1.0000 0.35040  0.30640  0.61810  Biso   1.000  O
  Zn3      1.0000 0.94680  0.22420  0.15900  Biso   1.000  Zn
  Al7      1.0000 0.05530  0.90220  0.06230  Biso   1.000  Al
  Al8      1.0000 0.92340  0.60450  0.06940  Biso   1.000  Al
  Al9      1.0000 0.28890  0.15970  0.03780  Biso   1.000  Al
  P9       1.0000 0.94990  0.40480  0.07380  Biso   1.000  P
  P10      1.0000 0.08500  0.10020  0.07500  Biso   1.000  P
  P11      1.0000 0.93920  0.22930  0.34120  Biso   1.000  P
  P12      1.0000 0.78520  0.16080  0.04940  Biso   1.000  P
  O33      1.0000 0.95680  0.50010  0.10250  Biso   1.000  O
  O34      1.0000 0.05530  0.00840  0.10060  Biso   1.000  O
  O35      1.0000 0.94770  0.33940  0.14300  Biso   1.000  O
  O36      1.0000 0.94420  0.32850  0.36290  Biso   1.000  O
  O37      1.0000 0.04940  0.17030  0.12970  Biso   1.000  O
  O38      1.0000 0.02790  0.18310  0.37090  Biso   1.000  O
  O39      1.0000 0.69700  0.10630  0.07300  Biso   1.000  O
  O40      1.0000 0.19370  0.10530  0.06490  Biso   1.000  O
  O41      1.0000 0.04270  0.11680  0.99510  Biso   1.000  O
  O42      1.0000 0.03590  0.38260  0.02470  Biso   1.000  O
  O43      1.0000 0.83830  0.10580  0.98980  Biso   1.000  O
  O44      1.0000 0.92780  0.21580  0.25740  Biso   1.000  O
  O45      1.0000 0.84860  0.17150  0.11830  Biso   1.000  O
  O46      1.0000 0.75270  0.24630  0.01360  Biso   1.000  O
  O47      1.0000 0.86030  0.39980  0.02300  Biso   1.000  O
  O48      1.0000 0.85040  0.19360  0.38190  Biso   1.000  O
  Zn4      1.0000 0.55320  0.77580  0.65900  Biso   1.000  Zn
  Al10     1.0000 0.44470  0.09780  0.56230  Biso   1.000  Al
  Al11     1.0000 0.57660  0.39550  0.56940  Biso   1.000  Al
  Al12     1.0000 0.21110  0.84030  0.53780  Biso   1.000  Al
  P13      1.0000 0.55010  0.59520  0.57380  Biso   1.000  P
  P14      1.0000 0.41500  0.89980  0.57500  Biso   1.000  P
  P15      1.0000 0.56080  0.77070  0.84120  Biso   1.000  P
  P16      1.0000 0.71480  0.83920  0.54940  Biso   1.000  P
  O49      1.0000 0.54320  0.49990  0.60250  Biso   1.000  O
  O50      1.0000 0.44470  0.99160  0.60060  Biso   1.000  O
  O51      1.0000 0.55230  0.66060  0.64300  Biso   1.000  O
  O52      1.0000 0.55580  0.67150  0.86290  Biso   1.000  O
  O53      1.0000 0.45060  0.82970  0.62970  Biso   1.000  O
  O54      1.0000 0.47210  0.81690  0.87090  Biso   1.000  O
  O55      1.0000 0.80300  0.89370  0.57300  Biso   1.000  O
  O56      1.0000 0.30630  0.89470  0.56490  Biso   1.000  O
  O57      1.0000 0.45730  0.88320  0.49510  Biso   1.000  O
  O58      1.0000 0.46410  0.61740  0.52470  Biso   1.000  O
  O59      1.0000 0.66170  0.89420  0.48980  Biso   1.000  O
  O60      1.0000 0.57220  0.78420  0.75740  Biso   1.000  O
  O61      1.0000 0.65140  0.82850  0.61830  Biso   1.000  O
  O62      1.0000 0.74730  0.75370  0.51360  Biso   1.000  O
  O63      1.0000 0.63970  0.60020  0.52300  Biso   1.000  O
  O64      1.0000 0.64960  0.80640  0.88190  Biso   1.000  O
  Zn5      1.0000 0.94680  0.27580  0.65900  Biso   1.000  Zn
  Al13     1.0000 0.05530  0.59780  0.56230  Biso   1.000  Al
  Al14     1.0000 0.92340  0.89550  0.56940  Biso   1.000  Al
  Al15     1.0000 0.28890  0.34030  0.53780  Biso   1.000  Al
  P17      1.0000 0.94990  0.09520  0.57380  Biso   1.000  P
  P18      1.0000 0.08500  0.39980  0.57500  Biso   1.000  P
  P19      1.0000 0.93920  0.27070  0.84120  Biso   1.000  P
  P20      1.0000 0.78520  0.33920  0.54940  Biso   1.000  P
  O65      1.0000 0.95680  0.99990  0.60250  Biso   1.000  O
  O66      1.0000 0.05530  0.49160  0.60060  Biso   1.000  O
  O67      1.0000 0.94770  0.16060  0.64300  Biso   1.000  O
  O68      1.0000 0.94420  0.17150  0.86290  Biso   1.000  O
  O69      1.0000 0.04940  0.32970  0.62970  Biso   1.000  O
  O70      1.0000 0.02790  0.31690  0.87090  Biso   1.000  O
  O71      1.0000 0.69700  0.39370  0.57300  Biso   1.000  O
  O72      1.0000 0.19370  0.39470  0.56490  Biso   1.000  O
  O73      1.0000 0.04270  0.38320  0.49510  Biso   1.000  O
  O74      1.0000 0.03590  0.11740  0.52470  Biso   1.000  O
  O75      1.0000 0.83830  0.39420  0.48980  Biso   1.000  O
  O76      1.0000 0.92780  0.28420  0.75740  Biso   1.000  O
  O77      1.0000 0.84860  0.32850  0.61830  Biso   1.000  O
  O78      1.0000 0.75270  0.25370  0.51360  Biso   1.000  O
  O79      1.0000 0.86030  0.10020  0.52300  Biso   1.000  O
  O80      1.0000 0.85040  0.30640  0.88190  Biso   1.000  O
  Zn6      1.0000 0.55320  0.72420  0.15900  Biso   1.000  Zn
  Al16     1.0000 0.44470  0.40220  0.06230  Biso   1.000  Al
  Al17     1.0000 0.57660  0.10450  0.06940  Biso   1.000  Al
  Al18     1.0000 0.21110  0.65970  0.03780  Biso   1.000  Al
  P21      1.0000 0.55010  0.90480  0.07380  Biso   1.000  P
  P22      1.0000 0.41500  0.60020  0.07500  Biso   1.000  P
  P23      1.0000 0.56080  0.72930  0.34120  Biso   1.000  P
  P24      1.0000 0.71480  0.66080  0.04940  Biso   1.000  P
  O81      1.0000 0.54320  0.00010  0.10250  Biso   1.000  O
  O82      1.0000 0.44470  0.50840  0.10060  Biso   1.000  O
  O83      1.0000 0.55230  0.83940  0.14300  Biso   1.000  O
  O84      1.0000 0.55580  0.82850  0.36290  Biso   1.000  O
  O85      1.0000 0.45060  0.67030  0.12970  Biso   1.000  O
  O86      1.0000 0.47210  0.68310  0.37090  Biso   1.000  O
  O87      1.0000 0.80300  0.60630  0.07300  Biso   1.000  O
  O88      1.0000 0.30630  0.60530  0.06490  Biso   1.000  O
  O89      1.0000 0.45730  0.61680  0.99510  Biso   1.000  O
  O90      1.0000 0.46410  0.88260  0.02470  Biso   1.000  O
  O91      1.0000 0.66170  0.60580  0.98980  Biso   1.000  O
  O92      1.0000 0.57220  0.71580  0.25740  Biso   1.000  O
  O93      1.0000 0.65140  0.67150  0.11830  Biso   1.000  O
  O94      1.0000 0.74730  0.74630  0.01360  Biso   1.000  O
  O95      1.0000 0.63970  0.89980  0.02300  Biso   1.000  O
  O96      1.0000 0.64960  0.69360  0.38190  Biso   1.000  O
  Zn7      1.0000 0.05320  0.77580  0.84100  Biso   1.000  Zn
  Al19     1.0000 0.94470  0.09780  0.93770  Biso   1.000  Al
  Al20     1.0000 0.07660  0.39550  0.93060  Biso   1.000  Al
  Al21     1.0000 0.71110  0.84030  0.96220  Biso   1.000  Al
  P25      1.0000 0.05010  0.59520  0.92620  Biso   1.000  P
  P26      1.0000 0.91500  0.89980  0.92500  Biso   1.000  P
  P27      1.0000 0.06080  0.77070  0.65880  Biso   1.000  P
  P28      1.0000 0.21480  0.83920  0.95060  Biso   1.000  P
  O97      1.0000 0.04320  0.49990  0.89750  Biso   1.000  O
  O98      1.0000 0.94470  0.99160  0.89940  Biso   1.000  O
  O99      1.0000 0.05230  0.66060  0.85700  Biso   1.000  O
  O100     1.0000 0.05580  0.67150  0.63710  Biso   1.000  O
  O101     1.0000 0.95060  0.82970  0.87030  Biso   1.000  O
  O102     1.0000 0.97210  0.81690  0.62910  Biso   1.000  O
  O103     1.0000 0.30300  0.89370  0.92700  Biso   1.000  O
  O104     1.0000 0.80630  0.89470  0.93510  Biso   1.000  O
  O105     1.0000 0.95730  0.88320  0.00490  Biso   1.000  O
  O106     1.0000 0.96410  0.61740  0.97530  Biso   1.000  O
  O107     1.0000 0.16170  0.89420  0.01020  Biso   1.000  O
  O108     1.0000 0.07220  0.78420  0.74260  Biso   1.000  O
  O109     1.0000 0.15140  0.82850  0.88170  Biso   1.000  O
  O110     1.0000 0.24730  0.75370  0.98640  Biso   1.000  O
  O111     1.0000 0.13970  0.60020  0.97700  Biso   1.000  O
  O112     1.0000 0.14960  0.80640  0.61810  Biso   1.000  O
  Zn8      1.0000 0.44680  0.22420  0.34100  Biso   1.000  Zn
  Al22     1.0000 0.55530  0.90220  0.43770  Biso   1.000  Al
  Al23     1.0000 0.42340  0.60450  0.43060  Biso   1.000  Al
  Al24     1.0000 0.78890  0.15970  0.46220  Biso   1.000  Al
  P29      1.0000 0.44990  0.40480  0.42620  Biso   1.000  P
  P30      1.0000 0.58500  0.10020  0.42500  Biso   1.000  P
  P31      1.0000 0.43920  0.22930  0.15880  Biso   1.000  P
  P32      1.0000 0.28520  0.16080  0.45060  Biso   1.000  P
  O113     1.0000 0.45680  0.50010  0.39750  Biso   1.000  O
  O114     1.0000 0.55530  0.00840  0.39940  Biso   1.000  O
  O115     1.0000 0.44770  0.33940  0.35700  Biso   1.000  O
  O116     1.0000 0.44420  0.32850  0.13710  Biso   1.000  O
  O117     1.0000 0.54940  0.17030  0.37030  Biso   1.000  O
  O118     1.0000 0.52790  0.18310  0.12910  Biso   1.000  O
  O119     1.0000 0.19700  0.10630  0.42700  Biso   1.000  O
  O120     1.0000 0.69370  0.10530  0.43510  Biso   1.000  O
  O121     1.0000 0.54270  0.11680  0.50490  Biso   1.000  O
  O122     1.0000 0.53590  0.38260  0.47530  Biso   1.000  O
  O123     1.0000 0.33830  0.10580  0.51020  Biso   1.000  O
  O124     1.0000 0.42780  0.21580  0.24260  Biso   1.000  O
  O125     1.0000 0.34860  0.17150  0.38170  Biso   1.000  O
  O126     1.0000 0.25270  0.24630  0.48640  Biso   1.000  O
  O127     1.0000 0.36030  0.39980  0.47700  Biso   1.000  O
  O128     1.0000 0.35040  0.19360  0.11810  Biso   1.000  O
