data_image0
_cell_length_a       19.7595
_cell_length_b       17.5176
_cell_length_c       22.161
_cell_angle_alpha    90
_cell_angle_beta     109.786
_cell_angle_gamma    90

_symmetry_space_group_name_H-M    "P 1"
_symmetry_int_tables_number       1

loop_
  _symmetry_equiv_pos_as_xyz
  'x, y, z'

loop_
  _atom_site_label
  _atom_site_occupancy
  _atom_site_fract_x
  _atom_site_fract_y
  _atom_site_fract_z
  _atom_site_thermal_displace_type
  _atom_site_B_iso_or_equiv
  _atom_site_type_symbol
  Cu1      1.0000 0.86724  0.82068  0.16592  Biso   1.000  Cu
  C1       1.0000 0.70980  0.09670  0.31732  Biso   1.000  C
  H1       1.0000 0.72960  0.05670  0.34540  Biso   1.000  H
  C2       1.0000 0.68460  0.16070  0.33900  Biso   1.000  C
  H2       1.0000 0.68840  0.16270  0.38190  Biso   1.000  H
  N1       1.0000 0.65490  0.22034  0.30140  Biso   1.000  N
  C3       1.0000 0.64870  0.21450  0.24002  Biso   1.000  C
  H3       1.0000 0.62590  0.25380  0.21250  Biso   1.000  H
  C4       1.0000 0.67430  0.15310  0.21470  Biso   1.000  C
  H4       1.0000 0.67040  0.15290  0.17170  Biso   1.000  H
  C5       1.0000 0.70600  0.09160  0.25420  Biso   1.000  C
  C6       1.0000 0.73860  0.02690  0.23086  Biso   1.000  C
  C7       1.0000 0.77660  0.03960  0.18960  Biso   1.000  C
  H5       1.0000 0.77920  0.08850  0.17420  Biso   1.000  H
  C8       1.0000 0.81050  0.97990  0.17150  Biso   1.000  C
  H6       1.0000 0.83690  0.99040  0.14490  Biso   1.000  H
  N2       1.0000 0.80773  0.90758  0.18988  Biso   1.000  N
  C9       1.0000 0.76870  0.89570  0.22786  Biso   1.000  C
  H7       1.0000 0.76430  0.84580  0.24030  Biso   1.000  H
  C10      1.0000 0.73450  0.95260  0.25000  Biso   1.000  C
  H8       1.0000 0.70920  0.94090  0.27730  Biso   1.000  H
  C11      1.0000 0.40560  0.49940  0.89100  Biso   1.000  C
  H9       1.0000 0.36790  0.52280  0.90010  Biso   1.000  H
  C12      1.0000 0.33980  0.39310  0.04030  Biso   1.000  C
  H10      1.0000 0.29480  0.40320  0.04320  Biso   1.000  H
  C13      1.0000 0.35560  0.42240  0.98900  Biso   1.000  C
  C14      1.0000 0.42140  0.40790  0.98208  Biso   1.000  C
  C15      1.0000 0.44070  0.43850  0.92743  Biso   1.000  C
  C16      1.0000 0.49540  0.40650  0.91010  Biso   1.000  C
  H11      1.0000 0.52170  0.36580  0.93350  Biso   1.000  H
  C17      1.0000 0.44910  0.33670  0.07880  Biso   1.000  C
  H12      1.0000 0.48200  0.30670  0.10970  Biso   1.000  H
  C18      1.0000 0.46870  0.36300  0.02920  Biso   1.000  C
  C19      1.0000 0.51120  0.43440  0.85830  Biso   1.000  C
  N3       1.0000 0.47711  0.49392  0.82322  Biso   1.000  N
  H13      1.0000 0.51370  0.35090  0.02700  Biso   1.000  H
  C20      1.0000 0.42570  0.52580  0.84130  Biso   1.000  C
  N4       1.0000 0.38600  0.35070  0.08621  Biso   1.000  N
  H14      1.0000 0.40210  0.56850  0.81890  Biso   1.000  H
  H15      1.0000 0.54730  0.41070  0.84710  Biso   1.000  H
  H16      1.0000 0.32180  0.45220  0.95870  Biso   1.000  H
  Cu2      1.0000 0.36724  0.32068  0.16592  Biso   1.000  Cu
  C21      1.0000 0.20980  0.59670  0.31732  Biso   1.000  C
  H17      1.0000 0.22960  0.55670  0.34540  Biso   1.000  H
  C22      1.0000 0.18460  0.66070  0.33900  Biso   1.000  C
  H18      1.0000 0.18840  0.66270  0.38190  Biso   1.000  H
  N5       1.0000 0.15490  0.72034  0.30140  Biso   1.000  N
  C23      1.0000 0.14870  0.71450  0.24002  Biso   1.000  C
  H19      1.0000 0.12590  0.75380  0.21250  Biso   1.000  H
  C24      1.0000 0.17430  0.65310  0.21470  Biso   1.000  C
  H20      1.0000 0.17040  0.65290  0.17170  Biso   1.000  H
  C25      1.0000 0.20600  0.59160  0.25420  Biso   1.000  C
  C26      1.0000 0.23860  0.52690  0.23086  Biso   1.000  C
  C27      1.0000 0.27660  0.53960  0.18960  Biso   1.000  C
  H21      1.0000 0.27920  0.58850  0.17420  Biso   1.000  H
  C28      1.0000 0.31050  0.47990  0.17150  Biso   1.000  C
  H22      1.0000 0.33690  0.49040  0.14490  Biso   1.000  H
  N6       1.0000 0.30773  0.40758  0.18988  Biso   1.000  N
  C29      1.0000 0.26870  0.39570  0.22786  Biso   1.000  C
  H23      1.0000 0.26430  0.34580  0.24030  Biso   1.000  H
  C30      1.0000 0.23450  0.45260  0.25000  Biso   1.000  C
  H24      1.0000 0.20920  0.44090  0.27730  Biso   1.000  H
  C31      1.0000 0.90560  0.99940  0.89100  Biso   1.000  C
  H25      1.0000 0.86790  0.02280  0.90010  Biso   1.000  H
  C32      1.0000 0.83980  0.89310  0.04030  Biso   1.000  C
  H26      1.0000 0.79480  0.90320  0.04320  Biso   1.000  H
  C33      1.0000 0.85560  0.92240  0.98900  Biso   1.000  C
  C34      1.0000 0.92140  0.90790  0.98208  Biso   1.000  C
  C35      1.0000 0.94070  0.93850  0.92743  Biso   1.000  C
  C36      1.0000 0.99540  0.90650  0.91010  Biso   1.000  C
  H27      1.0000 0.02170  0.86580  0.93350  Biso   1.000  H
  C37      1.0000 0.94910  0.83670  0.07880  Biso   1.000  C
  H28      1.0000 0.98200  0.80670  0.10970  Biso   1.000  H
  C38      1.0000 0.96870  0.86300  0.02920  Biso   1.000  C
  C39      1.0000 0.01120  0.93440  0.85830  Biso   1.000  C
  N7       1.0000 0.97711  0.99392  0.82322  Biso   1.000  N
  H29      1.0000 0.01370  0.85090  0.02700  Biso   1.000  H
  C40      1.0000 0.92570  0.02580  0.84130  Biso   1.000  C
  N8       1.0000 0.88600  0.85070  0.08621  Biso   1.000  N
  H30      1.0000 0.90210  0.06850  0.81890  Biso   1.000  H
  H31      1.0000 0.04730  0.91070  0.84710  Biso   1.000  H
  H32      1.0000 0.82180  0.95220  0.95870  Biso   1.000  H
  Cu3      1.0000 0.13276  0.82068  0.33408  Biso   1.000  Cu
  C41      1.0000 0.29020  0.09670  0.18268  Biso   1.000  C
  H33      1.0000 0.27040  0.05670  0.15460  Biso   1.000  H
  C42      1.0000 0.31540  0.16070  0.16100  Biso   1.000  C
  H34      1.0000 0.31160  0.16270  0.11810  Biso   1.000  H
  N9       1.0000 0.34510  0.22034  0.19860  Biso   1.000  N
  C43      1.0000 0.35130  0.21450  0.25998  Biso   1.000  C
  H35      1.0000 0.37410  0.25380  0.28750  Biso   1.000  H
  C44      1.0000 0.32570  0.15310  0.28530  Biso   1.000  C
  H36      1.0000 0.32960  0.15290  0.32830  Biso   1.000  H
  C45      1.0000 0.29400  0.09160  0.24580  Biso   1.000  C
  C46      1.0000 0.26140  0.02690  0.26914  Biso   1.000  C
  C47      1.0000 0.22340  0.03960  0.31040  Biso   1.000  C
  H37      1.0000 0.22080  0.08850  0.32580  Biso   1.000  H
  C48      1.0000 0.18950  0.97990  0.32850  Biso   1.000  C
  H38      1.0000 0.16310  0.99040  0.35510  Biso   1.000  H
  N10      1.0000 0.19227  0.90758  0.31012  Biso   1.000  N
  C49      1.0000 0.23130  0.89570  0.27214  Biso   1.000  C
  H39      1.0000 0.23570  0.84580  0.25970  Biso   1.000  H
  C50      1.0000 0.26550  0.95260  0.25000  Biso   1.000  C
  H40      1.0000 0.29080  0.94090  0.22270  Biso   1.000  H
  C51      1.0000 0.59440  0.49940  0.60900  Biso   1.000  C
  H41      1.0000 0.63210  0.52280  0.59990  Biso   1.000  H
  C52      1.0000 0.66020  0.39310  0.45970  Biso   1.000  C
  H42      1.0000 0.70520  0.40320  0.45680  Biso   1.000  H
  C53      1.0000 0.64440  0.42240  0.51100  Biso   1.000  C
  C54      1.0000 0.57860  0.40790  0.51792  Biso   1.000  C
  C55      1.0000 0.55930  0.43850  0.57257  Biso   1.000  C
  C56      1.0000 0.50460  0.40650  0.58990  Biso   1.000  C
  H43      1.0000 0.47830  0.36580  0.56650  Biso   1.000  H
  C57      1.0000 0.55090  0.33670  0.42120  Biso   1.000  C
  H44      1.0000 0.51800  0.30670  0.39030  Biso   1.000  H
  C58      1.0000 0.53130  0.36300  0.47080  Biso   1.000  C
  C59      1.0000 0.48880  0.43440  0.64170  Biso   1.000  C
  N11      1.0000 0.52289  0.49392  0.67678  Biso   1.000  N
  H45      1.0000 0.48630  0.35090  0.47300  Biso   1.000  H
  C60      1.0000 0.57430  0.52580  0.65870  Biso   1.000  C
  N12      1.0000 0.61400  0.35070  0.41379  Biso   1.000  N
  H46      1.0000 0.59790  0.56850  0.68110  Biso   1.000  H
  H47      1.0000 0.45270  0.41070  0.65290  Biso   1.000  H
  H48      1.0000 0.67820  0.45220  0.54130  Biso   1.000  H
  Cu4      1.0000 0.63276  0.32068  0.33408  Biso   1.000  Cu
  C61      1.0000 0.79020  0.59670  0.18268  Biso   1.000  C
  H49      1.0000 0.77040  0.55670  0.15460  Biso   1.000  H
  C62      1.0000 0.81540  0.66070  0.16100  Biso   1.000  C
  H50      1.0000 0.81160  0.66270  0.11810  Biso   1.000  H
  N13      1.0000 0.84510  0.72034  0.19860  Biso   1.000  N
  C63      1.0000 0.85130  0.71450  0.25998  Biso   1.000  C
  H51      1.0000 0.87410  0.75380  0.28750  Biso   1.000  H
  C64      1.0000 0.82570  0.65310  0.28530  Biso   1.000  C
  H52      1.0000 0.82960  0.65290  0.32830  Biso   1.000  H
  C65      1.0000 0.79400  0.59160  0.24580  Biso   1.000  C
  C66      1.0000 0.76140  0.52690  0.26914  Biso   1.000  C
  C67      1.0000 0.72340  0.53960  0.31040  Biso   1.000  C
  H53      1.0000 0.72080  0.58850  0.32580  Biso   1.000  H
  C68      1.0000 0.68950  0.47990  0.32850  Biso   1.000  C
  H54      1.0000 0.66310  0.49040  0.35510  Biso   1.000  H
  N14      1.0000 0.69227  0.40758  0.31012  Biso   1.000  N
  C69      1.0000 0.73130  0.39570  0.27214  Biso   1.000  C
  H55      1.0000 0.73570  0.34580  0.25970  Biso   1.000  H
  C70      1.0000 0.76550  0.45260  0.25000  Biso   1.000  C
  H56      1.0000 0.79080  0.44090  0.22270  Biso   1.000  H
  C71      1.0000 0.09440  0.99940  0.60900  Biso   1.000  C
  H57      1.0000 0.13210  0.02280  0.59990  Biso   1.000  H
  C72      1.0000 0.16020  0.89310  0.45970  Biso   1.000  C
  H58      1.0000 0.20520  0.90320  0.45680  Biso   1.000  H
  C73      1.0000 0.14440  0.92240  0.51100  Biso   1.000  C
  C74      1.0000 0.07860  0.90790  0.51792  Biso   1.000  C
  C75      1.0000 0.05930  0.93850  0.57257  Biso   1.000  C
  C76      1.0000 0.00460  0.90650  0.58990  Biso   1.000  C
  H59      1.0000 0.97830  0.86580  0.56650  Biso   1.000  H
  C77      1.0000 0.05090  0.83670  0.42120  Biso   1.000  C
  H60      1.0000 0.01800  0.80670  0.39030  Biso   1.000  H
  C78      1.0000 0.03130  0.86300  0.47080  Biso   1.000  C
  C79      1.0000 0.98880  0.93440  0.64170  Biso   1.000  C
  N15      1.0000 0.02289  0.99392  0.67678  Biso   1.000  N
  H61      1.0000 0.98630  0.85090  0.47300  Biso   1.000  H
  C80      1.0000 0.07430  0.02580  0.65870  Biso   1.000  C
  N16      1.0000 0.11400  0.85070  0.41379  Biso   1.000  N
  H62      1.0000 0.09790  0.06850  0.68110  Biso   1.000  H
  H63      1.0000 0.95270  0.91070  0.65290  Biso   1.000  H
  H64      1.0000 0.17820  0.95220  0.54130  Biso   1.000  H
  Cl1      1.0000 0.50000  0.66573  0.75000  Biso   1.000  Cl
  Cl2      1.0000 0.00000  0.16573  0.75000  Biso   1.000  Cl
  Cu5      1.0000 0.50000  0.53255  0.75000  Biso   1.000  Cu
  Cu6      1.0000 0.00000  0.03255  0.75000  Biso   1.000  Cu
  Cu7      1.0000 0.13276  0.17932  0.83408  Biso   1.000  Cu
  C81      1.0000 0.29020  0.90330  0.68268  Biso   1.000  C
  H65      1.0000 0.27040  0.94330  0.65460  Biso   1.000  H
  C82      1.0000 0.31540  0.83930  0.66100  Biso   1.000  C
  H66      1.0000 0.31160  0.83730  0.61810  Biso   1.000  H
  N17      1.0000 0.34510  0.77966  0.69860  Biso   1.000  N
  C83      1.0000 0.35130  0.78550  0.75998  Biso   1.000  C
  H67      1.0000 0.37410  0.74620  0.78750  Biso   1.000  H
  C84      1.0000 0.32570  0.84690  0.78530  Biso   1.000  C
  H68      1.0000 0.32960  0.84710  0.82830  Biso   1.000  H
  C85      1.0000 0.29400  0.90840  0.74580  Biso   1.000  C
  C86      1.0000 0.26140  0.97310  0.76914  Biso   1.000  C
  C87      1.0000 0.22340  0.96040  0.81040  Biso   1.000  C
  H69      1.0000 0.22080  0.91150  0.82580  Biso   1.000  H
  C88      1.0000 0.18950  0.02010  0.82850  Biso   1.000  C
  H70      1.0000 0.16310  0.00960  0.85510  Biso   1.000  H
  N18      1.0000 0.19227  0.09242  0.81012  Biso   1.000  N
  C89      1.0000 0.23130  0.10430  0.77214  Biso   1.000  C
  H71      1.0000 0.23570  0.15420  0.75970  Biso   1.000  H
  C90      1.0000 0.26550  0.04740  0.75000  Biso   1.000  C
  H72      1.0000 0.29080  0.05910  0.72270  Biso   1.000  H
  C91      1.0000 0.59440  0.50060  0.10900  Biso   1.000  C
  H73      1.0000 0.63210  0.47720  0.09990  Biso   1.000  H
  C92      1.0000 0.66020  0.60690  0.95970  Biso   1.000  C
  H74      1.0000 0.70520  0.59680  0.95680  Biso   1.000  H
  C93      1.0000 0.64440  0.57760  0.01100  Biso   1.000  C
  C94      1.0000 0.57860  0.59210  0.01792  Biso   1.000  C
  C95      1.0000 0.55930  0.56150  0.07257  Biso   1.000  C
  C96      1.0000 0.50460  0.59350  0.08990  Biso   1.000  C
  H75      1.0000 0.47830  0.63420  0.06650  Biso   1.000  H
  C97      1.0000 0.55090  0.66330  0.92120  Biso   1.000  C
  H76      1.0000 0.51800  0.69330  0.89030  Biso   1.000  H
  C98      1.0000 0.53130  0.63700  0.97080  Biso   1.000  C
  C99      1.0000 0.48880  0.56560  0.14170  Biso   1.000  C
  N19      1.0000 0.52289  0.50608  0.17678  Biso   1.000  N
  H77      1.0000 0.48630  0.64910  0.97300  Biso   1.000  H
  C100     1.0000 0.57430  0.47420  0.15870  Biso   1.000  C
  N20      1.0000 0.61400  0.64930  0.91379  Biso   1.000  N
  H78      1.0000 0.59790  0.43150  0.18110  Biso   1.000  H
  H79      1.0000 0.45270  0.58930  0.15290  Biso   1.000  H
  H80      1.0000 0.67820  0.54780  0.04130  Biso   1.000  H
  Cu8      1.0000 0.63276  0.67932  0.83408  Biso   1.000  Cu
  C101     1.0000 0.79020  0.40330  0.68268  Biso   1.000  C
  H81      1.0000 0.77040  0.44330  0.65460  Biso   1.000  H
  C102     1.0000 0.81540  0.33930  0.66100  Biso   1.000  C
  H82      1.0000 0.81160  0.33730  0.61810  Biso   1.000  H
  N21      1.0000 0.84510  0.27966  0.69860  Biso   1.000  N
  C103     1.0000 0.85130  0.28550  0.75998  Biso   1.000  C
  H83      1.0000 0.87410  0.24620  0.78750  Biso   1.000  H
  C104     1.0000 0.82570  0.34690  0.78530  Biso   1.000  C
  H84      1.0000 0.82960  0.34710  0.82830  Biso   1.000  H
  C105     1.0000 0.79400  0.40840  0.74580  Biso   1.000  C
  C106     1.0000 0.76140  0.47310  0.76914  Biso   1.000  C
  C107     1.0000 0.72340  0.46040  0.81040  Biso   1.000  C
  H85      1.0000 0.72080  0.41150  0.82580  Biso   1.000  H
  C108     1.0000 0.68950  0.52010  0.82850  Biso   1.000  C
  H86      1.0000 0.66310  0.50960  0.85510  Biso   1.000  H
  N22      1.0000 0.69227  0.59242  0.81012  Biso   1.000  N
  C109     1.0000 0.73130  0.60430  0.77214  Biso   1.000  C
  H87      1.0000 0.73570  0.65420  0.75970  Biso   1.000  H
  C110     1.0000 0.76550  0.54740  0.75000  Biso   1.000  C
  H88      1.0000 0.79080  0.55910  0.72270  Biso   1.000  H
  C111     1.0000 0.09440  0.00060  0.10900  Biso   1.000  C
  H89      1.0000 0.13210  0.97720  0.09990  Biso   1.000  H
  C112     1.0000 0.16020  0.10690  0.95970  Biso   1.000  C
  H90      1.0000 0.20520  0.09680  0.95680  Biso   1.000  H
  C113     1.0000 0.14440  0.07760  0.01100  Biso   1.000  C
  C114     1.0000 0.07860  0.09210  0.01792  Biso   1.000  C
  C115     1.0000 0.05930  0.06150  0.07257  Biso   1.000  C
  C116     1.0000 0.00460  0.09350  0.08990  Biso   1.000  C
  H91      1.0000 0.97830  0.13420  0.06650  Biso   1.000  H
  C117     1.0000 0.05090  0.16330  0.92120  Biso   1.000  C
  H92      1.0000 0.01800  0.19330  0.89030  Biso   1.000  H
  C118     1.0000 0.03130  0.13700  0.97080  Biso   1.000  C
  C119     1.0000 0.98880  0.06560  0.14170  Biso   1.000  C
  N23      1.0000 0.02289  0.00608  0.17678  Biso   1.000  N
  H93      1.0000 0.98630  0.14910  0.97300  Biso   1.000  H
  C120     1.0000 0.07430  0.97420  0.15870  Biso   1.000  C
  N24      1.0000 0.11400  0.14930  0.91379  Biso   1.000  N
  H94      1.0000 0.09790  0.93150  0.18110  Biso   1.000  H
  H95      1.0000 0.95270  0.08930  0.15290  Biso   1.000  H
  H96      1.0000 0.17820  0.04780  0.04130  Biso   1.000  H
  Cu9      1.0000 0.86724  0.17932  0.66592  Biso   1.000  Cu
  C121     1.0000 0.70980  0.90330  0.81732  Biso   1.000  C
  H97      1.0000 0.72960  0.94330  0.84540  Biso   1.000  H
  C122     1.0000 0.68460  0.83930  0.83900  Biso   1.000  C
  H98      1.0000 0.68840  0.83730  0.88190  Biso   1.000  H
  N25      1.0000 0.65490  0.77966  0.80140  Biso   1.000  N
  C123     1.0000 0.64870  0.78550  0.74002  Biso   1.000  C
  H99      1.0000 0.62590  0.74620  0.71250  Biso   1.000  H
  C124     1.0000 0.67430  0.84690  0.71470  Biso   1.000  C
  H100     1.0000 0.67040  0.84710  0.67170  Biso   1.000  H
  C125     1.0000 0.70600  0.90840  0.75420  Biso   1.000  C
  C126     1.0000 0.73860  0.97310  0.73086  Biso   1.000  C
  C127     1.0000 0.77660  0.96040  0.68960  Biso   1.000  C
  H101     1.0000 0.77920  0.91150  0.67420  Biso   1.000  H
  C128     1.0000 0.81050  0.02010  0.67150  Biso   1.000  C
  H102     1.0000 0.83690  0.00960  0.64490  Biso   1.000  H
  N26      1.0000 0.80773  0.09242  0.68988  Biso   1.000  N
  C129     1.0000 0.76870  0.10430  0.72786  Biso   1.000  C
  H103     1.0000 0.76430  0.15420  0.74030  Biso   1.000  H
  C130     1.0000 0.73450  0.04740  0.75000  Biso   1.000  C
  H104     1.0000 0.70920  0.05910  0.77730  Biso   1.000  H
  C131     1.0000 0.40560  0.50060  0.39100  Biso   1.000  C
  H105     1.0000 0.36790  0.47720  0.40010  Biso   1.000  H
  C132     1.0000 0.33980  0.60690  0.54030  Biso   1.000  C
  H106     1.0000 0.29480  0.59680  0.54320  Biso   1.000  H
  C133     1.0000 0.35560  0.57760  0.48900  Biso   1.000  C
  C134     1.0000 0.42140  0.59210  0.48208  Biso   1.000  C
  C135     1.0000 0.44070  0.56150  0.42743  Biso   1.000  C
  C136     1.0000 0.49540  0.59350  0.41010  Biso   1.000  C
  H107     1.0000 0.52170  0.63420  0.43350  Biso   1.000  H
  C137     1.0000 0.44910  0.66330  0.57880  Biso   1.000  C
  H108     1.0000 0.48200  0.69330  0.60970  Biso   1.000  H
  C138     1.0000 0.46870  0.63700  0.52920  Biso   1.000  C
  C139     1.0000 0.51120  0.56560  0.35830  Biso   1.000  C
  N27      1.0000 0.47711  0.50608  0.32322  Biso   1.000  N
  H109     1.0000 0.51370  0.64910  0.52700  Biso   1.000  H
  C140     1.0000 0.42570  0.47420  0.34130  Biso   1.000  C
  N28      1.0000 0.38600  0.64930  0.58621  Biso   1.000  N
  H110     1.0000 0.40210  0.43150  0.31890  Biso   1.000  H
  H111     1.0000 0.54730  0.58930  0.34710  Biso   1.000  H
  H112     1.0000 0.32180  0.54780  0.45870  Biso   1.000  H
  Cu10     1.0000 0.36724  0.67932  0.66592  Biso   1.000  Cu
  C141     1.0000 0.20980  0.40330  0.81732  Biso   1.000  C
  H113     1.0000 0.22960  0.44330  0.84540  Biso   1.000  H
  C142     1.0000 0.18460  0.33930  0.83900  Biso   1.000  C
  H114     1.0000 0.18840  0.33730  0.88190  Biso   1.000  H
  N29      1.0000 0.15490  0.27966  0.80140  Biso   1.000  N
  C143     1.0000 0.14870  0.28550  0.74002  Biso   1.000  C
  H115     1.0000 0.12590  0.24620  0.71250  Biso   1.000  H
  C144     1.0000 0.17430  0.34690  0.71470  Biso   1.000  C
  H116     1.0000 0.17040  0.34710  0.67170  Biso   1.000  H
  C145     1.0000 0.20600  0.40840  0.75420  Biso   1.000  C
  C146     1.0000 0.23860  0.47310  0.73086  Biso   1.000  C
  C147     1.0000 0.27660  0.46040  0.68960  Biso   1.000  C
  H117     1.0000 0.27920  0.41150  0.67420  Biso   1.000  H
  C148     1.0000 0.31050  0.52010  0.67150  Biso   1.000  C
  H118     1.0000 0.33690  0.50960  0.64490  Biso   1.000  H
  N30      1.0000 0.30773  0.59242  0.68988  Biso   1.000  N
  C149     1.0000 0.26870  0.60430  0.72786  Biso   1.000  C
  H119     1.0000 0.26430  0.65420  0.74030  Biso   1.000  H
  C150     1.0000 0.23450  0.54740  0.75000  Biso   1.000  C
  H120     1.0000 0.20920  0.55910  0.77730  Biso   1.000  H
  C151     1.0000 0.90560  0.00060  0.39100  Biso   1.000  C
  H121     1.0000 0.86790  0.97720  0.40010  Biso   1.000  H
  C152     1.0000 0.83980  0.10690  0.54030  Biso   1.000  C
  H122     1.0000 0.79480  0.09680  0.54320  Biso   1.000  H
  C153     1.0000 0.85560  0.07760  0.48900  Biso   1.000  C
  C154     1.0000 0.92140  0.09210  0.48208  Biso   1.000  C
  C155     1.0000 0.94070  0.06150  0.42743  Biso   1.000  C
  C156     1.0000 0.99540  0.09350  0.41010  Biso   1.000  C
  H123     1.0000 0.02170  0.13420  0.43350  Biso   1.000  H
  C157     1.0000 0.94910  0.16330  0.57880  Biso   1.000  C
  H124     1.0000 0.98200  0.19330  0.60970  Biso   1.000  H
  C158     1.0000 0.96870  0.13700  0.52920  Biso   1.000  C
  C159     1.0000 0.01120  0.06560  0.35830  Biso   1.000  C
  N31      1.0000 0.97711  0.00608  0.32322  Biso   1.000  N
  H125     1.0000 0.01370  0.14910  0.52700  Biso   1.000  H
  C160     1.0000 0.92570  0.97420  0.34130  Biso   1.000  C
  N32      1.0000 0.88600  0.14930  0.58621  Biso   1.000  N
  H126     1.0000 0.90210  0.93150  0.31890  Biso   1.000  H
  H127     1.0000 0.04730  0.08930  0.34710  Biso   1.000  H
  H128     1.0000 0.82180  0.04780  0.45870  Biso   1.000  H
  Cl3      1.0000 0.50000  0.33427  0.25000  Biso   1.000  Cl
  Cl4      1.0000 0.00000  0.83427  0.25000  Biso   1.000  Cl
  Cu11     1.0000 0.50000  0.46745  0.25000  Biso   1.000  Cu
  Cu12     1.0000 0.00000  0.96745  0.25000  Biso   1.000  Cu
