data_image0
_cell_length_a       19.748
_cell_length_b       17.494
_cell_length_c       22.16
_cell_angle_alpha    90
_cell_angle_beta     109.83
_cell_angle_gamma    90

_symmetry_space_group_name_H-M    "P 1"
_symmetry_int_tables_number       1

loop_
  _symmetry_equiv_pos_as_xyz
  'x, y, z'

loop_
  _atom_site_label
  _atom_site_occupancy
  _atom_site_fract_x
  _atom_site_fract_y
  _atom_site_fract_z
  _atom_site_thermal_displace_type
  _atom_site_B_iso_or_equiv
  _atom_site_type_symbol
  Cu1      1.0000 0.13266  0.82063  0.33404  Biso   1.000  Cu
  N1       1.0000 0.15507  0.72043  0.30149  Biso   1.000  N
  N2       1.0000 0.02252  0.99372  0.67653  Biso   1.000  N
  C1       1.0000 0.20633  0.59223  0.25420  Biso   1.000  C
  C2       1.0000 0.17420  0.65294  0.21447  Biso   1.000  C
  H1       1.0000 0.16980  0.65230  0.17140  Biso   1.000  H
  N3       1.0000 0.30780  0.40774  0.18978  Biso   1.000  N
  C3       1.0000 0.26878  0.39500  0.22801  Biso   1.000  C
  H2       1.0000 0.26450  0.34490  0.24030  Biso   1.000  H
  N4       1.0000 0.11413  0.85060  0.41390  Biso   1.000  N
  C4       1.0000 0.05916  0.93854  0.57265  Biso   1.000  C
  C5       1.0000 0.27720  0.54070  0.18994  Biso   1.000  C
  C6       1.0000 0.14870  0.71409  0.23952  Biso   1.000  C
  H3       1.0000 0.12580  0.75330  0.21180  Biso   1.000  H
  C7       1.0000 0.23455  0.45198  0.25026  Biso   1.000  C
  C8       1.0000 0.23876  0.52706  0.23087  Biso   1.000  C
  C9       1.0000 0.07440  0.02640  0.65878  Biso   1.000  C
  H4       1.0000 0.09820  0.06890  0.68150  Biso   1.000  H
  C10      1.0000 0.18470  0.66040  0.33924  Biso   1.000  C
  H5       1.0000 0.18850  0.66230  0.38220  Biso   1.000  H
  C11      1.0000 0.07841  0.90792  0.51767  Biso   1.000  C
  C12      1.0000 0.09415  0.00000  0.60851  Biso   1.000  C
  H6       1.0000 0.13130  0.02370  0.59880  Biso   1.000  H
  C13      1.0000 0.20950  0.59650  0.31735  Biso   1.000  C
  H7       1.0000 0.22860  0.55600  0.34510  Biso   1.000  H
  C14      1.0000 0.05050  0.83600  0.42050  Biso   1.000  C
  H8       1.0000 0.01770  0.80590  0.38960  Biso   1.000  H
  C15      1.0000 0.98950  0.93420  0.64230  Biso   1.000  C
  H9       1.0000 0.95390  0.91000  0.65400  Biso   1.000  H
  C16      1.0000 0.03082  0.86320  0.47090  Biso   1.000  C
  H10      1.0000 0.98580  0.85140  0.47320  Biso   1.000  H
  C17      1.0000 0.16073  0.89370  0.46014  Biso   1.000  C
  H11      1.0000 0.20580  0.90380  0.45740  Biso   1.000  H
  C18      1.0000 0.00460  0.90570  0.59025  Biso   1.000  C
  H12      1.0000 0.97840  0.86470  0.56710  Biso   1.000  H
  C19      1.0000 0.14433  0.92320  0.51116  Biso   1.000  C
  H13      1.0000 0.17770  0.95360  0.54130  Biso   1.000  H
  C20      1.0000 0.31100  0.48020  0.17139  Biso   1.000  C
  H14      1.0000 0.33740  0.49050  0.14470  Biso   1.000  H
  Cu2      1.0000 0.63266  0.32063  0.33404  Biso   1.000  Cu
  N5       1.0000 0.65507  0.22043  0.30149  Biso   1.000  N
  N6       1.0000 0.52252  0.49372  0.67653  Biso   1.000  N
  C21      1.0000 0.70633  0.09223  0.25420  Biso   1.000  C
  C22      1.0000 0.67420  0.15294  0.21447  Biso   1.000  C
  H15      1.0000 0.66980  0.15230  0.17140  Biso   1.000  H
  N7       1.0000 0.80780  0.90774  0.18978  Biso   1.000  N
  C23      1.0000 0.76878  0.89500  0.22801  Biso   1.000  C
  H16      1.0000 0.76450  0.84490  0.24030  Biso   1.000  H
  N8       1.0000 0.61413  0.35060  0.41390  Biso   1.000  N
  C24      1.0000 0.55916  0.43854  0.57265  Biso   1.000  C
  C25      1.0000 0.77720  0.04070  0.18994  Biso   1.000  C
  C26      1.0000 0.64870  0.21409  0.23952  Biso   1.000  C
  H17      1.0000 0.62580  0.25330  0.21180  Biso   1.000  H
  C27      1.0000 0.73455  0.95198  0.25026  Biso   1.000  C
  C28      1.0000 0.73876  0.02706  0.23087  Biso   1.000  C
  C29      1.0000 0.57440  0.52640  0.65878  Biso   1.000  C
  H18      1.0000 0.59820  0.56890  0.68150  Biso   1.000  H
  C30      1.0000 0.68470  0.16040  0.33924  Biso   1.000  C
  H19      1.0000 0.68850  0.16230  0.38220  Biso   1.000  H
  C31      1.0000 0.57841  0.40792  0.51767  Biso   1.000  C
  C32      1.0000 0.59415  0.50000  0.60851  Biso   1.000  C
  H20      1.0000 0.63130  0.52370  0.59880  Biso   1.000  H
  C33      1.0000 0.70950  0.09650  0.31735  Biso   1.000  C
  H21      1.0000 0.72860  0.05600  0.34510  Biso   1.000  H
  C34      1.0000 0.55050  0.33600  0.42050  Biso   1.000  C
  H22      1.0000 0.51770  0.30590  0.38960  Biso   1.000  H
  C35      1.0000 0.48950  0.43420  0.64230  Biso   1.000  C
  H23      1.0000 0.45390  0.41000  0.65400  Biso   1.000  H
  C36      1.0000 0.53082  0.36320  0.47090  Biso   1.000  C
  H24      1.0000 0.48580  0.35140  0.47320  Biso   1.000  H
  C37      1.0000 0.66073  0.39370  0.46014  Biso   1.000  C
  H25      1.0000 0.70580  0.40380  0.45740  Biso   1.000  H
  C38      1.0000 0.50460  0.40570  0.59025  Biso   1.000  C
  H26      1.0000 0.47840  0.36470  0.56710  Biso   1.000  H
  C39      1.0000 0.64433  0.42320  0.51116  Biso   1.000  C
  H27      1.0000 0.67770  0.45360  0.54130  Biso   1.000  H
  C40      1.0000 0.81100  0.98020  0.17139  Biso   1.000  C
  H28      1.0000 0.83740  0.99050  0.14470  Biso   1.000  H
  Cu3      1.0000 0.86734  0.82063  0.16596  Biso   1.000  Cu
  N9       1.0000 0.84493  0.72043  0.19851  Biso   1.000  N
  N10      1.0000 0.97748  0.99372  0.82347  Biso   1.000  N
  C41      1.0000 0.79367  0.59223  0.24580  Biso   1.000  C
  C42      1.0000 0.82580  0.65294  0.28553  Biso   1.000  C
  H29      1.0000 0.83020  0.65230  0.32860  Biso   1.000  H
  N11      1.0000 0.69220  0.40774  0.31022  Biso   1.000  N
  C43      1.0000 0.73122  0.39500  0.27199  Biso   1.000  C
  H30      1.0000 0.73550  0.34490  0.25970  Biso   1.000  H
  N12      1.0000 0.88587  0.85060  0.08610  Biso   1.000  N
  C44      1.0000 0.94084  0.93854  0.92735  Biso   1.000  C
  C45      1.0000 0.72280  0.54070  0.31006  Biso   1.000  C
  C46      1.0000 0.85130  0.71409  0.26048  Biso   1.000  C
  H31      1.0000 0.87420  0.75330  0.28820  Biso   1.000  H
  C47      1.0000 0.76545  0.45198  0.24974  Biso   1.000  C
  C48      1.0000 0.76124  0.52706  0.26913  Biso   1.000  C
  C49      1.0000 0.92560  0.02640  0.84122  Biso   1.000  C
  H32      1.0000 0.90180  0.06890  0.81850  Biso   1.000  H
  C50      1.0000 0.81530  0.66040  0.16076  Biso   1.000  C
  H33      1.0000 0.81150  0.66230  0.11780  Biso   1.000  H
  C51      1.0000 0.92159  0.90792  0.98233  Biso   1.000  C
  C52      1.0000 0.90585  0.00000  0.89149  Biso   1.000  C
  H34      1.0000 0.86870  0.02370  0.90120  Biso   1.000  H
  C53      1.0000 0.79050  0.59650  0.18265  Biso   1.000  C
  H35      1.0000 0.77140  0.55600  0.15490  Biso   1.000  H
  C54      1.0000 0.94950  0.83600  0.07950  Biso   1.000  C
  H36      1.0000 0.98230  0.80590  0.11040  Biso   1.000  H
  C55      1.0000 0.01050  0.93420  0.85770  Biso   1.000  C
  H37      1.0000 0.04610  0.91000  0.84600  Biso   1.000  H
  C56      1.0000 0.96918  0.86320  0.02910  Biso   1.000  C
  H38      1.0000 0.01420  0.85140  0.02680  Biso   1.000  H
  C57      1.0000 0.83927  0.89370  0.03986  Biso   1.000  C
  H39      1.0000 0.79420  0.90380  0.04260  Biso   1.000  H
  C58      1.0000 0.99540  0.90570  0.90975  Biso   1.000  C
  H40      1.0000 0.02160  0.86470  0.93290  Biso   1.000  H
  C59      1.0000 0.85567  0.92320  0.98884  Biso   1.000  C
  H41      1.0000 0.82230  0.95360  0.95870  Biso   1.000  H
  C60      1.0000 0.68900  0.48020  0.32861  Biso   1.000  C
  H42      1.0000 0.66260  0.49050  0.35530  Biso   1.000  H
  Cu4      1.0000 0.36734  0.32063  0.16596  Biso   1.000  Cu
  N13      1.0000 0.34493  0.22043  0.19851  Biso   1.000  N
  N14      1.0000 0.47748  0.49372  0.82347  Biso   1.000  N
  C61      1.0000 0.29367  0.09223  0.24580  Biso   1.000  C
  C62      1.0000 0.32580  0.15294  0.28553  Biso   1.000  C
  H43      1.0000 0.33020  0.15230  0.32860  Biso   1.000  H
  N15      1.0000 0.19220  0.90774  0.31022  Biso   1.000  N
  C63      1.0000 0.23122  0.89500  0.27199  Biso   1.000  C
  H44      1.0000 0.23550  0.84490  0.25970  Biso   1.000  H
  N16      1.0000 0.38587  0.35060  0.08610  Biso   1.000  N
  C64      1.0000 0.44084  0.43854  0.92735  Biso   1.000  C
  C65      1.0000 0.22280  0.04070  0.31006  Biso   1.000  C
  C66      1.0000 0.35130  0.21409  0.26048  Biso   1.000  C
  H45      1.0000 0.37420  0.25330  0.28820  Biso   1.000  H
  C67      1.0000 0.26545  0.95198  0.24974  Biso   1.000  C
  C68      1.0000 0.26124  0.02706  0.26913  Biso   1.000  C
  C69      1.0000 0.42560  0.52640  0.84122  Biso   1.000  C
  H46      1.0000 0.40180  0.56890  0.81850  Biso   1.000  H
  C70      1.0000 0.31530  0.16040  0.16076  Biso   1.000  C
  H47      1.0000 0.31150  0.16230  0.11780  Biso   1.000  H
  C71      1.0000 0.42159  0.40792  0.98233  Biso   1.000  C
  C72      1.0000 0.40585  0.50000  0.89149  Biso   1.000  C
  H48      1.0000 0.36870  0.52370  0.90120  Biso   1.000  H
  C73      1.0000 0.29050  0.09650  0.18265  Biso   1.000  C
  H49      1.0000 0.27140  0.05600  0.15490  Biso   1.000  H
  C74      1.0000 0.44950  0.33600  0.07950  Biso   1.000  C
  H50      1.0000 0.48230  0.30590  0.11040  Biso   1.000  H
  C75      1.0000 0.51050  0.43420  0.85770  Biso   1.000  C
  H51      1.0000 0.54610  0.41000  0.84600  Biso   1.000  H
  C76      1.0000 0.46918  0.36320  0.02910  Biso   1.000  C
  H52      1.0000 0.51420  0.35140  0.02680  Biso   1.000  H
  C77      1.0000 0.33927  0.39370  0.03986  Biso   1.000  C
  H53      1.0000 0.29420  0.40380  0.04260  Biso   1.000  H
  C78      1.0000 0.49540  0.40570  0.90975  Biso   1.000  C
  H54      1.0000 0.52160  0.36470  0.93290  Biso   1.000  H
  C79      1.0000 0.35567  0.42320  0.98884  Biso   1.000  C
  H55      1.0000 0.32230  0.45360  0.95870  Biso   1.000  H
  C80      1.0000 0.18900  0.98020  0.32861  Biso   1.000  C
  H56      1.0000 0.16260  0.99050  0.35530  Biso   1.000  H
  Cu5      1.0000 0.00000  0.03269  0.75000  Biso   1.000  Cu
  Cl1      1.0000 0.00000  0.16589  0.75000  Biso   1.000  Cl
  Cu6      1.0000 0.50000  0.53269  0.75000  Biso   1.000  Cu
  Cl2      1.0000 0.50000  0.66589  0.75000  Biso   1.000  Cl
  Cu7      1.0000 0.86734  0.17937  0.66596  Biso   1.000  Cu
  N17      1.0000 0.84493  0.27957  0.69851  Biso   1.000  N
  N18      1.0000 0.97748  0.00628  0.32347  Biso   1.000  N
  C81      1.0000 0.79367  0.40777  0.74580  Biso   1.000  C
  C82      1.0000 0.82580  0.34706  0.78553  Biso   1.000  C
  H57      1.0000 0.83020  0.34770  0.82860  Biso   1.000  H
  N19      1.0000 0.69220  0.59226  0.81022  Biso   1.000  N
  C83      1.0000 0.73122  0.60500  0.77199  Biso   1.000  C
  H58      1.0000 0.73550  0.65510  0.75970  Biso   1.000  H
  N20      1.0000 0.88587  0.14940  0.58610  Biso   1.000  N
  C84      1.0000 0.94084  0.06146  0.42735  Biso   1.000  C
  C85      1.0000 0.72280  0.45930  0.81006  Biso   1.000  C
  C86      1.0000 0.85130  0.28591  0.76048  Biso   1.000  C
  H59      1.0000 0.87420  0.24670  0.78820  Biso   1.000  H
  C87      1.0000 0.76545  0.54802  0.74974  Biso   1.000  C
  C88      1.0000 0.76124  0.47294  0.76913  Biso   1.000  C
  C89      1.0000 0.92560  0.97360  0.34122  Biso   1.000  C
  H60      1.0000 0.90180  0.93110  0.31850  Biso   1.000  H
  C90      1.0000 0.81530  0.33960  0.66076  Biso   1.000  C
  H61      1.0000 0.81150  0.33770  0.61780  Biso   1.000  H
  C91      1.0000 0.92159  0.09208  0.48233  Biso   1.000  C
  C92      1.0000 0.90585  0.00000  0.39149  Biso   1.000  C
  H62      1.0000 0.86870  0.97630  0.40120  Biso   1.000  H
  C93      1.0000 0.79050  0.40350  0.68265  Biso   1.000  C
  H63      1.0000 0.77140  0.44400  0.65490  Biso   1.000  H
  C94      1.0000 0.94950  0.16400  0.57950  Biso   1.000  C
  H64      1.0000 0.98230  0.19410  0.61040  Biso   1.000  H
  C95      1.0000 0.01050  0.06580  0.35770  Biso   1.000  C
  H65      1.0000 0.04610  0.09000  0.34600  Biso   1.000  H
  C96      1.0000 0.96918  0.13680  0.52910  Biso   1.000  C
  H66      1.0000 0.01420  0.14860  0.52680  Biso   1.000  H
  C97      1.0000 0.83927  0.10630  0.53986  Biso   1.000  C
  H67      1.0000 0.79420  0.09620  0.54260  Biso   1.000  H
  C98      1.0000 0.99540  0.09430  0.40975  Biso   1.000  C
  H68      1.0000 0.02160  0.13530  0.43290  Biso   1.000  H
  C99      1.0000 0.85567  0.07680  0.48884  Biso   1.000  C
  H69      1.0000 0.82230  0.04640  0.45870  Biso   1.000  H
  C100     1.0000 0.68900  0.51980  0.82861  Biso   1.000  C
  H70      1.0000 0.66260  0.50950  0.85530  Biso   1.000  H
  Cu8      1.0000 0.36734  0.67937  0.66596  Biso   1.000  Cu
  N21      1.0000 0.34493  0.77957  0.69851  Biso   1.000  N
  N22      1.0000 0.47748  0.50628  0.32347  Biso   1.000  N
  C101     1.0000 0.29367  0.90777  0.74580  Biso   1.000  C
  C102     1.0000 0.32580  0.84706  0.78553  Biso   1.000  C
  H71      1.0000 0.33020  0.84770  0.82860  Biso   1.000  H
  N23      1.0000 0.19220  0.09226  0.81022  Biso   1.000  N
  C103     1.0000 0.23122  0.10500  0.77199  Biso   1.000  C
  H72      1.0000 0.23550  0.15510  0.75970  Biso   1.000  H
  N24      1.0000 0.38587  0.64940  0.58610  Biso   1.000  N
  C104     1.0000 0.44084  0.56146  0.42735  Biso   1.000  C
  C105     1.0000 0.22280  0.95930  0.81006  Biso   1.000  C
  C106     1.0000 0.35130  0.78591  0.76048  Biso   1.000  C
  H73      1.0000 0.37420  0.74670  0.78820  Biso   1.000  H
  C107     1.0000 0.26545  0.04802  0.74974  Biso   1.000  C
  C108     1.0000 0.26124  0.97294  0.76913  Biso   1.000  C
  C109     1.0000 0.42560  0.47360  0.34122  Biso   1.000  C
  H74      1.0000 0.40180  0.43110  0.31850  Biso   1.000  H
  C110     1.0000 0.31530  0.83960  0.66076  Biso   1.000  C
  H75      1.0000 0.31150  0.83770  0.61780  Biso   1.000  H
  C111     1.0000 0.42159  0.59208  0.48233  Biso   1.000  C
  C112     1.0000 0.40585  0.50000  0.39149  Biso   1.000  C
  H76      1.0000 0.36870  0.47630  0.40120  Biso   1.000  H
  C113     1.0000 0.29050  0.90350  0.68265  Biso   1.000  C
  H77      1.0000 0.27140  0.94400  0.65490  Biso   1.000  H
  C114     1.0000 0.44950  0.66400  0.57950  Biso   1.000  C
  H78      1.0000 0.48230  0.69410  0.61040  Biso   1.000  H
  C115     1.0000 0.51050  0.56580  0.35770  Biso   1.000  C
  H79      1.0000 0.54610  0.59000  0.34600  Biso   1.000  H
  C116     1.0000 0.46918  0.63680  0.52910  Biso   1.000  C
  H80      1.0000 0.51420  0.64860  0.52680  Biso   1.000  H
  C117     1.0000 0.33927  0.60630  0.53986  Biso   1.000  C
  H81      1.0000 0.29420  0.59620  0.54260  Biso   1.000  H
  C118     1.0000 0.49540  0.59430  0.40975  Biso   1.000  C
  H82      1.0000 0.52160  0.63530  0.43290  Biso   1.000  H
  C119     1.0000 0.35567  0.57680  0.48884  Biso   1.000  C
  H83      1.0000 0.32230  0.54640  0.45870  Biso   1.000  H
  C120     1.0000 0.18900  0.01980  0.82861  Biso   1.000  C
  H84      1.0000 0.16260  0.00950  0.85530  Biso   1.000  H
  Cu9      1.0000 0.13266  0.17937  0.83404  Biso   1.000  Cu
  N25      1.0000 0.15507  0.27957  0.80149  Biso   1.000  N
  N26      1.0000 0.02252  0.00628  0.17653  Biso   1.000  N
  C121     1.0000 0.20633  0.40777  0.75420  Biso   1.000  C
  C122     1.0000 0.17420  0.34706  0.71447  Biso   1.000  C
  H85      1.0000 0.16980  0.34770  0.67140  Biso   1.000  H
  N27      1.0000 0.30780  0.59226  0.68978  Biso   1.000  N
  C123     1.0000 0.26878  0.60500  0.72801  Biso   1.000  C
  H86      1.0000 0.26450  0.65510  0.74030  Biso   1.000  H
  N28      1.0000 0.11413  0.14940  0.91390  Biso   1.000  N
  C124     1.0000 0.05916  0.06146  0.07265  Biso   1.000  C
  C125     1.0000 0.27720  0.45930  0.68994  Biso   1.000  C
  C126     1.0000 0.14870  0.28591  0.73952  Biso   1.000  C
  H87      1.0000 0.12580  0.24670  0.71180  Biso   1.000  H
  C127     1.0000 0.23455  0.54802  0.75026  Biso   1.000  C
  C128     1.0000 0.23876  0.47294  0.73087  Biso   1.000  C
  C129     1.0000 0.07440  0.97360  0.15878  Biso   1.000  C
  H88      1.0000 0.09820  0.93110  0.18150  Biso   1.000  H
  C130     1.0000 0.18470  0.33960  0.83924  Biso   1.000  C
  H89      1.0000 0.18850  0.33770  0.88220  Biso   1.000  H
  C131     1.0000 0.07841  0.09208  0.01767  Biso   1.000  C
  C132     1.0000 0.09415  0.00000  0.10851  Biso   1.000  C
  H90      1.0000 0.13130  0.97630  0.09880  Biso   1.000  H
  C133     1.0000 0.20950  0.40350  0.81735  Biso   1.000  C
  H91      1.0000 0.22860  0.44400  0.84510  Biso   1.000  H
  C134     1.0000 0.05050  0.16400  0.92050  Biso   1.000  C
  H92      1.0000 0.01770  0.19410  0.88960  Biso   1.000  H
  C135     1.0000 0.98950  0.06580  0.14230  Biso   1.000  C
  H93      1.0000 0.95390  0.09000  0.15400  Biso   1.000  H
  C136     1.0000 0.03082  0.13680  0.97090  Biso   1.000  C
  H94      1.0000 0.98580  0.14860  0.97320  Biso   1.000  H
  C137     1.0000 0.16073  0.10630  0.96014  Biso   1.000  C
  H95      1.0000 0.20580  0.09620  0.95740  Biso   1.000  H
  C138     1.0000 0.00460  0.09430  0.09025  Biso   1.000  C
  H96      1.0000 0.97840  0.13530  0.06710  Biso   1.000  H
  C139     1.0000 0.14433  0.07680  0.01116  Biso   1.000  C
  H97      1.0000 0.17770  0.04640  0.04130  Biso   1.000  H
  C140     1.0000 0.31100  0.51980  0.67139  Biso   1.000  C
  H98      1.0000 0.33740  0.50950  0.64470  Biso   1.000  H
  Cu10     1.0000 0.63266  0.67937  0.83404  Biso   1.000  Cu
  N29      1.0000 0.65507  0.77957  0.80149  Biso   1.000  N
  N30      1.0000 0.52252  0.50628  0.17653  Biso   1.000  N
  C141     1.0000 0.70633  0.90777  0.75420  Biso   1.000  C
  C142     1.0000 0.67420  0.84706  0.71447  Biso   1.000  C
  H99      1.0000 0.66980  0.84770  0.67140  Biso   1.000  H
  N31      1.0000 0.80780  0.09226  0.68978  Biso   1.000  N
  C143     1.0000 0.76878  0.10500  0.72801  Biso   1.000  C
  H100     1.0000 0.76450  0.15510  0.74030  Biso   1.000  H
  N32      1.0000 0.61413  0.64940  0.91390  Biso   1.000  N
  C144     1.0000 0.55916  0.56146  0.07265  Biso   1.000  C
  C145     1.0000 0.77720  0.95930  0.68994  Biso   1.000  C
  C146     1.0000 0.64870  0.78591  0.73952  Biso   1.000  C
  H101     1.0000 0.62580  0.74670  0.71180  Biso   1.000  H
  C147     1.0000 0.73455  0.04802  0.75026  Biso   1.000  C
  C148     1.0000 0.73876  0.97294  0.73087  Biso   1.000  C
  C149     1.0000 0.57440  0.47360  0.15878  Biso   1.000  C
  H102     1.0000 0.59820  0.43110  0.18150  Biso   1.000  H
  C150     1.0000 0.68470  0.83960  0.83924  Biso   1.000  C
  H103     1.0000 0.68850  0.83770  0.88220  Biso   1.000  H
  C151     1.0000 0.57841  0.59208  0.01767  Biso   1.000  C
  C152     1.0000 0.59415  0.50000  0.10851  Biso   1.000  C
  H104     1.0000 0.63130  0.47630  0.09880  Biso   1.000  H
  C153     1.0000 0.70950  0.90350  0.81735  Biso   1.000  C
  H105     1.0000 0.72860  0.94400  0.84510  Biso   1.000  H
  C154     1.0000 0.55050  0.66400  0.92050  Biso   1.000  C
  H106     1.0000 0.51770  0.69410  0.88960  Biso   1.000  H
  C155     1.0000 0.48950  0.56580  0.14230  Biso   1.000  C
  H107     1.0000 0.45390  0.59000  0.15400  Biso   1.000  H
  C156     1.0000 0.53082  0.63680  0.97090  Biso   1.000  C
  H108     1.0000 0.48580  0.64860  0.97320  Biso   1.000  H
  C157     1.0000 0.66073  0.60630  0.96014  Biso   1.000  C
  H109     1.0000 0.70580  0.59620  0.95740  Biso   1.000  H
  C158     1.0000 0.50460  0.59430  0.09025  Biso   1.000  C
  H110     1.0000 0.47840  0.63530  0.06710  Biso   1.000  H
  C159     1.0000 0.64433  0.57680  0.01116  Biso   1.000  C
  H111     1.0000 0.67770  0.54640  0.04130  Biso   1.000  H
  C160     1.0000 0.81100  0.01980  0.67139  Biso   1.000  C
  H112     1.0000 0.83740  0.00950  0.64470  Biso   1.000  H
  Cu11     1.0000 0.00000  0.96731  0.25000  Biso   1.000  Cu
  Cl3      1.0000 0.00000  0.83411  0.25000  Biso   1.000  Cl
  Cu12     1.0000 0.50000  0.46731  0.25000  Biso   1.000  Cu
  Cl4      1.0000 0.50000  0.33411  0.25000  Biso   1.000  Cl
