data_NEVJEF_clean
_audit_creation_date              2014-07-02
_audit_creation_method            'Materials Studio'
_symmetry_space_group_name_H-M    'P1'
_symmetry_Int_Tables_number       1
_symmetry_cell_setting            triclinic
loop_
_symmetry_equiv_pos_as_xyz
  x,y,z
_cell_length_a                    14.2083
_cell_length_b                    18.0861
_cell_length_c                    19.2980
_cell_angle_alpha                 97.8360
_cell_angle_beta                  90.0000
_cell_angle_gamma                 90.0000
loop_
_atom_site_label
_atom_site_type_symbol
_atom_site_fract_x
_atom_site_fract_y
_atom_site_fract_z
_atom_site_U_iso_or_equiv
_atom_site_adp_type
_atom_site_occupancy
Cd1    Cd    0.20498   0.83660   0.56284   0.01267  Uiso   1.00
Cd2    Cd    0.20187   0.67088   0.37554   0.01267  Uiso   1.00
Cd3    Cd    0.13352   0.48807   0.97796   0.01267  Uiso   1.00
Cd4    Cd    0.27014   0.59974   0.16445   0.01267  Uiso   1.00
Cd5    Cd    0.20498   0.16340   0.93716   0.01267  Uiso   1.00
Cd6    Cd    0.20187   0.32912   0.12446   0.01267  Uiso   1.00
Cd7    Cd    0.13352   0.51193   0.52204   0.01267  Uiso   1.00
Cd8    Cd    0.27014   0.40026   0.33555   0.01267  Uiso   1.00
Cd9    Cd    0.79502   0.16340   0.43716   0.01267  Uiso   1.00
Cd10   Cd    0.79813   0.32912   0.62446   0.01267  Uiso   1.00
Cd11   Cd    0.86648   0.51193   0.02204   0.01267  Uiso   1.00
Cd12   Cd    0.72986   0.40026   0.83555   0.01267  Uiso   1.00
Cd13   Cd    0.79502   0.83660   0.06284   0.01267  Uiso   1.00
Cd14   Cd    0.79813   0.67088   0.87554   0.01267  Uiso   1.00
Cd15   Cd    0.86648   0.48807   0.47796   0.01267  Uiso   1.00
Cd16   Cd    0.72986   0.59974   0.66445   0.01267  Uiso   1.00
H1     H     0.03330   0.92640   0.39310   0.01267  Uiso   1.00
H2     H     0.96390   0.94350   0.28720   0.01267  Uiso   1.00
H3     H     0.95870   0.71900   0.23200   0.01267  Uiso   1.00
H4     H     0.91260   0.63840   0.39350   0.01267  Uiso   1.00
H5     H     0.96140   0.70760   0.44050   0.01267  Uiso   1.00
H6     H     0.95890   0.62130   0.26520   0.01267  Uiso   1.00
H7     H     0.01480   0.56710   0.30970   0.01267  Uiso   1.00
H8     H     0.34600   0.68660   0.92840   0.01267  Uiso   1.00
H9     H     0.47910   0.76160   0.94110   0.01267  Uiso   1.00
H10    H     0.56290   0.65940   0.10340   0.01267  Uiso   1.00
H11    H     0.47230   0.45770   0.07420   0.01267  Uiso   1.00
H12    H     0.39760   0.48690   0.02230   0.01267  Uiso   1.00
H13    H     0.55610   0.56750   0.15030   0.01267  Uiso   1.00
H14    H     0.48470   0.51630   0.18670   0.01267  Uiso   1.00
H15    H     0.11320   0.70140   0.09600   0.01267  Uiso   1.00
H16    H     0.09320   0.81370   0.05340   0.01267  Uiso   1.00
H17    H     0.36100   0.86630   0.11190   0.01267  Uiso   1.00
H18    H     0.36950   0.75570   0.15850   0.01267  Uiso   1.00
H19    H     0.11670   0.89390   0.97580   0.01267  Uiso   1.00
H20    H     0.11890   0.00260   0.92530   0.01267  Uiso   1.00
H21    H     0.31010   0.08780   0.05480   0.01267  Uiso   1.00
H22    H     0.31210   0.98380   0.11020   0.01267  Uiso   1.00
H23    H     0.03330   0.07360   0.10690   0.01267  Uiso   1.00
H24    H     0.96390   0.05650   0.21280   0.01267  Uiso   1.00
H25    H     0.95870   0.28100   0.26800   0.01267  Uiso   1.00
H26    H     0.91260   0.36160   0.10650   0.01267  Uiso   1.00
H27    H     0.96140   0.29240   0.05950   0.01267  Uiso   1.00
H28    H     0.95890   0.37870   0.23480   0.01267  Uiso   1.00
H29    H     0.01480   0.43290   0.19030   0.01267  Uiso   1.00
H30    H     0.34600   0.31340   0.57160   0.01267  Uiso   1.00
H31    H     0.47910   0.23840   0.55890   0.01267  Uiso   1.00
H32    H     0.56290   0.34060   0.39660   0.01267  Uiso   1.00
H33    H     0.47230   0.54230   0.42580   0.01267  Uiso   1.00
H34    H     0.39760   0.51310   0.47770   0.01267  Uiso   1.00
H35    H     0.55610   0.43250   0.34970   0.01267  Uiso   1.00
H36    H     0.48470   0.48370   0.31330   0.01267  Uiso   1.00
H37    H     0.11320   0.29860   0.40400   0.01267  Uiso   1.00
H38    H     0.09320   0.18630   0.44660   0.01267  Uiso   1.00
H39    H     0.36100   0.13370   0.38810   0.01267  Uiso   1.00
H40    H     0.36950   0.24430   0.34150   0.01267  Uiso   1.00
H41    H     0.11670   0.10610   0.52420   0.01267  Uiso   1.00
H42    H     0.11890   0.99740   0.57470   0.01267  Uiso   1.00
H43    H     0.31010   0.91220   0.44520   0.01267  Uiso   1.00
H44    H     0.31210   0.01620   0.38980   0.01267  Uiso   1.00
H45    H     0.96670   0.07360   0.60690   0.01267  Uiso   1.00
H46    H     0.03610   0.05650   0.71280   0.01267  Uiso   1.00
H47    H     0.04130   0.28100   0.76800   0.01267  Uiso   1.00
H48    H     0.08740   0.36160   0.60650   0.01267  Uiso   1.00
H49    H     0.03860   0.29240   0.55950   0.01267  Uiso   1.00
H50    H     0.04110   0.37870   0.73480   0.01267  Uiso   1.00
H51    H     0.98520   0.43290   0.69030   0.01267  Uiso   1.00
H52    H     0.65400   0.31340   0.07160   0.01267  Uiso   1.00
H53    H     0.52090   0.23840   0.05890   0.01267  Uiso   1.00
H54    H     0.43710   0.34060   0.89660   0.01267  Uiso   1.00
H55    H     0.52770   0.54230   0.92580   0.01267  Uiso   1.00
H56    H     0.60240   0.51310   0.97770   0.01267  Uiso   1.00
H57    H     0.44390   0.43250   0.84970   0.01267  Uiso   1.00
H58    H     0.51530   0.48370   0.81330   0.01267  Uiso   1.00
H59    H     0.88680   0.29860   0.90400   0.01267  Uiso   1.00
H60    H     0.90680   0.18630   0.94660   0.01267  Uiso   1.00
H61    H     0.63900   0.13370   0.88810   0.01267  Uiso   1.00
H62    H     0.63050   0.24430   0.84150   0.01267  Uiso   1.00
H63    H     0.88330   0.10610   0.02420   0.01267  Uiso   1.00
H64    H     0.88110   0.99740   0.07470   0.01267  Uiso   1.00
H65    H     0.68990   0.91220   0.94520   0.01267  Uiso   1.00
H66    H     0.68790   0.01620   0.88980   0.01267  Uiso   1.00
H67    H     0.96670   0.92640   0.89310   0.01267  Uiso   1.00
H68    H     0.03610   0.94350   0.78720   0.01267  Uiso   1.00
H69    H     0.04130   0.71900   0.73200   0.01267  Uiso   1.00
H70    H     0.08740   0.63840   0.89350   0.01267  Uiso   1.00
H71    H     0.03860   0.70760   0.94050   0.01267  Uiso   1.00
H72    H     0.04110   0.62130   0.76520   0.01267  Uiso   1.00
H73    H     0.98520   0.56710   0.80970   0.01267  Uiso   1.00
H74    H     0.65400   0.68660   0.42840   0.01267  Uiso   1.00
H75    H     0.52090   0.76160   0.44110   0.01267  Uiso   1.00
H76    H     0.43710   0.65940   0.60340   0.01267  Uiso   1.00
H77    H     0.52770   0.45770   0.57420   0.01267  Uiso   1.00
H78    H     0.60240   0.48690   0.52230   0.01267  Uiso   1.00
H79    H     0.44390   0.56750   0.65030   0.01267  Uiso   1.00
H80    H     0.51530   0.51630   0.68670   0.01267  Uiso   1.00
H81    H     0.88680   0.70140   0.59600   0.01267  Uiso   1.00
H82    H     0.90680   0.81370   0.55340   0.01267  Uiso   1.00
H83    H     0.63900   0.86630   0.61190   0.01267  Uiso   1.00
H84    H     0.63050   0.75570   0.65850   0.01267  Uiso   1.00
H85    H     0.88330   0.89390   0.47580   0.01267  Uiso   1.00
H86    H     0.88110   0.00260   0.42530   0.01267  Uiso   1.00
H87    H     0.68990   0.08780   0.55480   0.01267  Uiso   1.00
H88    H     0.68790   0.98380   0.61020   0.01267  Uiso   1.00
C1     C     0.08090   0.80950   0.44720   0.01267  Uiso   1.00
C2     C     0.03500   0.81330   0.37730   0.01267  Uiso   1.00
C3     C     0.01720   0.88410   0.36050   0.01267  Uiso   1.00
C4     C     0.97690   0.89470   0.29760   0.01267  Uiso   1.00
C5     C     0.95580   0.83230   0.24980   0.01267  Uiso   1.00
C6     C     0.90550   0.84180   0.18150   0.01267  Uiso   1.00
C7     C     0.97330   0.76100   0.26550   0.01267  Uiso   1.00
C8     C     0.01150   0.75010   0.32900   0.01267  Uiso   1.00
C9     C     0.97390   0.66040   0.40950   0.01267  Uiso   1.00
C10    C     0.02530   0.60690   0.45070   0.01267  Uiso   1.00
C11    C     0.01860   0.61480   0.29020   0.01267  Uiso   1.00
C12    C     0.09890   0.61100   0.23880   0.01267  Uiso   1.00
C13    C     0.28260   0.58550   0.99610   0.01267  Uiso   1.00
C14    C     0.37360   0.62760   0.00870   0.01267  Uiso   1.00
C15    C     0.39010   0.68080   0.96430   0.01267  Uiso   1.00
C16    C     0.46920   0.72520   0.97150   0.01267  Uiso   1.00
C17    C     0.53360   0.71660   0.02250   0.01267  Uiso   1.00
C18    C     0.62310   0.76210   0.02800   0.01267  Uiso   1.00
C19    C     0.51850   0.66400   0.06740   0.01267  Uiso   1.00
C20    C     0.43980   0.61760   0.06090   0.01267  Uiso   1.00
C21    C     0.41260   0.48550   0.07220   0.01267  Uiso   1.00
C22    C     0.33500   0.44410   0.10470   0.01267  Uiso   1.00
C23    C     0.49060   0.56390   0.16710   0.01267  Uiso   1.00
C24    C     0.47280   0.62810   0.22510   0.01267  Uiso   1.00
C25    C     0.16350   0.73630   0.10050   0.01267  Uiso   1.00
C26    C     0.15160   0.80240   0.07360   0.01267  Uiso   1.00
C27    C     0.22670   0.85260   0.07640   0.01267  Uiso   1.00
C28    C     0.30830   0.83370   0.10860   0.01267  Uiso   1.00
C29    C     0.31290   0.76730   0.13610   0.01267  Uiso   1.00
C30    C     0.16060   0.93200   0.99180   0.01267  Uiso   1.00
C31    C     0.16210   0.99770   0.96200   0.01267  Uiso   1.00
C32    C     0.27180   0.04660   0.03680   0.01267  Uiso   1.00
C33    C     0.27430   0.98440   0.06960   0.01267  Uiso   1.00
C34    C     0.22200   0.92230   0.04390   0.01267  Uiso   1.00
C35    C     0.08090   0.19050   0.05280   0.01267  Uiso   1.00
C36    C     0.03500   0.18670   0.12270   0.01267  Uiso   1.00
C37    C     0.01720   0.11590   0.13950   0.01267  Uiso   1.00
C38    C     0.97690   0.10530   0.20240   0.01267  Uiso   1.00
C39    C     0.95580   0.16770   0.25020   0.01267  Uiso   1.00
C40    C     0.90550   0.15820   0.31850   0.01267  Uiso   1.00
C41    C     0.97330   0.23900   0.23450   0.01267  Uiso   1.00
C42    C     0.01150   0.24990   0.17100   0.01267  Uiso   1.00
C43    C     0.97390   0.33960   0.09050   0.01267  Uiso   1.00
C44    C     0.02530   0.39310   0.04930   0.01267  Uiso   1.00
C45    C     0.01860   0.38520   0.20980   0.01267  Uiso   1.00
C46    C     0.09890   0.38900   0.26120   0.01267  Uiso   1.00
C47    C     0.28260   0.41450   0.50390   0.01267  Uiso   1.00
C48    C     0.37360   0.37240   0.49130   0.01267  Uiso   1.00
C49    C     0.39010   0.31920   0.53570   0.01267  Uiso   1.00
C50    C     0.46920   0.27480   0.52850   0.01267  Uiso   1.00
C51    C     0.53360   0.28340   0.47750   0.01267  Uiso   1.00
C52    C     0.62310   0.23790   0.47200   0.01267  Uiso   1.00
C53    C     0.51850   0.33600   0.43260   0.01267  Uiso   1.00
C54    C     0.43980   0.38240   0.43910   0.01267  Uiso   1.00
C55    C     0.41260   0.51450   0.42780   0.01267  Uiso   1.00
C56    C     0.33500   0.55590   0.39530   0.01267  Uiso   1.00
C57    C     0.49060   0.43610   0.33290   0.01267  Uiso   1.00
C58    C     0.47280   0.37190   0.27490   0.01267  Uiso   1.00
C59    C     0.16350   0.26370   0.39950   0.01267  Uiso   1.00
C60    C     0.15160   0.19760   0.42640   0.01267  Uiso   1.00
C61    C     0.22670   0.14740   0.42360   0.01267  Uiso   1.00
C62    C     0.30830   0.16630   0.39140   0.01267  Uiso   1.00
C63    C     0.31290   0.23270   0.36390   0.01267  Uiso   1.00
C64    C     0.16060   0.06800   0.50820   0.01267  Uiso   1.00
C65    C     0.16210   0.00230   0.53800   0.01267  Uiso   1.00
C66    C     0.27180   0.95340   0.46320   0.01267  Uiso   1.00
C67    C     0.27430   0.01560   0.43040   0.01267  Uiso   1.00
C68    C     0.22200   0.07770   0.45610   0.01267  Uiso   1.00
C69    C     0.91910   0.19050   0.55280   0.01267  Uiso   1.00
C70    C     0.96500   0.18670   0.62270   0.01267  Uiso   1.00
C71    C     0.98280   0.11590   0.63950   0.01267  Uiso   1.00
C72    C     0.02310   0.10530   0.70240   0.01267  Uiso   1.00
C73    C     0.04420   0.16770   0.75020   0.01267  Uiso   1.00
C74    C     0.09450   0.15820   0.81850   0.01267  Uiso   1.00
C75    C     0.02670   0.23900   0.73450   0.01267  Uiso   1.00
C76    C     0.98850   0.24990   0.67100   0.01267  Uiso   1.00
C77    C     0.02610   0.33960   0.59050   0.01267  Uiso   1.00
C78    C     0.97470   0.39310   0.54930   0.01267  Uiso   1.00
C79    C     0.98140   0.38520   0.70980   0.01267  Uiso   1.00
C80    C     0.90110   0.38900   0.76120   0.01267  Uiso   1.00
C81    C     0.71740   0.41450   0.00390   0.01267  Uiso   1.00
C82    C     0.62640   0.37240   0.99130   0.01267  Uiso   1.00
C83    C     0.60990   0.31920   0.03570   0.01267  Uiso   1.00
C84    C     0.53080   0.27480   0.02850   0.01267  Uiso   1.00
C85    C     0.46640   0.28340   0.97750   0.01267  Uiso   1.00
C86    C     0.37690   0.23790   0.97200   0.01267  Uiso   1.00
C87    C     0.48150   0.33600   0.93260   0.01267  Uiso   1.00
C88    C     0.56020   0.38240   0.93910   0.01267  Uiso   1.00
C89    C     0.58740   0.51450   0.92780   0.01267  Uiso   1.00
C90    C     0.66500   0.55590   0.89530   0.01267  Uiso   1.00
C91    C     0.50940   0.43610   0.83290   0.01267  Uiso   1.00
C92    C     0.52720   0.37190   0.77490   0.01267  Uiso   1.00
C93    C     0.83650   0.26370   0.89950   0.01267  Uiso   1.00
C94    C     0.84840   0.19760   0.92640   0.01267  Uiso   1.00
C95    C     0.77330   0.14740   0.92360   0.01267  Uiso   1.00
C96    C     0.69170   0.16630   0.89140   0.01267  Uiso   1.00
C97    C     0.68710   0.23270   0.86390   0.01267  Uiso   1.00
C98    C     0.83940   0.06800   0.00820   0.01267  Uiso   1.00
C99    C     0.83790   0.00230   0.03800   0.01267  Uiso   1.00
C100   C     0.72820   0.95340   0.96320   0.01267  Uiso   1.00
C101   C     0.72570   0.01560   0.93040   0.01267  Uiso   1.00
C102   C     0.77800   0.07770   0.95610   0.01267  Uiso   1.00
C103   C     0.91910   0.80950   0.94720   0.01267  Uiso   1.00
C104   C     0.96500   0.81330   0.87730   0.01267  Uiso   1.00
C105   C     0.98280   0.88410   0.86050   0.01267  Uiso   1.00
C106   C     0.02310   0.89470   0.79760   0.01267  Uiso   1.00
C107   C     0.04420   0.83230   0.74980   0.01267  Uiso   1.00
C108   C     0.09450   0.84180   0.68150   0.01267  Uiso   1.00
C109   C     0.02670   0.76100   0.76550   0.01267  Uiso   1.00
C110   C     0.98850   0.75010   0.82900   0.01267  Uiso   1.00
C111   C     0.02610   0.66040   0.90950   0.01267  Uiso   1.00
C112   C     0.97470   0.60690   0.95070   0.01267  Uiso   1.00
C113   C     0.98140   0.61480   0.79020   0.01267  Uiso   1.00
C114   C     0.90110   0.61100   0.73880   0.01267  Uiso   1.00
C115   C     0.71740   0.58550   0.49610   0.01267  Uiso   1.00
C116   C     0.62640   0.62760   0.50870   0.01267  Uiso   1.00
C117   C     0.60990   0.68080   0.46430   0.01267  Uiso   1.00
C118   C     0.53080   0.72520   0.47150   0.01267  Uiso   1.00
C119   C     0.46640   0.71660   0.52250   0.01267  Uiso   1.00
C120   C     0.37690   0.76210   0.52800   0.01267  Uiso   1.00
C121   C     0.48150   0.66400   0.56740   0.01267  Uiso   1.00
C122   C     0.56020   0.61760   0.56090   0.01267  Uiso   1.00
C123   C     0.58740   0.48550   0.57220   0.01267  Uiso   1.00
C124   C     0.66500   0.44410   0.60470   0.01267  Uiso   1.00
C125   C     0.50940   0.56390   0.66710   0.01267  Uiso   1.00
C126   C     0.52720   0.62810   0.72510   0.01267  Uiso   1.00
C127   C     0.83650   0.73630   0.60050   0.01267  Uiso   1.00
C128   C     0.84840   0.80240   0.57360   0.01267  Uiso   1.00
C129   C     0.77330   0.85260   0.57640   0.01267  Uiso   1.00
C130   C     0.69170   0.83370   0.60860   0.01267  Uiso   1.00
C131   C     0.68710   0.76730   0.63610   0.01267  Uiso   1.00
C132   C     0.83940   0.93200   0.49180   0.01267  Uiso   1.00
C133   C     0.83790   0.99770   0.46200   0.01267  Uiso   1.00
C134   C     0.72820   0.04660   0.53680   0.01267  Uiso   1.00
C135   C     0.72570   0.98440   0.56960   0.01267  Uiso   1.00
C136   C     0.77800   0.92230   0.54390   0.01267  Uiso   1.00
N1     N     0.02910   0.67660   0.34800   0.01267  Uiso   1.00
N2     N     0.42600   0.56240   0.10710   0.01267  Uiso   1.00
N3     N     0.24220   0.71850   0.13270   0.01267  Uiso   1.00
N4     N     0.21910   0.05310   0.98120   0.01267  Uiso   1.00
N5     N     0.02910   0.32340   0.15200   0.01267  Uiso   1.00
N6     N     0.42600   0.43760   0.39290   0.01267  Uiso   1.00
N7     N     0.24220   0.28150   0.36730   0.01267  Uiso   1.00
N8     N     0.21910   0.94690   0.51880   0.01267  Uiso   1.00
N9     N     0.97090   0.32340   0.65200   0.01267  Uiso   1.00
N10    N     0.57400   0.43760   0.89290   0.01267  Uiso   1.00
N11    N     0.75780   0.28150   0.86730   0.01267  Uiso   1.00
N12    N     0.78090   0.94690   0.01880   0.01267  Uiso   1.00
N13    N     0.97090   0.67660   0.84800   0.01267  Uiso   1.00
N14    N     0.57400   0.56240   0.60710   0.01267  Uiso   1.00
N15    N     0.75780   0.71850   0.63270   0.01267  Uiso   1.00
N16    N     0.78090   0.05310   0.48120   0.01267  Uiso   1.00
O1     O     0.15160   0.76670   0.45149   0.01267  Uiso   1.00
O2     O     0.05150   0.85150   0.49846   0.01267  Uiso   1.00
O3     O     0.89200   0.90460   0.16630   0.01267  Uiso   1.00
O4     O     0.87820   0.78440   0.14410   0.01267  Uiso   1.00
O5     O     0.10920   0.59020   0.43680   0.01267  Uiso   1.00
O6     O     0.98130   0.58210   0.49923   0.01267  Uiso   1.00
O7     O     0.17860   0.63480   0.26088   0.01267  Uiso   1.00
O8     O     0.08860   0.58150   0.17746   0.01267  Uiso   1.00
O9     O     0.24740   0.57650   0.93660   0.01267  Uiso   1.00
O10    O     0.24150   0.55980   0.04669   0.01267  Uiso   1.00
O11    O     0.63460   0.80770   0.98650   0.01267  Uiso   1.00
O12    O     0.68300   0.74900   0.07060   0.01267  Uiso   1.00
O13    O     0.29230   0.47230   0.15760   0.01267  Uiso   1.00
O14    O     0.31930   0.37920   0.07390   0.01267  Uiso   1.00
O15    O     0.38960   0.65430   0.23220   0.01267  Uiso   1.00
O16    O     0.53760   0.64910   0.26430   0.01267  Uiso   1.00
O17    O     0.15160   0.23330   0.04851   0.01267  Uiso   1.00
O18    O     0.05150   0.14850   0.00154   0.01267  Uiso   1.00
O19    O     0.89200   0.09540   0.33370   0.01267  Uiso   1.00
O20    O     0.87820   0.21560   0.35590   0.01267  Uiso   1.00
O21    O     0.10920   0.40980   0.06320   0.01267  Uiso   1.00
O22    O     0.98130   0.41790   0.00077   0.01267  Uiso   1.00
O23    O     0.17860   0.36520   0.23912   0.01267  Uiso   1.00
O24    O     0.08860   0.41850   0.32254   0.01267  Uiso   1.00
O25    O     0.24740   0.42350   0.56340   0.01267  Uiso   1.00
O26    O     0.24150   0.44020   0.45331   0.01267  Uiso   1.00
O27    O     0.63460   0.19230   0.51350   0.01267  Uiso   1.00
O28    O     0.68300   0.25100   0.42940   0.01267  Uiso   1.00
O29    O     0.29230   0.52770   0.34240   0.01267  Uiso   1.00
O30    O     0.31930   0.62080   0.42610   0.01267  Uiso   1.00
O31    O     0.38960   0.34570   0.26780   0.01267  Uiso   1.00
O32    O     0.53760   0.35090   0.23570   0.01267  Uiso   1.00
O33    O     0.84840   0.23330   0.54851   0.01267  Uiso   1.00
O34    O     0.94850   0.14850   0.50154   0.01267  Uiso   1.00
O35    O     0.10800   0.09540   0.83370   0.01267  Uiso   1.00
O36    O     0.12180   0.21560   0.85590   0.01267  Uiso   1.00
O37    O     0.89080   0.40980   0.56320   0.01267  Uiso   1.00
O38    O     0.01870   0.41790   0.50077   0.01267  Uiso   1.00
O39    O     0.82140   0.36520   0.73912   0.01267  Uiso   1.00
O40    O     0.91140   0.41850   0.82254   0.01267  Uiso   1.00
O41    O     0.75260   0.42350   0.06340   0.01267  Uiso   1.00
O42    O     0.75850   0.44020   0.95331   0.01267  Uiso   1.00
O43    O     0.36540   0.19230   0.01350   0.01267  Uiso   1.00
O44    O     0.31700   0.25100   0.92940   0.01267  Uiso   1.00
O45    O     0.70770   0.52770   0.84240   0.01267  Uiso   1.00
O46    O     0.68070   0.62080   0.92610   0.01267  Uiso   1.00
O47    O     0.61040   0.34570   0.76780   0.01267  Uiso   1.00
O48    O     0.46240   0.35090   0.73570   0.01267  Uiso   1.00
O49    O     0.84840   0.76670   0.95149   0.01267  Uiso   1.00
O50    O     0.94850   0.85150   0.99846   0.01267  Uiso   1.00
O51    O     0.10800   0.90460   0.66630   0.01267  Uiso   1.00
O52    O     0.12180   0.78440   0.64410   0.01267  Uiso   1.00
O53    O     0.89080   0.59020   0.93680   0.01267  Uiso   1.00
O54    O     0.01870   0.58210   0.99923   0.01267  Uiso   1.00
O55    O     0.82140   0.63480   0.76088   0.01267  Uiso   1.00
O56    O     0.91140   0.58150   0.67746   0.01267  Uiso   1.00
O57    O     0.75260   0.57650   0.43660   0.01267  Uiso   1.00
O58    O     0.75850   0.55980   0.54669   0.01267  Uiso   1.00
O59    O     0.36540   0.80770   0.48650   0.01267  Uiso   1.00
O60    O     0.31700   0.74900   0.57060   0.01267  Uiso   1.00
O61    O     0.70770   0.47230   0.65760   0.01267  Uiso   1.00
O62    O     0.68070   0.37920   0.57390   0.01267  Uiso   1.00
O63    O     0.61040   0.65430   0.73220   0.01267  Uiso   1.00
O64    O     0.46240   0.64910   0.76430   0.01267  Uiso   1.00
