data_image0
_cell_length_a       15.7991
_cell_length_b       11.4257
_cell_length_c       18.7582
_cell_angle_alpha    90
_cell_angle_beta     103.367
_cell_angle_gamma    90

_symmetry_space_group_name_H-M    "P 1"
_symmetry_int_tables_number       1

loop_
  _symmetry_equiv_pos_as_xyz
  'x, y, z'

loop_
  _atom_site_label
  _atom_site_occupancy
  _atom_site_fract_x
  _atom_site_fract_y
  _atom_site_fract_z
  _atom_site_thermal_displace_type
  _atom_site_B_iso_or_equiv
  _atom_site_type_symbol
  Zn1      1.0000 0.57898  0.68356  0.19397  Biso   1.000  Zn
  Zn2      1.0000 0.77375  0.80838  0.17013  Biso   1.000  Zn
  Zn3      1.0000 0.58296  0.09088  0.99966  Biso   1.000  Zn
  O1       1.0000 0.43500  0.06830  0.15127  Biso   1.000  O
  O2       1.0000 0.51453  0.20479  0.92611  Biso   1.000  O
  O3       1.0000 0.45451  0.38014  0.90704  Biso   1.000  O
  O4       1.0000 0.64041  0.01903  0.09969  Biso   1.000  O
  O5       1.0000 0.77018  0.99103  0.17200  Biso   1.000  O
  O6       1.0000 0.87804  0.55106  0.24218  Biso   1.000  O
  O7       1.0000 0.76215  0.62597  0.16366  Biso   1.000  O
  N1       1.0000 0.58381  0.25067  0.07509  Biso   1.000  N
  N2       1.0000 0.29582  0.88780  0.03091  Biso   1.000  N
  N3       1.0000 0.89142  0.82480  0.13143  Biso   1.000  N
  N4       1.0000 0.46241  0.70200  0.22267  Biso   1.000  N
  C1       1.0000 0.71241  0.05640  0.13721  Biso   1.000  C
  C2       1.0000 0.73172  0.18610  0.14186  Biso   1.000  C
  C3       1.0000 0.81675  0.21610  0.17775  Biso   1.000  C
  H1       1.0000 0.85790  0.15530  0.19320  Biso   1.000  H
  C4       1.0000 0.84304  0.33090  0.19149  Biso   1.000  C
  H2       1.0000 0.90120  0.34880  0.21610  Biso   1.000  H
  C5       1.0000 0.78297  0.41940  0.16865  Biso   1.000  C
  C6       1.0000 0.69947  0.39320  0.12995  Biso   1.000  C
  H3       1.0000 0.65960  0.45500  0.11330  Biso   1.000  H
  C7       1.0000 0.67270  0.27780  0.11497  Biso   1.000  C
  C8       1.0000 0.80908  0.54270  0.19198  Biso   1.000  C
  C9       1.0000 0.53107  0.21320  0.12761  Biso   1.000  C
  H4       1.0000 0.49520  0.28060  0.13610  Biso   1.000  H
  H5       1.0000 0.57150  0.19460  0.17500  Biso   1.000  H
  C10      1.0000 0.47107  0.10880  0.10530  Biso   1.000  C
  C11      1.0000 0.54125  0.34570  0.02571  Biso   1.000  C
  C12      1.0000 0.50007  0.30520  0.94836  Biso   1.000  C
  C13      1.0000 0.26110  0.78310  0.03943  Biso   1.000  C
  H6       1.0000 0.29410  0.71540  0.03430  Biso   1.000  H
  C14      1.0000 0.18180  0.76740  0.05493  Biso   1.000  C
  H7       1.0000 0.16030  0.69080  0.05970  Biso   1.000  H
  C15      1.0000 0.13220  0.86620  0.06372  Biso   1.000  C
  C16      1.0000 0.16740  0.97370  0.05530  Biso   1.000  C
  H8       1.0000 0.13620  0.04290  0.06090  Biso   1.000  H
  C17      1.0000 0.24760  0.98150  0.03882  Biso   1.000  C
  H9       1.0000 0.27000  0.05710  0.03270  Biso   1.000  H
  C18      1.0000 0.04709  0.85310  0.08440  Biso   1.000  C
  C19      1.0000 0.99460  0.75590  0.06510  Biso   1.000  C
  H10      1.0000 0.01050  0.69660  0.03520  Biso   1.000  H
  C20      1.0000 0.91820  0.74540  0.08990  Biso   1.000  C
  H11      1.0000 0.88350  0.67750  0.07640  Biso   1.000  H
  C21      1.0000 0.94210  0.92020  0.14790  Biso   1.000  C
  H12      1.0000 0.92420  0.97930  0.17690  Biso   1.000  H
  C22      1.0000 0.01800  0.93760  0.12550  Biso   1.000  C
  H13      1.0000 0.05040  0.00760  0.13830  Biso   1.000  H
  C23      1.0000 0.41440  0.80020  0.21059  Biso   1.000  C
  H14      1.0000 0.43870  0.86780  0.19370  Biso   1.000  H
  C24      1.0000 0.33200  0.80650  0.22169  Biso   1.000  C
  H15      1.0000 0.30030  0.87780  0.21320  Biso   1.000  H
  C25      1.0000 0.29515  0.70850  0.24533  Biso   1.000  C
  C26      1.0000 0.34530  0.60750  0.25940  Biso   1.000  C
  H16      1.0000 0.32120  0.53830  0.27460  Biso   1.000  H
  C27      1.0000 0.42860  0.60713  0.25147  Biso   1.000  C
  H17      1.0000 0.46400  0.54020  0.26610  Biso   1.000  H
  H18      1.0000 0.49930  0.37940  0.05190  Biso   1.000  H
  H19      1.0000 0.58190  0.40160  0.02430  Biso   1.000  H
  O8       1.0000 0.66100  0.81008  0.21680  Biso   1.000  O
  O9       1.0000 0.46111  0.07168  0.03900  Biso   1.000  O
  Zn4      1.0000 0.92102  0.68356  0.30603  Biso   1.000  Zn
  Zn5      1.0000 0.72625  0.80838  0.32987  Biso   1.000  Zn
  Zn6      1.0000 0.91704  0.09088  0.50035  Biso   1.000  Zn
  O10      1.0000 0.06500  0.06830  0.34873  Biso   1.000  O
  O11      1.0000 0.98547  0.20479  0.57389  Biso   1.000  O
  O12      1.0000 0.04549  0.38014  0.59296  Biso   1.000  O
  O13      1.0000 0.85959  0.01903  0.40031  Biso   1.000  O
  O14      1.0000 0.72982  0.99103  0.32800  Biso   1.000  O
  O15      1.0000 0.62196  0.55106  0.25782  Biso   1.000  O
  O16      1.0000 0.73785  0.62597  0.33634  Biso   1.000  O
  N5       1.0000 0.91619  0.25067  0.42491  Biso   1.000  N
  N6       1.0000 0.20418  0.88780  0.46909  Biso   1.000  N
  N7       1.0000 0.60858  0.82480  0.36857  Biso   1.000  N
  N8       1.0000 0.03759  0.70200  0.27733  Biso   1.000  N
  C28      1.0000 0.78759  0.05640  0.36279  Biso   1.000  C
  C29      1.0000 0.76828  0.18610  0.35814  Biso   1.000  C
  C30      1.0000 0.68325  0.21610  0.32225  Biso   1.000  C
  H20      1.0000 0.64210  0.15530  0.30680  Biso   1.000  H
  C31      1.0000 0.65696  0.33090  0.30851  Biso   1.000  C
  H21      1.0000 0.59880  0.34880  0.28390  Biso   1.000  H
  C32      1.0000 0.71703  0.41940  0.33135  Biso   1.000  C
  C33      1.0000 0.80053  0.39320  0.37005  Biso   1.000  C
  H22      1.0000 0.84040  0.45500  0.38670  Biso   1.000  H
  C34      1.0000 0.82730  0.27780  0.38503  Biso   1.000  C
  C35      1.0000 0.69092  0.54270  0.30802  Biso   1.000  C
  C36      1.0000 0.96893  0.21320  0.37239  Biso   1.000  C
  H23      1.0000 0.00480  0.28060  0.36390  Biso   1.000  H
  H24      1.0000 0.92850  0.19460  0.32500  Biso   1.000  H
  C37      1.0000 0.02893  0.10880  0.39470  Biso   1.000  C
  C38      1.0000 0.95875  0.34570  0.47429  Biso   1.000  C
  C39      1.0000 0.99993  0.30520  0.55164  Biso   1.000  C
  C40      1.0000 0.23890  0.78310  0.46057  Biso   1.000  C
  H25      1.0000 0.20590  0.71540  0.46570  Biso   1.000  H
  C41      1.0000 0.31820  0.76740  0.44507  Biso   1.000  C
  H26      1.0000 0.33970  0.69080  0.44030  Biso   1.000  H
  C42      1.0000 0.36780  0.86620  0.43628  Biso   1.000  C
  C43      1.0000 0.33260  0.97370  0.44470  Biso   1.000  C
  H27      1.0000 0.36380  0.04290  0.43910  Biso   1.000  H
  C44      1.0000 0.25240  0.98150  0.46118  Biso   1.000  C
  H28      1.0000 0.23000  0.05710  0.46730  Biso   1.000  H
  C45      1.0000 0.45291  0.85310  0.41560  Biso   1.000  C
  C46      1.0000 0.50540  0.75590  0.43490  Biso   1.000  C
  H29      1.0000 0.48950  0.69660  0.46480  Biso   1.000  H
  C47      1.0000 0.58180  0.74540  0.41010  Biso   1.000  C
  H30      1.0000 0.61650  0.67750  0.42360  Biso   1.000  H
  C48      1.0000 0.55790  0.92020  0.35210  Biso   1.000  C
  H31      1.0000 0.57580  0.97930  0.32310  Biso   1.000  H
  C49      1.0000 0.48200  0.93760  0.37450  Biso   1.000  C
  H32      1.0000 0.44960  0.00760  0.36170  Biso   1.000  H
  C50      1.0000 0.08560  0.80020  0.28941  Biso   1.000  C
  H33      1.0000 0.06130  0.86780  0.30630  Biso   1.000  H
  C51      1.0000 0.16800  0.80650  0.27831  Biso   1.000  C
  H34      1.0000 0.19970  0.87780  0.28680  Biso   1.000  H
  C52      1.0000 0.20485  0.70850  0.25467  Biso   1.000  C
  C53      1.0000 0.15470  0.60750  0.24060  Biso   1.000  C
  H35      1.0000 0.17880  0.53830  0.22540  Biso   1.000  H
  C54      1.0000 0.07140  0.60713  0.24853  Biso   1.000  C
  H36      1.0000 0.03600  0.54020  0.23390  Biso   1.000  H
  H37      1.0000 0.00070  0.37940  0.44810  Biso   1.000  H
  H38      1.0000 0.91810  0.40160  0.47570  Biso   1.000  H
  O17      1.0000 0.83900  0.81008  0.28320  Biso   1.000  O
  O18      1.0000 0.03889  0.07168  0.46100  Biso   1.000  O
  Zn7      1.0000 0.42102  0.31644  0.80604  Biso   1.000  Zn
  Zn8      1.0000 0.22625  0.19162  0.82987  Biso   1.000  Zn
  Zn9      1.0000 0.41704  0.90912  0.00035  Biso   1.000  Zn
  O19      1.0000 0.56500  0.93170  0.84873  Biso   1.000  O
  O20      1.0000 0.48547  0.79521  0.07389  Biso   1.000  O
  O21      1.0000 0.54549  0.61986  0.09296  Biso   1.000  O
  O22      1.0000 0.35959  0.98097  0.90031  Biso   1.000  O
  O23      1.0000 0.22982  0.00897  0.82800  Biso   1.000  O
  O24      1.0000 0.12196  0.44894  0.75782  Biso   1.000  O
  O25      1.0000 0.23785  0.37403  0.83634  Biso   1.000  O
  N9       1.0000 0.41619  0.74933  0.92491  Biso   1.000  N
  N10      1.0000 0.70418  0.11220  0.96909  Biso   1.000  N
  N11      1.0000 0.10858  0.17520  0.86857  Biso   1.000  N
  N12      1.0000 0.53759  0.29800  0.77733  Biso   1.000  N
  C55      1.0000 0.28759  0.94360  0.86279  Biso   1.000  C
  C56      1.0000 0.26828  0.81390  0.85814  Biso   1.000  C
  C57      1.0000 0.18325  0.78390  0.82225  Biso   1.000  C
  H39      1.0000 0.14210  0.84470  0.80680  Biso   1.000  H
  C58      1.0000 0.15696  0.66910  0.80851  Biso   1.000  C
  H40      1.0000 0.09880  0.65120  0.78390  Biso   1.000  H
  C59      1.0000 0.21703  0.58060  0.83135  Biso   1.000  C
  C60      1.0000 0.30053  0.60680  0.87005  Biso   1.000  C
  H41      1.0000 0.34040  0.54500  0.88670  Biso   1.000  H
  C61      1.0000 0.32730  0.72220  0.88503  Biso   1.000  C
  C62      1.0000 0.19092  0.45730  0.80802  Biso   1.000  C
  C63      1.0000 0.46893  0.78680  0.87239  Biso   1.000  C
  H42      1.0000 0.50480  0.71940  0.86390  Biso   1.000  H
  H43      1.0000 0.42850  0.80540  0.82500  Biso   1.000  H
  C64      1.0000 0.52893  0.89120  0.89470  Biso   1.000  C
  C65      1.0000 0.45875  0.65430  0.97429  Biso   1.000  C
  C66      1.0000 0.49993  0.69480  0.05164  Biso   1.000  C
  C67      1.0000 0.73890  0.21690  0.96057  Biso   1.000  C
  H44      1.0000 0.70590  0.28460  0.96570  Biso   1.000  H
  C68      1.0000 0.81820  0.23260  0.94507  Biso   1.000  C
  H45      1.0000 0.83970  0.30920  0.94030  Biso   1.000  H
  C69      1.0000 0.86780  0.13380  0.93628  Biso   1.000  C
  C70      1.0000 0.83260  0.02630  0.94470  Biso   1.000  C
  H46      1.0000 0.86380  0.95710  0.93910  Biso   1.000  H
  C71      1.0000 0.75240  0.01850  0.96118  Biso   1.000  C
  H47      1.0000 0.73000  0.94290  0.96730  Biso   1.000  H
  C72      1.0000 0.95291  0.14690  0.91560  Biso   1.000  C
  C73      1.0000 0.00540  0.24410  0.93490  Biso   1.000  C
  H48      1.0000 0.98950  0.30340  0.96480  Biso   1.000  H
  C74      1.0000 0.08180  0.25460  0.91010  Biso   1.000  C
  H49      1.0000 0.11650  0.32250  0.92360  Biso   1.000  H
  C75      1.0000 0.05790  0.07980  0.85210  Biso   1.000  C
  H50      1.0000 0.07580  0.02070  0.82310  Biso   1.000  H
  C76      1.0000 0.98200  0.06240  0.87450  Biso   1.000  C
  H51      1.0000 0.94960  0.99240  0.86170  Biso   1.000  H
  C77      1.0000 0.58560  0.19980  0.78941  Biso   1.000  C
  H52      1.0000 0.56130  0.13220  0.80630  Biso   1.000  H
  C78      1.0000 0.66800  0.19350  0.77831  Biso   1.000  C
  H53      1.0000 0.69970  0.12220  0.78680  Biso   1.000  H
  C79      1.0000 0.70485  0.29150  0.75467  Biso   1.000  C
  C80      1.0000 0.65470  0.39250  0.74060  Biso   1.000  C
  H54      1.0000 0.67880  0.46170  0.72540  Biso   1.000  H
  C81      1.0000 0.57140  0.39287  0.74853  Biso   1.000  C
  H55      1.0000 0.53600  0.45980  0.73390  Biso   1.000  H
  H56      1.0000 0.50070  0.62060  0.94810  Biso   1.000  H
  H57      1.0000 0.41810  0.59840  0.97570  Biso   1.000  H
  O26      1.0000 0.33900  0.18992  0.78320  Biso   1.000  O
  O27      1.0000 0.53889  0.92832  0.96100  Biso   1.000  O
  Zn10     1.0000 0.07898  0.31644  0.69397  Biso   1.000  Zn
  Zn11     1.0000 0.27375  0.19162  0.67013  Biso   1.000  Zn
  Zn12     1.0000 0.08296  0.90912  0.49965  Biso   1.000  Zn
  O28      1.0000 0.93500  0.93170  0.65127  Biso   1.000  O
  O29      1.0000 0.01453  0.79521  0.42611  Biso   1.000  O
  O30      1.0000 0.95451  0.61986  0.40704  Biso   1.000  O
  O31      1.0000 0.14041  0.98097  0.59969  Biso   1.000  O
  O32      1.0000 0.27018  0.00897  0.67200  Biso   1.000  O
  O33      1.0000 0.37804  0.44894  0.74218  Biso   1.000  O
  O34      1.0000 0.26215  0.37403  0.66366  Biso   1.000  O
  N13      1.0000 0.08381  0.74933  0.57509  Biso   1.000  N
  N14      1.0000 0.79582  0.11220  0.53091  Biso   1.000  N
  N15      1.0000 0.39142  0.17520  0.63143  Biso   1.000  N
  N16      1.0000 0.96241  0.29800  0.72267  Biso   1.000  N
  C82      1.0000 0.21241  0.94360  0.63721  Biso   1.000  C
  C83      1.0000 0.23172  0.81390  0.64186  Biso   1.000  C
  C84      1.0000 0.31675  0.78390  0.67775  Biso   1.000  C
  H58      1.0000 0.35790  0.84470  0.69320  Biso   1.000  H
  C85      1.0000 0.34304  0.66910  0.69149  Biso   1.000  C
  H59      1.0000 0.40120  0.65120  0.71610  Biso   1.000  H
  C86      1.0000 0.28297  0.58060  0.66865  Biso   1.000  C
  C87      1.0000 0.19947  0.60680  0.62995  Biso   1.000  C
  H60      1.0000 0.15960  0.54500  0.61330  Biso   1.000  H
  C88      1.0000 0.17270  0.72220  0.61497  Biso   1.000  C
  C89      1.0000 0.30908  0.45730  0.69198  Biso   1.000  C
  C90      1.0000 0.03107  0.78680  0.62761  Biso   1.000  C
  H61      1.0000 0.99520  0.71940  0.63610  Biso   1.000  H
  H62      1.0000 0.07150  0.80540  0.67500  Biso   1.000  H
  C91      1.0000 0.97107  0.89120  0.60530  Biso   1.000  C
  C92      1.0000 0.04125  0.65430  0.52571  Biso   1.000  C
  C93      1.0000 0.00007  0.69480  0.44836  Biso   1.000  C
  C94      1.0000 0.76110  0.21690  0.53943  Biso   1.000  C
  H63      1.0000 0.79410  0.28460  0.53430  Biso   1.000  H
  C95      1.0000 0.68180  0.23260  0.55493  Biso   1.000  C
  H64      1.0000 0.66030  0.30920  0.55970  Biso   1.000  H
  C96      1.0000 0.63220  0.13380  0.56372  Biso   1.000  C
  C97      1.0000 0.66740  0.02630  0.55530  Biso   1.000  C
  H65      1.0000 0.63620  0.95710  0.56090  Biso   1.000  H
  C98      1.0000 0.74760  0.01850  0.53882  Biso   1.000  C
  H66      1.0000 0.77000  0.94290  0.53270  Biso   1.000  H
  C99      1.0000 0.54709  0.14690  0.58440  Biso   1.000  C
  C100     1.0000 0.49460  0.24410  0.56510  Biso   1.000  C
  H67      1.0000 0.51050  0.30340  0.53520  Biso   1.000  H
  C101     1.0000 0.41820  0.25460  0.58990  Biso   1.000  C
  H68      1.0000 0.38350  0.32250  0.57640  Biso   1.000  H
  C102     1.0000 0.44210  0.07980  0.64790  Biso   1.000  C
  H69      1.0000 0.42420  0.02070  0.67690  Biso   1.000  H
  C103     1.0000 0.51800  0.06240  0.62550  Biso   1.000  C
  H70      1.0000 0.55040  0.99240  0.63830  Biso   1.000  H
  C104     1.0000 0.91440  0.19980  0.71059  Biso   1.000  C
  H71      1.0000 0.93870  0.13220  0.69370  Biso   1.000  H
  C105     1.0000 0.83200  0.19350  0.72169  Biso   1.000  C
  H72      1.0000 0.80030  0.12220  0.71320  Biso   1.000  H
  C106     1.0000 0.79515  0.29150  0.74533  Biso   1.000  C
  C107     1.0000 0.84530  0.39250  0.75940  Biso   1.000  C
  H73      1.0000 0.82120  0.46170  0.77460  Biso   1.000  H
  C108     1.0000 0.92860  0.39287  0.75147  Biso   1.000  C
  H74      1.0000 0.96400  0.45980  0.76610  Biso   1.000  H
  H75      1.0000 0.99930  0.62060  0.55190  Biso   1.000  H
  H76      1.0000 0.08190  0.59840  0.52430  Biso   1.000  H
  O35      1.0000 0.16100  0.18992  0.71680  Biso   1.000  O
  O36      1.0000 0.96111  0.92832  0.53900  Biso   1.000  O
