data_image0
_cell_length_a       18.1136
_cell_length_b       18.1136
_cell_length_c       13.1866
_cell_angle_alpha    90
_cell_angle_beta     90
_cell_angle_gamma    90

_symmetry_space_group_name_H-M    "P 1"
_symmetry_int_tables_number       1

loop_
  _symmetry_equiv_pos_as_xyz
  'x, y, z'

loop_
  _atom_site_label
  _atom_site_occupancy
  _atom_site_fract_x
  _atom_site_fract_y
  _atom_site_fract_z
  _atom_site_thermal_displace_type
  _atom_site_B_iso_or_equiv
  _atom_site_type_symbol
  N1       1.0000 0.01891  0.58931  0.41410  Biso   1.000  N
  N2       1.0000 0.02308  0.58717  0.30950  Biso   1.000  N
  N3       1.0000 0.02861  0.69986  0.35920  Biso   1.000  N
  N4       1.0000 0.07792  0.88557  0.38730  Biso   1.000  N
  N5       1.0000 0.01221  0.89098  0.33260  Biso   1.000  N
  N6       1.0000 0.03465  0.77625  0.35840  Biso   1.000  N
  C1       1.0000 0.02170  0.65759  0.44280  Biso   1.000  C
  H1       1.0000 0.02000  0.67470  0.51120  Biso   1.000  H
  C2       1.0000 0.03010  0.65493  0.27780  Biso   1.000  C
  H2       1.0000 0.03490  0.67000  0.20870  Biso   1.000  H
  C3       1.0000 0.09040  0.81570  0.40050  Biso   1.000  C
  H3       1.0000 0.13120  0.79540  0.43700  Biso   1.000  H
  C4       1.0000 0.98700  0.82450  0.31640  Biso   1.000  C
  H4       1.0000 0.94340  0.81230  0.27930  Biso   1.000  H
  N7       1.0000 0.48109  0.91069  0.41410  Biso   1.000  N
  N8       1.0000 0.47692  0.91283  0.30950  Biso   1.000  N
  N9       1.0000 0.47139  0.80014  0.35920  Biso   1.000  N
  N10      1.0000 0.42208  0.61443  0.38730  Biso   1.000  N
  N11      1.0000 0.48779  0.60902  0.33260  Biso   1.000  N
  N12      1.0000 0.46535  0.72375  0.35840  Biso   1.000  N
  C5       1.0000 0.47830  0.84241  0.44280  Biso   1.000  C
  H5       1.0000 0.48000  0.82530  0.51120  Biso   1.000  H
  C6       1.0000 0.46990  0.84507  0.27780  Biso   1.000  C
  H6       1.0000 0.46510  0.83000  0.20870  Biso   1.000  H
  C7       1.0000 0.40960  0.68430  0.40050  Biso   1.000  C
  H7       1.0000 0.36880  0.70460  0.43700  Biso   1.000  H
  C8       1.0000 0.51300  0.67550  0.31640  Biso   1.000  C
  H8       1.0000 0.55660  0.68770  0.27930  Biso   1.000  H
  N13      1.0000 0.91069  0.01891  0.91410  Biso   1.000  N
  N14      1.0000 0.91283  0.02308  0.80950  Biso   1.000  N
  N15      1.0000 0.80014  0.02861  0.85920  Biso   1.000  N
  N16      1.0000 0.61443  0.07792  0.88730  Biso   1.000  N
  N17      1.0000 0.60902  0.01221  0.83260  Biso   1.000  N
  N18      1.0000 0.72375  0.03465  0.85840  Biso   1.000  N
  C9       1.0000 0.84241  0.02170  0.94280  Biso   1.000  C
  H9       1.0000 0.82530  0.02000  0.01120  Biso   1.000  H
  C10      1.0000 0.84507  0.03010  0.77780  Biso   1.000  C
  H10      1.0000 0.83000  0.03490  0.70870  Biso   1.000  H
  C11      1.0000 0.68430  0.09040  0.90050  Biso   1.000  C
  H11      1.0000 0.70460  0.13120  0.93700  Biso   1.000  H
  C12      1.0000 0.67550  0.98700  0.81640  Biso   1.000  C
  H12      1.0000 0.68770  0.94340  0.77930  Biso   1.000  H
  N19      1.0000 0.58931  0.48109  0.91410  Biso   1.000  N
  N20      1.0000 0.58717  0.47692  0.80950  Biso   1.000  N
  N21      1.0000 0.69986  0.47139  0.85920  Biso   1.000  N
  N22      1.0000 0.88557  0.42208  0.88730  Biso   1.000  N
  N23      1.0000 0.89098  0.48779  0.83260  Biso   1.000  N
  N24      1.0000 0.77625  0.46535  0.85840  Biso   1.000  N
  C13      1.0000 0.65759  0.47830  0.94280  Biso   1.000  C
  H13      1.0000 0.67470  0.48000  0.01120  Biso   1.000  H
  C14      1.0000 0.65493  0.46990  0.77780  Biso   1.000  C
  H14      1.0000 0.67000  0.46510  0.70870  Biso   1.000  H
  C15      1.0000 0.81570  0.40960  0.90050  Biso   1.000  C
  H15      1.0000 0.79540  0.36880  0.93700  Biso   1.000  H
  C16      1.0000 0.82450  0.51300  0.81640  Biso   1.000  C
  H16      1.0000 0.81230  0.55660  0.77930  Biso   1.000  H
  N25      1.0000 0.98109  0.08931  0.08590  Biso   1.000  N
  N26      1.0000 0.97692  0.08717  0.19050  Biso   1.000  N
  N27      1.0000 0.97139  0.19986  0.14080  Biso   1.000  N
  N28      1.0000 0.92208  0.38557  0.11270  Biso   1.000  N
  N29      1.0000 0.98779  0.39098  0.16740  Biso   1.000  N
  N30      1.0000 0.96535  0.27625  0.14160  Biso   1.000  N
  C17      1.0000 0.97830  0.15759  0.05720  Biso   1.000  C
  H17      1.0000 0.98000  0.17470  0.98880  Biso   1.000  H
  C18      1.0000 0.96990  0.15493  0.22220  Biso   1.000  C
  H18      1.0000 0.96510  0.17000  0.29130  Biso   1.000  H
  C19      1.0000 0.90960  0.31570  0.09950  Biso   1.000  C
  H19      1.0000 0.86880  0.29540  0.06300  Biso   1.000  H
  C20      1.0000 0.01300  0.32450  0.18360  Biso   1.000  C
  H20      1.0000 0.05660  0.31230  0.22070  Biso   1.000  H
  N31      1.0000 0.51891  0.41069  0.08590  Biso   1.000  N
  N32      1.0000 0.52308  0.41283  0.19050  Biso   1.000  N
  N33      1.0000 0.52861  0.30014  0.14080  Biso   1.000  N
  N34      1.0000 0.57792  0.11443  0.11270  Biso   1.000  N
  N35      1.0000 0.51221  0.10902  0.16740  Biso   1.000  N
  N36      1.0000 0.53465  0.22375  0.14160  Biso   1.000  N
  C21      1.0000 0.52170  0.34241  0.05720  Biso   1.000  C
  H21      1.0000 0.52000  0.32530  0.98880  Biso   1.000  H
  C22      1.0000 0.53010  0.34507  0.22220  Biso   1.000  C
  H22      1.0000 0.53490  0.33000  0.29130  Biso   1.000  H
  C23      1.0000 0.59040  0.18430  0.09950  Biso   1.000  C
  H23      1.0000 0.63120  0.20460  0.06300  Biso   1.000  H
  C24      1.0000 0.48700  0.17550  0.18360  Biso   1.000  C
  H24      1.0000 0.44340  0.18770  0.22070  Biso   1.000  H
  N37      1.0000 0.08931  0.51891  0.58590  Biso   1.000  N
  N38      1.0000 0.08717  0.52308  0.69050  Biso   1.000  N
  N39      1.0000 0.19986  0.52861  0.64080  Biso   1.000  N
  N40      1.0000 0.38557  0.57792  0.61270  Biso   1.000  N
  N41      1.0000 0.39098  0.51221  0.66740  Biso   1.000  N
  N42      1.0000 0.27625  0.53465  0.64160  Biso   1.000  N
  C25      1.0000 0.15759  0.52170  0.55720  Biso   1.000  C
  H25      1.0000 0.17470  0.52000  0.48880  Biso   1.000  H
  C26      1.0000 0.15493  0.53010  0.72220  Biso   1.000  C
  H26      1.0000 0.17000  0.53490  0.79130  Biso   1.000  H
  C27      1.0000 0.31570  0.59040  0.59950  Biso   1.000  C
  H27      1.0000 0.29540  0.63120  0.56300  Biso   1.000  H
  C28      1.0000 0.32450  0.48700  0.68360  Biso   1.000  C
  H28      1.0000 0.31230  0.44340  0.72070  Biso   1.000  H
  N43      1.0000 0.41069  0.98109  0.58590  Biso   1.000  N
  N44      1.0000 0.41283  0.97692  0.69050  Biso   1.000  N
  N45      1.0000 0.30014  0.97139  0.64080  Biso   1.000  N
  N46      1.0000 0.11443  0.92208  0.61270  Biso   1.000  N
  N47      1.0000 0.10902  0.98779  0.66740  Biso   1.000  N
  N48      1.0000 0.22375  0.96535  0.64160  Biso   1.000  N
  C29      1.0000 0.34241  0.97830  0.55720  Biso   1.000  C
  H29      1.0000 0.32530  0.98000  0.48880  Biso   1.000  H
  C30      1.0000 0.34507  0.96990  0.72220  Biso   1.000  C
  H30      1.0000 0.33000  0.96510  0.79130  Biso   1.000  H
  C31      1.0000 0.18430  0.90960  0.59950  Biso   1.000  C
  H31      1.0000 0.20460  0.86880  0.56300  Biso   1.000  H
  C32      1.0000 0.17550  0.01300  0.68360  Biso   1.000  C
  H32      1.0000 0.18770  0.05660  0.72070  Biso   1.000  H
  N49      1.0000 0.98109  0.41069  0.58590  Biso   1.000  N
  N50      1.0000 0.97692  0.41283  0.69050  Biso   1.000  N
  N51      1.0000 0.97139  0.30014  0.64080  Biso   1.000  N
  N52      1.0000 0.92208  0.11443  0.61270  Biso   1.000  N
  N53      1.0000 0.98779  0.10902  0.66740  Biso   1.000  N
  N54      1.0000 0.96535  0.22375  0.64160  Biso   1.000  N
  C33      1.0000 0.97830  0.34241  0.55720  Biso   1.000  C
  H33      1.0000 0.98000  0.32530  0.48880  Biso   1.000  H
  C34      1.0000 0.96990  0.34507  0.72220  Biso   1.000  C
  H34      1.0000 0.96510  0.33000  0.79130  Biso   1.000  H
  C35      1.0000 0.90960  0.18430  0.59950  Biso   1.000  C
  H35      1.0000 0.86880  0.20460  0.56300  Biso   1.000  H
  C36      1.0000 0.01300  0.17550  0.68360  Biso   1.000  C
  H36      1.0000 0.05660  0.18770  0.72070  Biso   1.000  H
  N55      1.0000 0.51891  0.08931  0.58590  Biso   1.000  N
  N56      1.0000 0.52308  0.08717  0.69050  Biso   1.000  N
  N57      1.0000 0.52861  0.19986  0.64080  Biso   1.000  N
  N58      1.0000 0.57792  0.38557  0.61270  Biso   1.000  N
  N59      1.0000 0.51221  0.39098  0.66740  Biso   1.000  N
  N60      1.0000 0.53465  0.27625  0.64160  Biso   1.000  N
  C37      1.0000 0.52170  0.15759  0.55720  Biso   1.000  C
  H37      1.0000 0.52000  0.17470  0.48880  Biso   1.000  H
  C38      1.0000 0.53010  0.15493  0.72220  Biso   1.000  C
  H38      1.0000 0.53490  0.17000  0.79130  Biso   1.000  H
  C39      1.0000 0.59040  0.31570  0.59950  Biso   1.000  C
  H39      1.0000 0.63120  0.29540  0.56300  Biso   1.000  H
  C40      1.0000 0.48700  0.32450  0.68360  Biso   1.000  C
  H40      1.0000 0.44340  0.31230  0.72070  Biso   1.000  H
  N61      1.0000 0.08931  0.98109  0.08590  Biso   1.000  N
  N62      1.0000 0.08717  0.97692  0.19050  Biso   1.000  N
  N63      1.0000 0.19986  0.97139  0.14080  Biso   1.000  N
  N64      1.0000 0.38557  0.92208  0.11270  Biso   1.000  N
  N65      1.0000 0.39098  0.98779  0.16740  Biso   1.000  N
  N66      1.0000 0.27625  0.96535  0.14160  Biso   1.000  N
  C41      1.0000 0.15759  0.97830  0.05720  Biso   1.000  C
  H41      1.0000 0.17470  0.98000  0.98880  Biso   1.000  H
  C42      1.0000 0.15493  0.96990  0.22220  Biso   1.000  C
  H42      1.0000 0.17000  0.96510  0.29130  Biso   1.000  H
  C43      1.0000 0.31570  0.90960  0.09950  Biso   1.000  C
  H43      1.0000 0.29540  0.86880  0.06300  Biso   1.000  H
  C44      1.0000 0.32450  0.01300  0.18360  Biso   1.000  C
  H44      1.0000 0.31230  0.05660  0.22070  Biso   1.000  H
  N67      1.0000 0.41069  0.51891  0.08590  Biso   1.000  N
  N68      1.0000 0.41283  0.52308  0.19050  Biso   1.000  N
  N69      1.0000 0.30014  0.52861  0.14080  Biso   1.000  N
  N70      1.0000 0.11443  0.57792  0.11270  Biso   1.000  N
  N71      1.0000 0.10902  0.51221  0.16740  Biso   1.000  N
  N72      1.0000 0.22375  0.53465  0.14160  Biso   1.000  N
  C45      1.0000 0.34241  0.52170  0.05720  Biso   1.000  C
  H45      1.0000 0.32530  0.52000  0.98880  Biso   1.000  H
  C46      1.0000 0.34507  0.53010  0.22220  Biso   1.000  C
  H46      1.0000 0.33000  0.53490  0.29130  Biso   1.000  H
  C47      1.0000 0.18430  0.59040  0.09950  Biso   1.000  C
  H47      1.0000 0.20460  0.63120  0.06300  Biso   1.000  H
  C48      1.0000 0.17550  0.48700  0.18360  Biso   1.000  C
  H48      1.0000 0.18770  0.44340  0.22070  Biso   1.000  H
  N73      1.0000 0.01891  0.91069  0.91410  Biso   1.000  N
  N74      1.0000 0.02308  0.91283  0.80950  Biso   1.000  N
  N75      1.0000 0.02861  0.80014  0.85920  Biso   1.000  N
  N76      1.0000 0.07792  0.61443  0.88730  Biso   1.000  N
  N77      1.0000 0.01221  0.60902  0.83260  Biso   1.000  N
  N78      1.0000 0.03465  0.72375  0.85840  Biso   1.000  N
  C49      1.0000 0.02170  0.84241  0.94280  Biso   1.000  C
  H49      1.0000 0.02000  0.82530  0.01120  Biso   1.000  H
  C50      1.0000 0.03010  0.84507  0.77780  Biso   1.000  C
  H50      1.0000 0.03490  0.83000  0.70870  Biso   1.000  H
  C51      1.0000 0.09040  0.68430  0.90050  Biso   1.000  C
  H51      1.0000 0.13120  0.70460  0.93700  Biso   1.000  H
  C52      1.0000 0.98700  0.67550  0.81640  Biso   1.000  C
  H52      1.0000 0.94340  0.68770  0.77930  Biso   1.000  H
  N79      1.0000 0.48109  0.58931  0.91410  Biso   1.000  N
  N80      1.0000 0.47692  0.58717  0.80950  Biso   1.000  N
  N81      1.0000 0.47139  0.69986  0.85920  Biso   1.000  N
  N82      1.0000 0.42208  0.88557  0.88730  Biso   1.000  N
  N83      1.0000 0.48779  0.89098  0.83260  Biso   1.000  N
  N84      1.0000 0.46535  0.77625  0.85840  Biso   1.000  N
  C53      1.0000 0.47830  0.65759  0.94280  Biso   1.000  C
  H53      1.0000 0.48000  0.67470  0.01120  Biso   1.000  H
  C54      1.0000 0.46990  0.65493  0.77780  Biso   1.000  C
  H54      1.0000 0.46510  0.67000  0.70870  Biso   1.000  H
  C55      1.0000 0.40960  0.81570  0.90050  Biso   1.000  C
  H55      1.0000 0.36880  0.79540  0.93700  Biso   1.000  H
  C56      1.0000 0.51300  0.82450  0.81640  Biso   1.000  C
  H56      1.0000 0.55660  0.81230  0.77930  Biso   1.000  H
  N85      1.0000 0.91069  0.48109  0.41410  Biso   1.000  N
  N86      1.0000 0.91283  0.47692  0.30950  Biso   1.000  N
  N87      1.0000 0.80014  0.47139  0.35920  Biso   1.000  N
  N88      1.0000 0.61443  0.42208  0.38730  Biso   1.000  N
  N89      1.0000 0.60902  0.48779  0.33260  Biso   1.000  N
  N90      1.0000 0.72375  0.46535  0.35840  Biso   1.000  N
  C57      1.0000 0.84241  0.47830  0.44280  Biso   1.000  C
  H57      1.0000 0.82530  0.48000  0.51120  Biso   1.000  H
  C58      1.0000 0.84507  0.46990  0.27780  Biso   1.000  C
  H58      1.0000 0.83000  0.46510  0.20870  Biso   1.000  H
  C59      1.0000 0.68430  0.40960  0.40050  Biso   1.000  C
  H59      1.0000 0.70460  0.36880  0.43700  Biso   1.000  H
  C60      1.0000 0.67550  0.51300  0.31640  Biso   1.000  C
  H60      1.0000 0.68770  0.55660  0.27930  Biso   1.000  H
  N91      1.0000 0.58931  0.01891  0.41410  Biso   1.000  N
  N92      1.0000 0.58717  0.02308  0.30950  Biso   1.000  N
  N93      1.0000 0.69986  0.02861  0.35920  Biso   1.000  N
  N94      1.0000 0.88557  0.07792  0.38730  Biso   1.000  N
  N95      1.0000 0.89098  0.01221  0.33260  Biso   1.000  N
  N96      1.0000 0.77625  0.03465  0.35840  Biso   1.000  N
  C61      1.0000 0.65759  0.02170  0.44280  Biso   1.000  C
  H61      1.0000 0.67470  0.02000  0.51120  Biso   1.000  H
  C62      1.0000 0.65493  0.03010  0.27780  Biso   1.000  C
  H62      1.0000 0.67000  0.03490  0.20870  Biso   1.000  H
  C63      1.0000 0.81570  0.09040  0.40050  Biso   1.000  C
  H63      1.0000 0.79540  0.13120  0.43700  Biso   1.000  H
  C64      1.0000 0.82450  0.98700  0.31640  Biso   1.000  C
  H64      1.0000 0.81230  0.94340  0.27930  Biso   1.000  H
  Cu1      1.0000 0.01194  0.48806  0.23450  Biso   1.000  Cu
  Cl1      1.0000 0.08012  0.41988  0.37630  Biso   1.000  Cl
  Cu2      1.0000 0.48806  0.01194  0.23450  Biso   1.000  Cu
  Cl2      1.0000 0.41988  0.08012  0.37630  Biso   1.000  Cl
  Cu3      1.0000 0.01194  0.01194  0.73450  Biso   1.000  Cu
  Cl3      1.0000 0.08012  0.08012  0.87630  Biso   1.000  Cl
  Cu4      1.0000 0.48806  0.48806  0.73450  Biso   1.000  Cu
  Cl4      1.0000 0.41988  0.41988  0.87630  Biso   1.000  Cl
  Cu5      1.0000 0.98806  0.98806  0.26550  Biso   1.000  Cu
  Cl5      1.0000 0.91988  0.91988  0.12370  Biso   1.000  Cl
  Cu6      1.0000 0.51194  0.51194  0.26550  Biso   1.000  Cu
  Cl6      1.0000 0.58012  0.58012  0.12370  Biso   1.000  Cl
  Cu7      1.0000 0.98806  0.51194  0.76550  Biso   1.000  Cu
  Cl7      1.0000 0.91988  0.58012  0.62370  Biso   1.000  Cl
  Cu8      1.0000 0.51194  0.98806  0.76550  Biso   1.000  Cu
  Cl8      1.0000 0.58012  0.91988  0.62370  Biso   1.000  Cl
  Cu9      1.0000 0.00000  0.50000  0.50000  Biso   1.000  Cu
  Cu10     1.0000 0.50000  0.00000  0.50000  Biso   1.000  Cu
  Cu11     1.0000 0.00000  0.00000  0.00000  Biso   1.000  Cu
  Cu12     1.0000 0.50000  0.50000  0.00000  Biso   1.000  Cu
