data_NEVVAM_clean
_audit_creation_date              2014-07-02
_audit_creation_method            'Materials Studio'
_symmetry_space_group_name_H-M    'P1'
_symmetry_Int_Tables_number       1
_symmetry_cell_setting            triclinic
loop_
_symmetry_equiv_pos_as_xyz
  x,y,z
_cell_length_a                    10.7738
_cell_length_b                    11.1482
_cell_length_c                    11.1482
_cell_angle_alpha                 99.9866
_cell_angle_beta                  102.4880
_cell_angle_gamma                 77.5125
loop_
_atom_site_label
_atom_site_type_symbol
_atom_site_fract_x
_atom_site_fract_y
_atom_site_fract_z
_atom_site_U_iso_or_equiv
_atom_site_adp_type
_atom_site_occupancy
Co1    Co    0.05241   0.93389   0.12107   0.01267  Uiso   1.00
Co2    Co    0.44759   0.12107   0.93389   0.01267  Uiso   1.00
Co3    Co    0.94759   0.06611   0.87893   0.01267  Uiso   1.00
Co4    Co    0.55241   0.87893   0.06611   0.01267  Uiso   1.00
Co5    Co    0.25000   0.09148   0.09148   0.01267  Uiso   1.00
Co6    Co    0.75000   0.90852   0.90852   0.01267  Uiso   1.00
H1     H     0.01900   0.16600   0.09800   0.01267  Uiso   1.00
H2     H     0.36100   0.54780   0.04020   0.01267  Uiso   1.00
H3     H     0.06100   0.47300   0.13700   0.01267  Uiso   1.00
H4     H     0.97900   0.68600   0.17400   0.01267  Uiso   1.00
H5     H     0.48100   0.09800   0.16600   0.01267  Uiso   1.00
H6     H     0.13900   0.04020   0.54780   0.01267  Uiso   1.00
H7     H     0.43900   0.13700   0.47300   0.01267  Uiso   1.00
H8     H     0.52100   0.17400   0.68600   0.01267  Uiso   1.00
H9     H     0.98100   0.83400   0.90200   0.01267  Uiso   1.00
H10    H     0.63900   0.45220   0.95980   0.01267  Uiso   1.00
H11    H     0.93900   0.52700   0.86300   0.01267  Uiso   1.00
H12    H     0.02100   0.31400   0.82600   0.01267  Uiso   1.00
H13    H     0.51900   0.90200   0.83400   0.01267  Uiso   1.00
H14    H     0.86100   0.95980   0.45220   0.01267  Uiso   1.00
H15    H     0.56100   0.86300   0.52700   0.01267  Uiso   1.00
H16    H     0.47900   0.82600   0.31400   0.01267  Uiso   1.00
C1     C     0.23670   0.69671   0.08807   0.01267  Uiso   1.00
C2     C     0.28940   0.57178   0.06586   0.01267  Uiso   1.00
C3     C     0.22120   0.48568   0.08276   0.01267  Uiso   1.00
C4     C     0.10520   0.52817   0.12463   0.01267  Uiso   1.00
C5     C     0.05830   0.65461   0.14259   0.01267  Uiso   1.00
C6     C     0.30300   0.79661   0.07117   0.01267  Uiso   1.00
C7     C     0.26980   0.34709   0.05763   0.01267  Uiso   1.00
C8     C     0.26330   0.08807   0.69671   0.01267  Uiso   1.00
C9     C     0.21060   0.06586   0.57178   0.01267  Uiso   1.00
C10    C     0.27880   0.08276   0.48568   0.01267  Uiso   1.00
C11    C     0.39480   0.12463   0.52817   0.01267  Uiso   1.00
C12    C     0.44170   0.14259   0.65461   0.01267  Uiso   1.00
C13    C     0.19700   0.07117   0.79661   0.01267  Uiso   1.00
C14    C     0.23020   0.05763   0.34709   0.01267  Uiso   1.00
C15    C     0.76330   0.30329   0.91193   0.01267  Uiso   1.00
C16    C     0.71060   0.42822   0.93414   0.01267  Uiso   1.00
C17    C     0.77880   0.51432   0.91724   0.01267  Uiso   1.00
C18    C     0.89480   0.47183   0.87537   0.01267  Uiso   1.00
C19    C     0.94170   0.34539   0.85741   0.01267  Uiso   1.00
C20    C     0.69700   0.20339   0.92883   0.01267  Uiso   1.00
C21    C     0.73020   0.65291   0.94237   0.01267  Uiso   1.00
C22    C     0.73670   0.91193   0.30329   0.01267  Uiso   1.00
C23    C     0.78940   0.93414   0.42822   0.01267  Uiso   1.00
C24    C     0.72120   0.91724   0.51432   0.01267  Uiso   1.00
C25    C     0.60520   0.87537   0.47183   0.01267  Uiso   1.00
C26    C     0.55830   0.85741   0.34539   0.01267  Uiso   1.00
C27    C     0.80300   0.92883   0.20339   0.01267  Uiso   1.00
C28    C     0.76980   0.94237   0.65291   0.01267  Uiso   1.00
N1     N     0.12150   0.73805   0.12337   0.01267  Uiso   1.00
N2     N     0.37850   0.12337   0.73805   0.01267  Uiso   1.00
N3     N     0.87850   0.26195   0.87663   0.01267  Uiso   1.00
N4     N     0.62150   0.87663   0.26195   0.01267  Uiso   1.00
O1     O     0.23473   0.90379   0.07225   0.01267  Uiso   1.00
O2     O     0.41813   0.76902   0.05980   0.01267  Uiso   1.00
O3     O     0.34556   0.30997   0.98177   0.01267  Uiso   1.00
O4     O     0.22770   0.28154   0.11410   0.01267  Uiso   1.00
O5     O     0.05017   0.10137   0.05985   0.01267  Uiso   1.00
O6     O     0.26527   0.07225   0.90379   0.01267  Uiso   1.00
O7     O     0.08187   0.05980   0.76902   0.01267  Uiso   1.00
O8     O     0.15444   0.98177   0.30997   0.01267  Uiso   1.00
O9     O     0.27230   0.11410   0.28154   0.01267  Uiso   1.00
O10    O     0.44983   0.05985   0.10137   0.01267  Uiso   1.00
O11    O     0.76527   0.09621   0.92775   0.01267  Uiso   1.00
O12    O     0.58187   0.23098   0.94020   0.01267  Uiso   1.00
O13    O     0.65444   0.69003   0.01823   0.01267  Uiso   1.00
O14    O     0.77230   0.71846   0.88590   0.01267  Uiso   1.00
O15    O     0.94983   0.89863   0.94015   0.01267  Uiso   1.00
O16    O     0.73473   0.92775   0.09621   0.01267  Uiso   1.00
O17    O     0.91813   0.94020   0.23098   0.01267  Uiso   1.00
O18    O     0.84556   0.01823   0.69003   0.01267  Uiso   1.00
O19    O     0.72770   0.88590   0.71846   0.01267  Uiso   1.00
O20    O     0.55017   0.94015   0.89863   0.01267  Uiso   1.00
