data_NEVVAM02_clean
_audit_creation_date              2015-10-16
_audit_creation_method            'Materials Studio'
_symmetry_space_group_name_H-M    'P1'
_symmetry_Int_Tables_number       1
_symmetry_cell_setting            triclinic
loop_
_symmetry_equiv_pos_as_xyz
  x,y,z
_cell_length_a                    10.8250
_cell_length_b                    11.1496
_cell_length_c                    11.1496
_cell_angle_alpha                 103.0040
_cell_angle_beta                  102.2860
_cell_angle_gamma                 77.7140
loop_
_atom_site_label
_atom_site_type_symbol
_atom_site_fract_x
_atom_site_fract_y
_atom_site_fract_z
_atom_site_U_iso_or_equiv
_atom_site_adp_type
_atom_site_occupancy
Co1    Co    0.44988   0.06087   0.87890   0.01267  Uiso   1.00
Co2    Co    0.05012   0.87891   0.06088   0.01267  Uiso   1.00
Co3    Co    0.75000   0.09516   0.09516   0.01267  Uiso   1.00
Co4    Co    0.55012   0.93912   0.12110   0.01267  Uiso   1.00
Co5    Co    0.25000   0.90484   0.90484   0.01267  Uiso   1.00
Co6    Co    0.94988   0.12110   0.93913   0.01267  Uiso   1.00
H1     H     0.47980   0.83220   0.90180   0.01267  Uiso   1.00
H2     H     0.52200   0.31470   0.83690   0.01267  Uiso   1.00
H3     H     0.02020   0.90180   0.83220   0.01267  Uiso   1.00
H4     H     0.47800   0.68530   0.16310   0.01267  Uiso   1.00
H5     H     0.45420   0.51570   0.85490   0.01267  Uiso   1.00
H6     H     0.02200   0.16310   0.68530   0.01267  Uiso   1.00
H7     H     0.97980   0.09820   0.16780   0.01267  Uiso   1.00
H8     H     0.52020   0.16780   0.09820   0.01267  Uiso   1.00
H9     H     0.13430   0.45020   0.95940   0.01267  Uiso   1.00
H10    H     0.54580   0.48430   0.14510   0.01267  Uiso   1.00
H11    H     0.95420   0.14510   0.48430   0.01267  Uiso   1.00
H12    H     0.97800   0.83690   0.31470   0.01267  Uiso   1.00
H13    H     0.63430   0.04060   0.54980   0.01267  Uiso   1.00
H14    H     0.86570   0.54980   0.04060   0.01267  Uiso   1.00
H15    H     0.04580   0.85490   0.51570   0.01267  Uiso   1.00
H16    H     0.36570   0.95940   0.45020   0.01267  Uiso   1.00
C1     C     0.78760   0.57446   0.06752   0.01267  Uiso   1.00
C2     C     0.22050   0.91163   0.51037   0.01267  Uiso   1.00
C3     C     0.60440   0.53497   0.13003   0.01267  Uiso   1.00
C4     C     0.72930   0.06604   0.35026   0.01267  Uiso   1.00
C5     C     0.23380   0.91482   0.29994   0.01267  Uiso   1.00
C6     C     0.71240   0.06752   0.57446   0.01267  Uiso   1.00
C7     C     0.27070   0.93396   0.64974   0.01267  Uiso   1.00
C8     C     0.10440   0.86997   0.46503   0.01267  Uiso   1.00
C9     C     0.77950   0.08837   0.48963   0.01267  Uiso   1.00
C10    C     0.94370   0.14361   0.66203   0.01267  Uiso   1.00
C11    C     0.55630   0.66203   0.14361   0.01267  Uiso   1.00
C12    C     0.26620   0.29994   0.91482   0.01267  Uiso   1.00
C13    C     0.05630   0.85639   0.33797   0.01267  Uiso   1.00
C14    C     0.77070   0.35026   0.06604   0.01267  Uiso   1.00
C15    C     0.20060   0.20144   0.93480   0.01267  Uiso   1.00
C16    C     0.29940   0.93480   0.20144   0.01267  Uiso   1.00
C17    C     0.76620   0.08518   0.70006   0.01267  Uiso   1.00
C18    C     0.21240   0.42554   0.93248   0.01267  Uiso   1.00
C19    C     0.39560   0.46503   0.86997   0.01267  Uiso   1.00
C20    C     0.22930   0.64974   0.93396   0.01267  Uiso   1.00
C21    C     0.27950   0.51037   0.91163   0.01267  Uiso   1.00
C22    C     0.73380   0.70006   0.08518   0.01267  Uiso   1.00
C23    C     0.44370   0.33797   0.85639   0.01267  Uiso   1.00
C24    C     0.28760   0.93248   0.42554   0.01267  Uiso   1.00
C25    C     0.89560   0.13003   0.53497   0.01267  Uiso   1.00
C26    C     0.79940   0.79856   0.06520   0.01267  Uiso   1.00
C27    C     0.70060   0.06520   0.79856   0.01267  Uiso   1.00
C28    C     0.72050   0.48963   0.08837   0.01267  Uiso   1.00
N1     N     0.88129   0.12080   0.74354   0.01267  Uiso   1.00
N2     N     0.61871   0.74354   0.12080   0.01267  Uiso   1.00
N3     N     0.38129   0.25646   0.87920   0.01267  Uiso   1.00
N4     N     0.11871   0.87920   0.25646   0.01267  Uiso   1.00
O1     O     0.15064   0.69015   0.00795   0.01267  Uiso   1.00
O2     O     0.84936   0.30985   0.99205   0.01267  Uiso   1.00
O3     O     0.26758   0.09377   0.93025   0.01267  Uiso   1.00
O4     O     0.65064   0.99205   0.30985   0.01267  Uiso   1.00
O5     O     0.94815   0.06183   0.10349   0.01267  Uiso   1.00
O6     O     0.27303   0.71205   0.87869   0.01267  Uiso   1.00
O7     O     0.76758   0.06975   0.90623   0.01267  Uiso   1.00
O8     O     0.44815   0.89651   0.93817   0.01267  Uiso   1.00
O9     O     0.08789   0.23081   0.95187   0.01267  Uiso   1.00
O10    O     0.77303   0.12131   0.28795   0.01267  Uiso   1.00
O11    O     0.91211   0.76919   0.04813   0.01267  Uiso   1.00
O12    O     0.73242   0.90623   0.06975   0.01267  Uiso   1.00
O13    O     0.34936   0.00795   0.69015   0.01267  Uiso   1.00
O14    O     0.22697   0.87869   0.71205   0.01267  Uiso   1.00
O15    O     0.05185   0.93817   0.89651   0.01267  Uiso   1.00
O16    O     0.72697   0.28795   0.12131   0.01267  Uiso   1.00
O17    O     0.23242   0.93025   0.09377   0.01267  Uiso   1.00
O18    O     0.55185   0.10349   0.06183   0.01267  Uiso   1.00
O19    O     0.41211   0.95187   0.23081   0.01267  Uiso   1.00
O20    O     0.58789   0.04813   0.76919   0.01267  Uiso   1.00
