data_NEVVEQ_clean
_audit_creation_date              2014-07-02
_audit_creation_method            'Materials Studio'
_symmetry_space_group_name_H-M    'P1'
_symmetry_Int_Tables_number       1
_symmetry_cell_setting            triclinic
loop_
_symmetry_equiv_pos_as_xyz
  x,y,z
_cell_length_a                    8.7577
_cell_length_b                    8.7577
_cell_length_c                    11.9580
_cell_angle_alpha                 90.0000
_cell_angle_beta                  90.0000
_cell_angle_gamma                 101.7900
loop_
_atom_site_label
_atom_site_type_symbol
_atom_site_fract_x
_atom_site_fract_y
_atom_site_fract_z
_atom_site_U_iso_or_equiv
_atom_site_adp_type
_atom_site_occupancy
Co1    Co    0.11673   0.11673   0.00000   0.01267  Uiso   1.00
Co2    Co    0.88327   0.88327   0.50000   0.01267  Uiso   1.00
Co3    Co    0.10513   0.89487   0.25000   0.01267  Uiso   1.00
Co4    Co    0.89487   0.10513   0.75000   0.01267  Uiso   1.00
H1     H     0.48800   0.14000   0.29600   0.01267  Uiso   1.00
H2     H     0.71900   0.11900   0.19000   0.01267  Uiso   1.00
H3     H     0.48160   0.14040   0.90500   0.01267  Uiso   1.00
H4     H     0.51200   0.86000   0.79600   0.01267  Uiso   1.00
H5     H     0.28100   0.88100   0.69000   0.01267  Uiso   1.00
H6     H     0.51840   0.85960   0.40500   0.01267  Uiso   1.00
H7     H     0.86000   0.51200   0.20400   0.01267  Uiso   1.00
H8     H     0.88100   0.28100   0.31000   0.01267  Uiso   1.00
H9     H     0.85960   0.51840   0.59500   0.01267  Uiso   1.00
H10    H     0.14000   0.48800   0.70400   0.01267  Uiso   1.00
H11    H     0.11900   0.71900   0.81000   0.01267  Uiso   1.00
H12    H     0.14040   0.48160   0.09500   0.01267  Uiso   1.00
C1     C     0.35713   0.14637   0.15276   0.01267  Uiso   1.00
C2     C     0.49206   0.14014   0.21310   0.01267  Uiso   1.00
C3     C     0.62439   0.12781   0.15410   0.01267  Uiso   1.00
C4     C     0.62348   0.13086   0.03705   0.01267  Uiso   1.00
C5     C     0.48519   0.13763   0.98370   0.01267  Uiso   1.00
C6     C     0.76776   0.12528   0.97166   0.01267  Uiso   1.00
C7     C     0.64287   0.85363   0.65276   0.01267  Uiso   1.00
C8     C     0.50794   0.85986   0.71310   0.01267  Uiso   1.00
C9     C     0.37561   0.87219   0.65410   0.01267  Uiso   1.00
C10    C     0.37652   0.86914   0.53705   0.01267  Uiso   1.00
C11    C     0.51481   0.86237   0.48370   0.01267  Uiso   1.00
C12    C     0.23224   0.87472   0.47166   0.01267  Uiso   1.00
C13    C     0.85363   0.64287   0.34724   0.01267  Uiso   1.00
C14    C     0.85986   0.50794   0.28690   0.01267  Uiso   1.00
C15    C     0.87219   0.37561   0.34590   0.01267  Uiso   1.00
C16    C     0.86914   0.37652   0.46295   0.01267  Uiso   1.00
C17    C     0.86237   0.51481   0.51630   0.01267  Uiso   1.00
C18    C     0.87472   0.23224   0.52834   0.01267  Uiso   1.00
C19    C     0.14637   0.35713   0.84724   0.01267  Uiso   1.00
C20    C     0.14014   0.49206   0.78690   0.01267  Uiso   1.00
C21    C     0.12781   0.62439   0.84590   0.01267  Uiso   1.00
C22    C     0.13086   0.62348   0.96295   0.01267  Uiso   1.00
C23    C     0.13763   0.48519   0.01630   0.01267  Uiso   1.00
C24    C     0.12528   0.76776   0.02834   0.01267  Uiso   1.00
S1     S     0.17399   0.15643   0.21082   0.01267  Uiso   1.00
S2     S     0.82601   0.84357   0.71082   0.01267  Uiso   1.00
S3     S     0.84357   0.82601   0.28918   0.01267  Uiso   1.00
S4     S     0.15643   0.17399   0.78918   0.01267  Uiso   1.00
N1     N     0.35412   0.14152   0.03997   0.01267  Uiso   1.00
N2     N     0.64588   0.85848   0.53997   0.01267  Uiso   1.00
N3     N     0.85848   0.64588   0.46003   0.01267  Uiso   1.00
N4     N     0.14152   0.35412   0.96003   0.01267  Uiso   1.00
O1     O     0.88069   0.09235   0.02224   0.01267  Uiso   1.00
O2     O     0.23837   0.84279   0.36824   0.01267  Uiso   1.00
O3     O     0.11931   0.90765   0.52224   0.01267  Uiso   1.00
O4     O     0.76163   0.15721   0.86824   0.01267  Uiso   1.00
O5     O     0.90765   0.11931   0.47776   0.01267  Uiso   1.00
O6     O     0.15721   0.76163   0.13176   0.01267  Uiso   1.00
O7     O     0.09235   0.88069   0.97776   0.01267  Uiso   1.00
O8     O     0.84279   0.23837   0.63176   0.01267  Uiso   1.00
