data_NEXXEV_clean
_audit_creation_date              2014-07-02
_audit_creation_method            'Materials Studio'
_symmetry_space_group_name_H-M    'P1'
_symmetry_Int_Tables_number       1
_symmetry_cell_setting            triclinic
loop_
_symmetry_equiv_pos_as_xyz
  x,y,z
_cell_length_a                    12.9150
_cell_length_b                    21.2642
_cell_length_c                    21.2642
_cell_angle_alpha                 84.6758
_cell_angle_beta                  72.3213
_cell_angle_gamma                 72.3213
loop_
_atom_site_label
_atom_site_type_symbol
_atom_site_fract_x
_atom_site_fract_y
_atom_site_fract_z
_atom_site_U_iso_or_equiv
_atom_site_adp_type
_atom_site_occupancy
Li1    Li    0.91520   0.00405   0.56175   0.01267  Uiso   1.00
Li2    Li    0.76195   0.51755   0.04915   0.01267  Uiso   1.00
Li3    Li    0.58797   0.47783   0.04443   0.01267  Uiso   1.00
Li4    Li    0.05020   0.30590   0.99050   0.01267  Uiso   1.00
Li5    Li    0.48100   0.99595   0.43825   0.01267  Uiso   1.00
Li6    Li    0.32865   0.48245   0.95085   0.01267  Uiso   1.00
Li7    Li    0.11023   0.52217   0.95557   0.01267  Uiso   1.00
Li8    Li    0.34660   0.69410   0.00950   0.01267  Uiso   1.00
Li9    Li    0.98100   0.43825   0.99595   0.01267  Uiso   1.00
Li10   Li    0.82865   0.95085   0.48245   0.01267  Uiso   1.00
Li11   Li    0.61023   0.95557   0.52217   0.01267  Uiso   1.00
Li12   Li    0.84660   0.00950   0.69410   0.01267  Uiso   1.00
Li13   Li    0.41520   0.56175   0.00405   0.01267  Uiso   1.00
Li14   Li    0.26195   0.04915   0.51755   0.01267  Uiso   1.00
Li15   Li    0.08797   0.04443   0.47783   0.01267  Uiso   1.00
Li16   Li    0.55020   0.99050   0.30590   0.01267  Uiso   1.00
H1     H     0.60730   0.38980   0.15280   0.01267  Uiso   1.00
H2     H     0.54130   0.31880   0.23680   0.01267  Uiso   1.00
H3     H     0.84430   0.17980   0.17200   0.01267  Uiso   1.00
H4     H     0.91170   0.25190   0.09030   0.01267  Uiso   1.00
H5     H     0.69150   0.06460   0.42920   0.01267  Uiso   1.00
H6     H     0.60320   0.10940   0.34900   0.01267  Uiso   1.00
H7     H     0.82160   0.22060   0.28500   0.01267  Uiso   1.00
H8     H     0.91270   0.17140   0.36180   0.01267  Uiso   1.00
H9     H     0.11910   0.80380   0.39620   0.01267  Uiso   1.00
H10    H     0.29160   0.74960   0.31940   0.01267  Uiso   1.00
H11    H     0.44500   0.86690   0.37230   0.01267  Uiso   1.00
H12    H     0.27130   0.92800   0.44000   0.01267  Uiso   1.00
H13    H     0.63620   0.58870   0.17090   0.01267  Uiso   1.00
H14    H     0.62390   0.65290   0.25590   0.01267  Uiso   1.00
H15    H     0.36850   0.79500   0.21360   0.01267  Uiso   1.00
H16    H     0.38110   0.73160   0.12540   0.01267  Uiso   1.00
H17    H     0.14990   0.61020   0.84720   0.01267  Uiso   1.00
H18    H     0.09690   0.68120   0.76320   0.01267  Uiso   1.00
H19    H     0.19610   0.82020   0.82800   0.01267  Uiso   1.00
H20    H     0.25390   0.74810   0.90970   0.01267  Uiso   1.00
H21    H     0.18530   0.93540   0.57080   0.01267  Uiso   1.00
H22    H     0.06160   0.89060   0.65100   0.01267  Uiso   1.00
H23    H     0.32720   0.77940   0.71500   0.01267  Uiso   1.00
H24    H     0.44590   0.82860   0.63820   0.01267  Uiso   1.00
H25    H     0.31910   0.19620   0.60380   0.01267  Uiso   1.00
H26    H     0.36060   0.25040   0.68060   0.01267  Uiso   1.00
H27    H     0.68420   0.13310   0.62770   0.01267  Uiso   1.00
H28    H     0.63930   0.07200   0.56000   0.01267  Uiso   1.00
H29    H     0.39580   0.41130   0.82910   0.01267  Uiso   1.00
H30    H     0.53270   0.34710   0.74410   0.01267  Uiso   1.00
H31    H     0.37710   0.20500   0.78640   0.01267  Uiso   1.00
H32    H     0.23810   0.26840   0.87460   0.01267  Uiso   1.00
H33    H     0.64990   0.84720   0.61020   0.01267  Uiso   1.00
H34    H     0.59690   0.76320   0.68120   0.01267  Uiso   1.00
H35    H     0.69610   0.82800   0.82020   0.01267  Uiso   1.00
H36    H     0.75390   0.90970   0.74810   0.01267  Uiso   1.00
H37    H     0.68530   0.57080   0.93540   0.01267  Uiso   1.00
H38    H     0.56160   0.65100   0.89060   0.01267  Uiso   1.00
H39    H     0.82720   0.71500   0.77940   0.01267  Uiso   1.00
H40    H     0.94590   0.63820   0.82860   0.01267  Uiso   1.00
H41    H     0.81910   0.60380   0.19620   0.01267  Uiso   1.00
H42    H     0.86060   0.68060   0.25040   0.01267  Uiso   1.00
H43    H     0.18420   0.62770   0.13310   0.01267  Uiso   1.00
H44    H     0.13930   0.56000   0.07200   0.01267  Uiso   1.00
H45    H     0.89580   0.82910   0.41130   0.01267  Uiso   1.00
H46    H     0.03270   0.74410   0.34710   0.01267  Uiso   1.00
H47    H     0.87710   0.78640   0.20500   0.01267  Uiso   1.00
H48    H     0.73810   0.87460   0.26840   0.01267  Uiso   1.00
H49    H     0.10730   0.15280   0.38980   0.01267  Uiso   1.00
H50    H     0.04130   0.23680   0.31880   0.01267  Uiso   1.00
H51    H     0.34430   0.17200   0.17980   0.01267  Uiso   1.00
H52    H     0.41170   0.09030   0.25190   0.01267  Uiso   1.00
H53    H     0.19150   0.42920   0.06460   0.01267  Uiso   1.00
H54    H     0.10320   0.34900   0.10940   0.01267  Uiso   1.00
H55    H     0.32160   0.28500   0.22060   0.01267  Uiso   1.00
H56    H     0.41270   0.36180   0.17140   0.01267  Uiso   1.00
H57    H     0.61910   0.39620   0.80380   0.01267  Uiso   1.00
H58    H     0.79160   0.31940   0.74960   0.01267  Uiso   1.00
H59    H     0.94500   0.37230   0.86690   0.01267  Uiso   1.00
H60    H     0.77130   0.44000   0.92800   0.01267  Uiso   1.00
H61    H     0.13620   0.17090   0.58870   0.01267  Uiso   1.00
H62    H     0.12390   0.25590   0.65290   0.01267  Uiso   1.00
H63    H     0.86850   0.21360   0.79500   0.01267  Uiso   1.00
H64    H     0.88110   0.12540   0.73160   0.01267  Uiso   1.00
C1     C     0.80701   0.37937   0.06921   0.01267  Uiso   1.00
C2     C     0.76647   0.32929   0.11617   0.01267  Uiso   1.00
C3     C     0.65670   0.34749   0.15791   0.01267  Uiso   1.00
C4     C     0.61620   0.30505   0.20775   0.01267  Uiso   1.00
C5     C     0.68680   0.24380   0.21320   0.01267  Uiso   1.00
C6     C     0.79700   0.22323   0.16877   0.01267  Uiso   1.00
C7     C     0.83740   0.26590   0.12010   0.01267  Uiso   1.00
C8     C     0.87460   0.08133   0.45367   0.01267  Uiso   1.00
C9     C     0.81353   0.11173   0.40401   0.01267  Uiso   1.00
C10    C     0.71960   0.09554   0.39886   0.01267  Uiso   1.00
C11    C     0.66570   0.12264   0.35156   0.01267  Uiso   1.00
C12    C     0.70330   0.17002   0.30698   0.01267  Uiso   1.00
C13    C     0.79580   0.18783   0.31337   0.01267  Uiso   1.00
C14    C     0.84910   0.15897   0.35963   0.01267  Uiso   1.00
C15    C     0.54140   0.18610   0.26410   0.01267  Uiso   1.00
C16    C     0.06508   0.91188   0.46756   0.01267  Uiso   1.00
C17    C     0.17675   0.87206   0.42444   0.01267  Uiso   1.00
C18    C     0.18423   0.81837   0.38977   0.01267  Uiso   1.00
C19    C     0.28834   0.78496   0.34496   0.01267  Uiso   1.00
C20    C     0.38591   0.80289   0.33769   0.01267  Uiso   1.00
C21    C     0.37817   0.85523   0.37523   0.01267  Uiso   1.00
C22    C     0.27530   0.89090   0.41670   0.01267  Uiso   1.00
C23    C     0.51624   0.60995   0.08517   0.01267  Uiso   1.00
C24    C     0.51127   0.65373   0.13753   0.01267  Uiso   1.00
C25    C     0.58219   0.63101   0.17841   0.01267  Uiso   1.00
C26    C     0.57446   0.66934   0.22914   0.01267  Uiso   1.00
C27    C     0.49652   0.73118   0.24218   0.01267  Uiso   1.00
C28    C     0.42441   0.75329   0.20429   0.01267  Uiso   1.00
C29    C     0.43151   0.71519   0.15159   0.01267  Uiso   1.00
C30    C     0.59570   0.76910   0.30630   0.01267  Uiso   1.00
C31    C     0.25559   0.62063   0.93079   0.01267  Uiso   1.00
C32    C     0.21193   0.67071   0.88383   0.01267  Uiso   1.00
C33    C     0.16210   0.65251   0.84209   0.01267  Uiso   1.00
C34    C     0.12900   0.69495   0.79225   0.01267  Uiso   1.00
C35    C     0.14380   0.75620   0.78680   0.01267  Uiso   1.00
C36    C     0.18900   0.77677   0.83123   0.01267  Uiso   1.00
C37    C     0.22340   0.73410   0.87990   0.01267  Uiso   1.00
C38    C     0.40960   0.91867   0.54633   0.01267  Uiso   1.00
C39    C     0.32927   0.88827   0.59599   0.01267  Uiso   1.00
C40    C     0.21400   0.90446   0.60114   0.01267  Uiso   1.00
C41    C     0.13990   0.87736   0.64844   0.01267  Uiso   1.00
C42    C     0.18030   0.82998   0.69302   0.01267  Uiso   1.00
C43    C     0.29700   0.81217   0.68663   0.01267  Uiso   1.00
C44    C     0.36770   0.84103   0.64037   0.01267  Uiso   1.00
C45    C     0.99160   0.81390   0.73590   0.01267  Uiso   1.00
C46    C     0.44452   0.08812   0.53244   0.01267  Uiso   1.00
C47    C     0.47325   0.12794   0.57556   0.01267  Uiso   1.00
C48    C     0.39237   0.18163   0.61023   0.01267  Uiso   1.00
C49    C     0.41826   0.21504   0.65504   0.01267  Uiso   1.00
C50    C     0.52649   0.19711   0.66231   0.01267  Uiso   1.00
C51    C     0.60863   0.14477   0.62477   0.01267  Uiso   1.00
C52    C     0.58290   0.10910   0.58330   0.01267  Uiso   1.00
C53    C     0.21136   0.39005   0.91483   0.01267  Uiso   1.00
C54    C     0.30253   0.34627   0.86247   0.01267  Uiso   1.00
C55    C     0.39161   0.36899   0.82159   0.01267  Uiso   1.00
C56    C     0.47294   0.33066   0.77086   0.01267  Uiso   1.00
C57    C     0.46988   0.26882   0.75782   0.01267  Uiso   1.00
C58    C     0.38199   0.24671   0.79571   0.01267  Uiso   1.00
C59    C     0.29829   0.28481   0.84841   0.01267  Uiso   1.00
C60    C     0.67110   0.23090   0.69370   0.01267  Uiso   1.00
C61    C     0.75559   0.93079   0.62063   0.01267  Uiso   1.00
C62    C     0.71193   0.88383   0.67071   0.01267  Uiso   1.00
C63    C     0.66210   0.84209   0.65251   0.01267  Uiso   1.00
C64    C     0.62900   0.79225   0.69495   0.01267  Uiso   1.00
C65    C     0.64380   0.78680   0.75620   0.01267  Uiso   1.00
C66    C     0.68900   0.83123   0.77677   0.01267  Uiso   1.00
C67    C     0.72340   0.87990   0.73410   0.01267  Uiso   1.00
C68    C     0.90960   0.54633   0.91867   0.01267  Uiso   1.00
C69    C     0.82927   0.59599   0.88827   0.01267  Uiso   1.00
C70    C     0.71400   0.60114   0.90446   0.01267  Uiso   1.00
C71    C     0.63990   0.64844   0.87736   0.01267  Uiso   1.00
C72    C     0.68030   0.69302   0.82998   0.01267  Uiso   1.00
C73    C     0.79700   0.68663   0.81217   0.01267  Uiso   1.00
C74    C     0.86770   0.64037   0.84103   0.01267  Uiso   1.00
C75    C     0.49160   0.73590   0.81390   0.01267  Uiso   1.00
C76    C     0.94452   0.53244   0.08812   0.01267  Uiso   1.00
C77    C     0.97325   0.57556   0.12794   0.01267  Uiso   1.00
C78    C     0.89237   0.61023   0.18163   0.01267  Uiso   1.00
C79    C     0.91826   0.65504   0.21504   0.01267  Uiso   1.00
C80    C     0.02649   0.66231   0.19711   0.01267  Uiso   1.00
C81    C     0.10863   0.62477   0.14477   0.01267  Uiso   1.00
C82    C     0.08290   0.58330   0.10910   0.01267  Uiso   1.00
C83    C     0.71136   0.91483   0.39005   0.01267  Uiso   1.00
C84    C     0.80253   0.86247   0.34627   0.01267  Uiso   1.00
C85    C     0.89161   0.82159   0.36899   0.01267  Uiso   1.00
C86    C     0.97294   0.77086   0.33066   0.01267  Uiso   1.00
C87    C     0.96988   0.75782   0.26882   0.01267  Uiso   1.00
C88    C     0.88199   0.79571   0.24671   0.01267  Uiso   1.00
C89    C     0.79829   0.84841   0.28481   0.01267  Uiso   1.00
C90    C     0.17110   0.69370   0.23090   0.01267  Uiso   1.00
C91    C     0.30701   0.06921   0.37937   0.01267  Uiso   1.00
C92    C     0.26647   0.11617   0.32929   0.01267  Uiso   1.00
C93    C     0.15670   0.15791   0.34749   0.01267  Uiso   1.00
C94    C     0.11620   0.20775   0.30505   0.01267  Uiso   1.00
C95    C     0.18680   0.21320   0.24380   0.01267  Uiso   1.00
C96    C     0.29700   0.16877   0.22323   0.01267  Uiso   1.00
C97    C     0.33740   0.12010   0.26590   0.01267  Uiso   1.00
C98    C     0.37460   0.45367   0.08133   0.01267  Uiso   1.00
C99    C     0.31353   0.40401   0.11173   0.01267  Uiso   1.00
C100   C     0.21960   0.39886   0.09554   0.01267  Uiso   1.00
C101   C     0.16570   0.35156   0.12264   0.01267  Uiso   1.00
C102   C     0.20330   0.30698   0.17002   0.01267  Uiso   1.00
C103   C     0.29580   0.31337   0.18783   0.01267  Uiso   1.00
C104   C     0.34910   0.35963   0.15897   0.01267  Uiso   1.00
C105   C     0.04140   0.26410   0.18610   0.01267  Uiso   1.00
C106   C     0.56508   0.46756   0.91188   0.01267  Uiso   1.00
C107   C     0.67675   0.42444   0.87206   0.01267  Uiso   1.00
C108   C     0.68423   0.38977   0.81837   0.01267  Uiso   1.00
C109   C     0.78834   0.34496   0.78496   0.01267  Uiso   1.00
C110   C     0.88591   0.33769   0.80289   0.01267  Uiso   1.00
C111   C     0.87817   0.37523   0.85523   0.01267  Uiso   1.00
C112   C     0.77530   0.41670   0.89090   0.01267  Uiso   1.00
C113   C     0.01624   0.08517   0.60995   0.01267  Uiso   1.00
C114   C     0.01127   0.13753   0.65373   0.01267  Uiso   1.00
C115   C     0.08219   0.17841   0.63101   0.01267  Uiso   1.00
C116   C     0.07446   0.22914   0.66934   0.01267  Uiso   1.00
C117   C     0.99652   0.24218   0.73118   0.01267  Uiso   1.00
C118   C     0.92441   0.20429   0.75329   0.01267  Uiso   1.00
C119   C     0.93151   0.15159   0.71519   0.01267  Uiso   1.00
C120   C     0.09570   0.30630   0.76910   0.01267  Uiso   1.00
N1     N     0.64840   0.19707   0.25973   0.01267  Uiso   1.00
N2     N     0.49152   0.76868   0.29448   0.01267  Uiso   1.00
N3     N     0.10520   0.80293   0.74027   0.01267  Uiso   1.00
N4     N     0.55468   0.23132   0.70552   0.01267  Uiso   1.00
N5     N     0.60520   0.74027   0.80293   0.01267  Uiso   1.00
N6     N     0.05468   0.70552   0.23132   0.01267  Uiso   1.00
N7     N     0.14840   0.25973   0.19707   0.01267  Uiso   1.00
N8     N     0.99152   0.29448   0.76868   0.01267  Uiso   1.00
O1     O     0.73389   0.43116   0.05926   0.01267  Uiso   1.00
O2     O     0.91229   0.36898   0.04224   0.01267  Uiso   1.00
O3     O     0.83770   0.03783   0.49177   0.01267  Uiso   1.00
O4     O     0.95837   0.09896   0.45470   0.01267  Uiso   1.00
O5     O     0.06321   0.95985   0.49849   0.01267  Uiso   1.00
O6     O     0.97876   0.89323   0.47125   0.01267  Uiso   1.00
O7     O     0.60172   0.56023   0.06933   0.01267  Uiso   1.00
O8     O     0.43564   0.62421   0.05971   0.01267  Uiso   1.00
O9     O     0.22431   0.56884   0.94074   0.01267  Uiso   1.00
O10    O     0.32351   0.63102   0.95776   0.01267  Uiso   1.00
O11    O     0.36730   0.96217   0.50823   0.01267  Uiso   1.00
O12    O     0.51203   0.90104   0.54530   0.01267  Uiso   1.00
O13    O     0.52155   0.04015   0.50151   0.01267  Uiso   1.00
O14    O     0.34324   0.10677   0.52875   0.01267  Uiso   1.00
O15    O     0.23128   0.43977   0.93067   0.01267  Uiso   1.00
O16    O     0.11956   0.37579   0.94029   0.01267  Uiso   1.00
O17    O     0.72431   0.94074   0.56884   0.01267  Uiso   1.00
O18    O     0.82351   0.95776   0.63102   0.01267  Uiso   1.00
O19    O     0.86730   0.50823   0.96217   0.01267  Uiso   1.00
O20    O     0.01203   0.54530   0.90104   0.01267  Uiso   1.00
O21    O     0.02155   0.50151   0.04015   0.01267  Uiso   1.00
O22    O     0.84324   0.52875   0.10677   0.01267  Uiso   1.00
O23    O     0.73128   0.93067   0.43977   0.01267  Uiso   1.00
O24    O     0.61956   0.94029   0.37579   0.01267  Uiso   1.00
O25    O     0.23389   0.05926   0.43116   0.01267  Uiso   1.00
O26    O     0.41229   0.04224   0.36898   0.01267  Uiso   1.00
O27    O     0.33770   0.49177   0.03783   0.01267  Uiso   1.00
O28    O     0.45837   0.45470   0.09896   0.01267  Uiso   1.00
O29    O     0.56321   0.49849   0.95985   0.01267  Uiso   1.00
O30    O     0.47876   0.47125   0.89323   0.01267  Uiso   1.00
O31    O     0.10172   0.06933   0.56023   0.01267  Uiso   1.00
O32    O     0.93564   0.05971   0.62421   0.01267  Uiso   1.00
