data_image0
_cell_length_a       11.6554
_cell_length_b       13.4045
_cell_length_c       20.6797
_cell_angle_alpha    89.141
_cell_angle_beta     76.439
_cell_angle_gamma    67.332

_symmetry_space_group_name_H-M    "P 1"
_symmetry_int_tables_number       1

loop_
  _symmetry_equiv_pos_as_xyz
  'x, y, z'

loop_
  _atom_site_label
  _atom_site_occupancy
  _atom_site_fract_x
  _atom_site_fract_y
  _atom_site_fract_z
  _atom_site_thermal_displace_type
  _atom_site_B_iso_or_equiv
  _atom_site_type_symbol
  Mo1      1.0000 0.54561  0.54779  0.32775  Biso   1.000  Mo
  Mo2      1.0000 0.24697  0.69742  0.61991  Biso   1.000  Mo
  Mo3      1.0000 0.27321  0.73129  0.44659  Biso   1.000  Mo
  Mo4      1.0000 0.50094  0.76416  0.52492  Biso   1.000  Mo
  Mo5      1.0000 0.29466  0.46387  0.40893  Biso   1.000  Mo
  Mo6      1.0000 0.76982  0.55529  0.41578  Biso   1.000  Mo
  O1       1.0000 0.41770  0.48350  0.34300  Biso   1.000  O
  O2       1.0000 0.38680  0.79300  0.47160  Biso   1.000  O
  O3       1.0000 0.41120  0.67800  0.36730  Biso   1.000  O
  O4       1.0000 0.36270  0.76250  0.59930  Biso   1.000  O
  O5       1.0000 0.59790  0.48180  0.43280  Biso   1.000  O
  O6       1.0000 0.19550  0.44710  0.36640  Biso   1.000  O
  O7       1.0000 0.20000  0.47010  0.50000  Biso   1.000  O
  O8       1.0000 0.66480  0.39740  0.32550  Biso   1.000  O
  O9       1.0000 0.60420  0.67800  0.58500  Biso   1.000  O
  O10      1.0000 0.66780  0.58820  0.35030  Biso   1.000  O
  O11      1.0000 0.17240  0.59000  0.60990  Biso   1.000  O
  O12      1.0000 0.21880  0.62280  0.42750  Biso   1.000  O
  O13      1.0000 0.19790  0.74110  0.53730  Biso   1.000  O
  O14      1.0000 0.64580  0.70220  0.45610  Biso   1.000  O
  O15      1.0000 0.43360  0.54570  0.44490  Biso   1.000  O
  O16      1.0000 0.41350  0.43350  0.49300  Biso   1.000  O
  O17      1.0000 0.58790  0.38100  0.48400  Biso   1.000  O
  Cu1      1.0000 0.98722  0.18932  0.78099  Biso   1.000  Cu
  Cu2      1.0000 0.79281  0.35418  0.10793  Biso   1.000  Cu
  Cu3      1.0000 0.03400  0.69168  0.37258  Biso   1.000  Cu
  Cu4      1.0000 0.62875  0.97869  0.65466  Biso   1.000  Cu
  Cu5      1.0000 0.18503  0.43489  0.26498  Biso   1.000  Cu
  N1       1.0000 0.87990  0.38240  0.17270  Biso   1.000  N
  N2       1.0000 0.61780  0.35730  0.14920  Biso   1.000  N
  N3       1.0000 0.72830  0.04590  0.69500  Biso   1.000  N
  N4       1.0000 0.04050  0.41590  0.24340  Biso   1.000  N
  C1       1.0000 0.74860  0.17890  0.75940  Biso   1.000  C
  H1       1.0000 0.70790  0.24480  0.78530  Biso   1.000  H
  C2       1.0000 0.93550  0.20360  0.99000  Biso   1.000  C
  H2       1.0000 0.95360  0.15130  0.02040  Biso   1.000  H
  N5       1.0000 0.87500  0.12530  0.75040  Biso   1.000  N
  C3       1.0000 0.03960  0.31750  0.23320  Biso   1.000  C
  H3       1.0000 0.09500  0.25810  0.24960  Biso   1.000  H
  C4       1.0000 0.95900  0.30260  0.19910  Biso   1.000  C
  H4       1.0000 0.95990  0.23340  0.19430  Biso   1.000  H
  C5       1.0000 0.95360  0.49790  0.22080  Biso   1.000  C
  H5       1.0000 0.94690  0.56830  0.22880  Biso   1.000  H
  C6       1.0000 0.92510  0.02980  0.71460  Biso   1.000  C
  H6       1.0000 0.01210  0.98750  0.70870  Biso   1.000  H
  C7       1.0000 0.51710  0.41330  0.12400  Biso   1.000  C
  H7       1.0000 0.53130  0.44210  0.08320  Biso   1.000  H
  C8       1.0000 0.89770  0.34560  0.89880  Biso   1.000  C
  H8       1.0000 0.88710  0.39740  0.86780  Biso   1.000  H
  C9       1.0000 0.87530  0.48190  0.18670  Biso   1.000  C
  H9       1.0000 0.81630  0.54170  0.17250  Biso   1.000  H
  C10      1.0000 0.67690  0.13970  0.73150  Biso   1.000  C
  H10      1.0000 0.58930  0.18040  0.73850  Biso   1.000  H
  C11      1.0000 0.85630  0.37960  0.96580  Biso   1.000  C
  H11      1.0000 0.81580  0.45350  0.97880  Biso   1.000  H
  C12      1.0000 0.85400  0.99150  0.68610  Biso   1.000  C
  H12      1.0000 0.89440  0.92580  0.65990  Biso   1.000  H
  C13      1.0000 0.59150  0.31380  0.20550  Biso   1.000  C
  H13      1.0000 0.65870  0.27210  0.22390  Biso   1.000  H
  N6       1.0000 0.87260  0.30920  0.01300  Biso   1.000  N
  C14      1.0000 0.97350  0.17140  0.92290  Biso   1.000  C
  H14      1.0000 0.01560  0.09770  0.90940  Biso   1.000  H
  N7       1.0000 0.95240  0.24090  0.87680  Biso   1.000  N
  N8       1.0000 0.17500  0.12320  0.73060  Biso   1.000  N
  N9       1.0000 0.92430  0.77070  0.45590  Biso   1.000  N
  N10      1.0000 0.44270  0.03590  0.67860  Biso   1.000  N
  N11      1.0000 0.75260  0.88480  0.57420  Biso   1.000  N
  N12      1.0000 0.36780  0.38800  0.21550  Biso   1.000  N
  C15      1.0000 0.46770  0.32810  0.23820  Biso   1.000  C
  H15      1.0000 0.45440  0.29450  0.27730  Biso   1.000  H
  C16      1.0000 0.36880  0.13840  0.67160  Biso   1.000  C
  H16      1.0000 0.40740  0.18230  0.64900  Biso   1.000  H
  C17      1.0000 0.23660  0.18150  0.69680  Biso   1.000  C
  H17      1.0000 0.18940  0.25290  0.69010  Biso   1.000  H
  C18      1.0000 0.24900  0.02110  0.73730  Biso   1.000  C
  H18      1.0000 0.21060  0.97760  0.76070  Biso   1.000  H
  C19      1.0000 0.83140  0.78170  0.57150  Biso   1.000  C
  H19      1.0000 0.82860  0.74640  0.61050  Biso   1.000  H
  C20      1.0000 0.91790  0.72400  0.51330  Biso   1.000  C
  H20      1.0000 0.97190  0.65200  0.51430  Biso   1.000  H
  C21      1.0000 0.39630  0.42870  0.15640  Biso   1.000  C
  H21      1.0000 0.32960  0.46900  0.13740  Biso   1.000  H
  C22      1.0000 0.37770  0.97790  0.71160  Biso   1.000  C
  H22      1.0000 0.42350  0.90540  0.71680  Biso   1.000  H
  C23      1.0000 0.76280  0.93140  0.51680  Biso   1.000  C
  H23      1.0000 0.71180  0.00440  0.51640  Biso   1.000  H
  C24      1.0000 0.84650  0.87490  0.45830  Biso   1.000  C
  H24      1.0000 0.84890  0.91030  0.41930  Biso   1.000  H
  Cl1      1.0000 0.12100  0.63810  0.26854  Biso   1.000  Cl
  Mo7      1.0000 0.45439  0.45221  0.67225  Biso   1.000  Mo
  Mo8      1.0000 0.75303  0.30258  0.38009  Biso   1.000  Mo
  Mo9      1.0000 0.72679  0.26871  0.55341  Biso   1.000  Mo
  Mo10     1.0000 0.49906  0.23584  0.47508  Biso   1.000  Mo
  Mo11     1.0000 0.70534  0.53613  0.59107  Biso   1.000  Mo
  Mo12     1.0000 0.23018  0.44471  0.58422  Biso   1.000  Mo
  O18      1.0000 0.58230  0.51650  0.65700  Biso   1.000  O
  O19      1.0000 0.61320  0.20700  0.52840  Biso   1.000  O
  O20      1.0000 0.58880  0.32200  0.63270  Biso   1.000  O
  O21      1.0000 0.63730  0.23750  0.40070  Biso   1.000  O
  O22      1.0000 0.40210  0.51820  0.56720  Biso   1.000  O
  O23      1.0000 0.80450  0.55290  0.63360  Biso   1.000  O
  O24      1.0000 0.80000  0.52990  0.50000  Biso   1.000  O
  O25      1.0000 0.33520  0.60260  0.67450  Biso   1.000  O
  O26      1.0000 0.39580  0.32200  0.41500  Biso   1.000  O
  O27      1.0000 0.33220  0.41180  0.64970  Biso   1.000  O
  O28      1.0000 0.82760  0.41000  0.39010  Biso   1.000  O
  O29      1.0000 0.78120  0.37720  0.57250  Biso   1.000  O
  O30      1.0000 0.80210  0.25890  0.46270  Biso   1.000  O
  O31      1.0000 0.35420  0.29780  0.54390  Biso   1.000  O
  O32      1.0000 0.56640  0.45430  0.55510  Biso   1.000  O
  O33      1.0000 0.58650  0.56650  0.50700  Biso   1.000  O
  O34      1.0000 0.41210  0.61900  0.51600  Biso   1.000  O
  Cu6      1.0000 0.01278  0.81068  0.21901  Biso   1.000  Cu
  Cu7      1.0000 0.20719  0.64582  0.89207  Biso   1.000  Cu
  Cu8      1.0000 0.96600  0.30832  0.62742  Biso   1.000  Cu
  Cu9      1.0000 0.37125  0.02131  0.34534  Biso   1.000  Cu
  Cu10     1.0000 0.81497  0.56511  0.73502  Biso   1.000  Cu
  N13      1.0000 0.12010  0.61760  0.82730  Biso   1.000  N
  N14      1.0000 0.38220  0.64270  0.85080  Biso   1.000  N
  N15      1.0000 0.27170  0.95410  0.30500  Biso   1.000  N
  N16      1.0000 0.95950  0.58410  0.75660  Biso   1.000  N
  C25      1.0000 0.25140  0.82110  0.24060  Biso   1.000  C
  H25      1.0000 0.29210  0.75520  0.21470  Biso   1.000  H
  C26      1.0000 0.06450  0.79640  0.01000  Biso   1.000  C
  H26      1.0000 0.04640  0.84870  0.97960  Biso   1.000  H
  N17      1.0000 0.12500  0.87470  0.24960  Biso   1.000  N
  C27      1.0000 0.96040  0.68250  0.76680  Biso   1.000  C
  H27      1.0000 0.90500  0.74190  0.75040  Biso   1.000  H
  C28      1.0000 0.04100  0.69740  0.80090  Biso   1.000  C
  H28      1.0000 0.04010  0.76660  0.80570  Biso   1.000  H
  C29      1.0000 0.04640  0.50210  0.77920  Biso   1.000  C
  H29      1.0000 0.05310  0.43170  0.77120  Biso   1.000  H
  C30      1.0000 0.07490  0.97020  0.28540  Biso   1.000  C
  H30      1.0000 0.98790  0.01250  0.29130  Biso   1.000  H
  C31      1.0000 0.48290  0.58670  0.87600  Biso   1.000  C
  H31      1.0000 0.46870  0.55790  0.91680  Biso   1.000  H
  C32      1.0000 0.10230  0.65440  0.10120  Biso   1.000  C
  H32      1.0000 0.11290  0.60260  0.13220  Biso   1.000  H
  C33      1.0000 0.12470  0.51810  0.81330  Biso   1.000  C
  H33      1.0000 0.18370  0.45830  0.82750  Biso   1.000  H
  C34      1.0000 0.32310  0.86030  0.26850  Biso   1.000  C
  H34      1.0000 0.41070  0.81960  0.26150  Biso   1.000  H
  C35      1.0000 0.14370  0.62040  0.03420  Biso   1.000  C
  H35      1.0000 0.18420  0.54650  0.02120  Biso   1.000  H
  C36      1.0000 0.14600  0.00850  0.31390  Biso   1.000  C
  H36      1.0000 0.10560  0.07420  0.34010  Biso   1.000  H
  C37      1.0000 0.40850  0.68620  0.79450  Biso   1.000  C
  H37      1.0000 0.34130  0.72790  0.77610  Biso   1.000  H
  N18      1.0000 0.12740  0.69080  0.98700  Biso   1.000  N
  C38      1.0000 0.02650  0.82860  0.07710  Biso   1.000  C
  H38      1.0000 0.98440  0.90230  0.09060  Biso   1.000  H
  N19      1.0000 0.04760  0.75910  0.12320  Biso   1.000  N
  N20      1.0000 0.82500  0.87680  0.26940  Biso   1.000  N
  N21      1.0000 0.07570  0.22930  0.54410  Biso   1.000  N
  N22      1.0000 0.55730  0.96410  0.32140  Biso   1.000  N
  N23      1.0000 0.24740  0.11520  0.42580  Biso   1.000  N
  N24      1.0000 0.63220  0.61200  0.78450  Biso   1.000  N
  C39      1.0000 0.53230  0.67190  0.76180  Biso   1.000  C
  H39      1.0000 0.54560  0.70550  0.72270  Biso   1.000  H
  C40      1.0000 0.63120  0.86160  0.32840  Biso   1.000  C
  H40      1.0000 0.59260  0.81770  0.35100  Biso   1.000  H
  C41      1.0000 0.76340  0.81850  0.30320  Biso   1.000  C
  H41      1.0000 0.81060  0.74710  0.30990  Biso   1.000  H
  C42      1.0000 0.75100  0.97890  0.26270  Biso   1.000  C
  H42      1.0000 0.78940  0.02240  0.23930  Biso   1.000  H
  C43      1.0000 0.16860  0.21830  0.42850  Biso   1.000  C
  H43      1.0000 0.17140  0.25360  0.38950  Biso   1.000  H
  C44      1.0000 0.08210  0.27600  0.48670  Biso   1.000  C
  H44      1.0000 0.02810  0.34800  0.48570  Biso   1.000  H
  C45      1.0000 0.60370  0.57130  0.84360  Biso   1.000  C
  H45      1.0000 0.67040  0.53100  0.86260  Biso   1.000  H
  C46      1.0000 0.62230  0.02210  0.28840  Biso   1.000  C
  H46      1.0000 0.57650  0.09460  0.28320  Biso   1.000  H
  C47      1.0000 0.23720  0.06860  0.48320  Biso   1.000  C
  H47      1.0000 0.28820  0.99560  0.48360  Biso   1.000  H
  C48      1.0000 0.15350  0.12510  0.54170  Biso   1.000  C
  H48      1.0000 0.15110  0.08970  0.58070  Biso   1.000  H
  Cl2      1.0000 0.87900  0.36190  0.73146  Biso   1.000  Cl
  P1       1.0000 0.50000  0.50000  0.50000  Biso   1.000  P
