data_image0
_cell_length_a       8.959
_cell_length_b       8.959
_cell_length_c       21.764
_cell_angle_alpha    90
_cell_angle_beta     90
_cell_angle_gamma    120

_symmetry_space_group_name_H-M    "P 1"
_symmetry_int_tables_number       1

loop_
  _symmetry_equiv_pos_as_xyz
  'x, y, z'

loop_
  _atom_site_label
  _atom_site_occupancy
  _atom_site_fract_x
  _atom_site_fract_y
  _atom_site_fract_z
  _atom_site_thermal_displace_type
  _atom_site_B_iso_or_equiv
  _atom_site_type_symbol
  Rb1      1.0000 0.00000  0.00000  0.50000  Biso   1.000  Rb
  Rb2      1.0000 0.66667  0.33333  0.83333  Biso   1.000  Rb
  Rb3      1.0000 0.33333  0.66667  0.16667  Biso   1.000  Rb
  Cr1      1.0000 0.33333  0.66667  0.66667  Biso   1.000  Cr
  Cr2      1.0000 0.00000  0.00000  0.00000  Biso   1.000  Cr
  Cr3      1.0000 0.66667  0.33333  0.33333  Biso   1.000  Cr
  C1       1.0000 0.22470  0.77530  0.61150  Biso   1.000  C
  N1       1.0000 0.16370  0.83630  0.58000  Biso   1.000  N
  C2       1.0000 0.89137  0.10863  0.94483  Biso   1.000  C
  N2       1.0000 0.83037  0.16963  0.91333  Biso   1.000  N
  C3       1.0000 0.55803  0.44197  0.27817  Biso   1.000  C
  N3       1.0000 0.49703  0.50297  0.24667  Biso   1.000  N
  C4       1.0000 0.22470  0.44940  0.61150  Biso   1.000  C
  N4       1.0000 0.16370  0.32740  0.58000  Biso   1.000  N
  C5       1.0000 0.89137  0.78273  0.94483  Biso   1.000  C
  N5       1.0000 0.83037  0.66073  0.91333  Biso   1.000  N
  C6       1.0000 0.55803  0.11607  0.27817  Biso   1.000  C
  N6       1.0000 0.49703  0.99407  0.24667  Biso   1.000  N
  C7       1.0000 0.55060  0.77530  0.61150  Biso   1.000  C
  N7       1.0000 0.67260  0.83630  0.58000  Biso   1.000  N
  C8       1.0000 0.21727  0.10863  0.94483  Biso   1.000  C
  N8       1.0000 0.33927  0.16963  0.91333  Biso   1.000  N
  C9       1.0000 0.88393  0.44197  0.27817  Biso   1.000  C
  N9       1.0000 0.00593  0.50297  0.24667  Biso   1.000  N
  C10      1.0000 0.77530  0.22470  0.38850  Biso   1.000  C
  N10      1.0000 0.83630  0.16370  0.42000  Biso   1.000  N
  C11      1.0000 0.44197  0.55803  0.72183  Biso   1.000  C
  N11      1.0000 0.50297  0.49703  0.75333  Biso   1.000  N
  C12      1.0000 0.10863  0.89137  0.05517  Biso   1.000  C
  N12      1.0000 0.16963  0.83037  0.08667  Biso   1.000  N
  C13      1.0000 0.44940  0.22470  0.38850  Biso   1.000  C
  N13      1.0000 0.32740  0.16370  0.42000  Biso   1.000  N
  C14      1.0000 0.11607  0.55803  0.72183  Biso   1.000  C
  N14      1.0000 0.99407  0.49703  0.75333  Biso   1.000  N
  C15      1.0000 0.78273  0.89137  0.05517  Biso   1.000  C
  N15      1.0000 0.66073  0.83037  0.08667  Biso   1.000  N
  C16      1.0000 0.77530  0.55060  0.38850  Biso   1.000  C
  N16      1.0000 0.83630  0.67260  0.42000  Biso   1.000  N
  C17      1.0000 0.44197  0.88393  0.72183  Biso   1.000  C
  N17      1.0000 0.50297  0.00593  0.75333  Biso   1.000  N
  C18      1.0000 0.10863  0.21727  0.05517  Biso   1.000  C
  N18      1.0000 0.16963  0.33927  0.08667  Biso   1.000  N
