data_NEZWOG01_clean
_audit_creation_date              2014-07-02
_audit_creation_method            'Materials Studio'
_symmetry_space_group_name_H-M    'P1'
_symmetry_Int_Tables_number       1
_symmetry_cell_setting            triclinic
loop_
_symmetry_equiv_pos_as_xyz
  x,y,z
_cell_length_a                    11.1155
_cell_length_b                    13.4679
_cell_length_c                    16.0168
_cell_angle_alpha                 114.8620
_cell_angle_beta                  110.3040
_cell_angle_gamma                 90.0000
loop_
_atom_site_label
_atom_site_type_symbol
_atom_site_fract_x
_atom_site_fract_y
_atom_site_fract_z
_atom_site_U_iso_or_equiv
_atom_site_adp_type
_atom_site_occupancy
La1    La    0.45869   0.07069   0.44138   0.01267  Uiso   1.00
La2    La    0.01731   0.92931   0.55862   0.01267  Uiso   1.00
La3    La    0.51731   0.62931   0.55862   0.01267  Uiso   1.00
La4    La    0.95869   0.37069   0.44138   0.01267  Uiso   1.00
La5    La    0.95360   0.00000  -0.00000   0.01267  Uiso   1.00
La6    La    0.45360   0.00000  -0.00000   0.01267  Uiso   1.00
P1     P     0.77740   0.00260   0.39680   0.01267  Uiso   1.00
P2     P     0.01850   0.88320   0.18720   0.01267  Uiso   1.00
P3     P     0.38060   0.99740   0.60320   0.01267  Uiso   1.00
P4     P     0.83130   0.11680   0.81280   0.01267  Uiso   1.00
P5     P     0.88060   0.60580   0.60320   0.01267  Uiso   1.00
P6     P     0.33130   0.69600   0.81280   0.01267  Uiso   1.00
P7     P     0.27740   0.39420   0.39680   0.01267  Uiso   1.00
P8     P     0.51850   0.30400   0.18720   0.01267  Uiso   1.00
C1     C     0.90090   0.12450   0.45620   0.01267  Uiso   1.00
C2     C     0.03860   0.13490   0.46480   0.01267  Uiso   1.00
C3     C     0.12490   0.01510   0.27380   0.01267  Uiso   1.00
C4     C     0.19700   0.02330   0.21260   0.01267  Uiso   1.00
C5     C     0.44470   0.87550   0.54380   0.01267  Uiso   1.00
C6     C     0.57380   0.86510   0.53520   0.01267  Uiso   1.00
C7     C     0.85110   0.98490   0.72620   0.01267  Uiso   1.00
C8     C     0.98440   0.97670   0.78740   0.01267  Uiso   1.00
C9     C     0.94470   0.66830   0.54380   0.01267  Uiso   1.00
C10    C     0.07380   0.67010   0.53520   0.01267  Uiso   1.00
C11    C     0.35110   0.74130   0.72620   0.01267  Uiso   1.00
C12    C     0.48440   0.81070   0.78740   0.01267  Uiso   1.00
C13    C     0.40090   0.33170   0.45620   0.01267  Uiso   1.00
C14    C     0.53860   0.32990   0.46480   0.01267  Uiso   1.00
C15    C     0.62490   0.25870   0.27380   0.01267  Uiso   1.00
C16    C     0.69700   0.18930   0.21260   0.01267  Uiso   1.00
O1     O     0.65270   0.04440   0.40800   0.01267  Uiso   1.00
O2     O     0.81320   0.92440   0.44660   0.01267  Uiso   1.00
O3     O     0.76780   0.92980   0.28980   0.01267  Uiso   1.00
O4     O     0.83540   0.21210   0.45480   0.01267  Uiso   1.00
O5     O     0.09820   0.06210   0.48520   0.01267  Uiso   1.00
O6     O     0.10730   0.20410   0.45920   0.01267  Uiso   1.00
O7     O     0.93420   0.86810   0.24040   0.01267  Uiso   1.00
O8     O     0.11200   0.79860   0.16580   0.01267  Uiso   1.00
O9     O     0.93430   0.89250   0.09260   0.01267  Uiso   1.00
O10    O     0.21270   0.99730   0.35240   0.01267  Uiso   1.00
O11    O     0.30940   0.08060   0.26740   0.01267  Uiso   1.00
O12    O     0.18290   0.95080   0.12640   0.01267  Uiso   1.00
O13    O     0.24470   0.95560   0.59200   0.01267  Uiso   1.00
O14    O     0.36660   0.07560   0.55340   0.01267  Uiso   1.00
O15    O     0.47800   0.07020   0.71020   0.01267  Uiso   1.00
O16    O     0.38060   0.78790   0.54520   0.01267  Uiso   1.00
O17    O     0.61300   0.93790   0.51480   0.01267  Uiso   1.00
O18    O     0.64810   0.79590   0.54080   0.01267  Uiso   1.00
O19    O     0.69380   0.13190   0.75960   0.01267  Uiso   1.00
O20    O     0.94620   0.20140   0.83420   0.01267  Uiso   1.00
O21    O     0.84170   0.10750   0.90740   0.01267  Uiso   1.00
O22    O     0.86030   0.00270   0.64760   0.01267  Uiso   1.00
O23    O     0.04200   0.91940   0.73260   0.01267  Uiso   1.00
O24    O     0.05650   0.04920   0.87360   0.01267  Uiso   1.00
O25    O     0.74470   0.63640   0.59200   0.01267  Uiso   1.00
O26    O     0.86660   0.47780   0.55340   0.01267  Uiso   1.00
O27    O     0.97800   0.64000   0.71020   0.01267  Uiso   1.00
O28    O     0.88060   0.75730   0.54520   0.01267  Uiso   1.00
O29    O     0.11300   0.57690   0.51480   0.01267  Uiso   1.00
O30    O     0.14810   0.74490   0.54080   0.01267  Uiso   1.00
O31    O     0.19380   0.62770   0.75960   0.01267  Uiso   1.00
O32    O     0.44620   0.63280   0.83420   0.01267  Uiso   1.00
O33    O     0.34170   0.79990   0.90740   0.01267  Uiso   1.00
O34    O     0.36030   0.64490   0.64760   0.01267  Uiso   1.00
O35    O     0.54200   0.81320   0.73260   0.01267  Uiso   1.00
O36    O     0.55650   0.82440   0.87360   0.01267  Uiso   1.00
O37    O     0.15270   0.36360   0.40800   0.01267  Uiso   1.00
O38    O     0.31320   0.52220   0.44660   0.01267  Uiso   1.00
O39    O     0.26780   0.36000   0.28980   0.01267  Uiso   1.00
O40    O     0.33540   0.24270   0.45480   0.01267  Uiso   1.00
O41    O     0.59820   0.42310   0.48520   0.01267  Uiso   1.00
O42    O     0.60730   0.25510   0.45920   0.01267  Uiso   1.00
O43    O     0.43420   0.37230   0.24040   0.01267  Uiso   1.00
O44    O     0.61200   0.36720   0.16580   0.01267  Uiso   1.00
O45    O     0.43430   0.20010   0.09260   0.01267  Uiso   1.00
O46    O     0.71270   0.35510   0.35240   0.01267  Uiso   1.00
O47    O     0.80940   0.18680   0.26740   0.01267  Uiso   1.00
O48    O     0.68290   0.17560   0.12640   0.01267  Uiso   1.00
