data_NEZWOG_clean
_audit_creation_date              2014-07-02
_audit_creation_method            'Materials Studio'
_symmetry_space_group_name_H-M    'P1'
_symmetry_Int_Tables_number       1
_symmetry_cell_setting            triclinic
loop_
_symmetry_equiv_pos_as_xyz
  x,y,z
_cell_length_a                    11.2668
_cell_length_b                    13.3604
_cell_length_c                    26.2820
_cell_angle_alpha                 90.0000
_cell_angle_beta                  90.0000
_cell_angle_gamma                 90.0000
loop_
_atom_site_label
_atom_site_type_symbol
_atom_site_fract_x
_atom_site_fract_y
_atom_site_fract_z
_atom_site_U_iso_or_equiv
_atom_site_adp_type
_atom_site_occupancy
La1    La    0.97221   0.65859   0.21852   0.01267  Uiso   1.00
La2    La    0.47221   0.84141   0.28148   0.01267  Uiso   1.00
La3    La    0.52779   0.65859   0.78148   0.01267  Uiso   1.00
La4    La    0.02779   0.84141   0.71852   0.01267  Uiso   1.00
La5    La    0.02779   0.34141   0.78148   0.01267  Uiso   1.00
La6    La    0.52779   0.15859   0.71852   0.01267  Uiso   1.00
La7    La    0.47221   0.34141   0.21852   0.01267  Uiso   1.00
La8    La    0.97221   0.15859   0.28148   0.01267  Uiso   1.00
La9    La    0.25000   0.48870   0.00000   0.01267  Uiso   1.00
La10   La    0.75000   0.01130   0.50000   0.01267  Uiso   1.00
La11   La    0.75000   0.51130   0.00000   0.01267  Uiso   1.00
La12   La    0.25000   0.98870   0.50000   0.01267  Uiso   1.00
P1     P     0.13990   0.81630   0.31108   0.01267  Uiso   1.00
P2     P     0.29460   0.70750   0.08599   0.01267  Uiso   1.00
P3     P     0.63990   0.68370   0.18892   0.01267  Uiso   1.00
P4     P     0.79460   0.79250   0.41401   0.01267  Uiso   1.00
P5     P     0.36010   0.81630   0.68892   0.01267  Uiso   1.00
P6     P     0.20540   0.70750   0.91401   0.01267  Uiso   1.00
P7     P     0.86010   0.68370   0.81108   0.01267  Uiso   1.00
P8     P     0.70540   0.79250   0.58599   0.01267  Uiso   1.00
P9     P     0.86010   0.18370   0.68892   0.01267  Uiso   1.00
P10    P     0.70540   0.29250   0.91401   0.01267  Uiso   1.00
P11    P     0.36010   0.31630   0.81108   0.01267  Uiso   1.00
P12    P     0.20540   0.20750   0.58599   0.01267  Uiso   1.00
P13    P     0.63990   0.18370   0.31108   0.01267  Uiso   1.00
P14    P     0.79460   0.29250   0.08599   0.01267  Uiso   1.00
P15    P     0.13990   0.31630   0.18892   0.01267  Uiso   1.00
P16    P     0.29460   0.20750   0.41401   0.01267  Uiso   1.00
C1     C     0.06100   0.91060   0.27460   0.01267  Uiso   1.00
C2     C     0.92730   0.90620   0.27650   0.01267  Uiso   1.00
C3     C     0.20240   0.64790   0.13360   0.01267  Uiso   1.00
C4     C     0.09530   0.60040   0.10910   0.01267  Uiso   1.00
C5     C     0.56100   0.58940   0.22540   0.01267  Uiso   1.00
C6     C     0.42730   0.59380   0.22350   0.01267  Uiso   1.00
C7     C     0.70240   0.85210   0.36640   0.01267  Uiso   1.00
C8     C     0.59530   0.89960   0.39090   0.01267  Uiso   1.00
C9     C     0.43900   0.91060   0.72540   0.01267  Uiso   1.00
C10    C     0.57270   0.90620   0.72350   0.01267  Uiso   1.00
C11    C     0.29760   0.64790   0.86640   0.01267  Uiso   1.00
C12    C     0.40470   0.60040   0.89090   0.01267  Uiso   1.00
C13    C     0.93900   0.58940   0.77460   0.01267  Uiso   1.00
C14    C     0.07270   0.59380   0.77650   0.01267  Uiso   1.00
C15    C     0.79760   0.85210   0.63360   0.01267  Uiso   1.00
C16    C     0.90470   0.89960   0.60910   0.01267  Uiso   1.00
C17    C     0.93900   0.08940   0.72540   0.01267  Uiso   1.00
C18    C     0.07270   0.09380   0.72350   0.01267  Uiso   1.00
C19    C     0.79760   0.35210   0.86640   0.01267  Uiso   1.00
C20    C     0.90470   0.39960   0.89090   0.01267  Uiso   1.00
C21    C     0.43900   0.41060   0.77460   0.01267  Uiso   1.00
C22    C     0.57270   0.40620   0.77650   0.01267  Uiso   1.00
C23    C     0.29760   0.14790   0.63360   0.01267  Uiso   1.00
C24    C     0.40470   0.10040   0.60910   0.01267  Uiso   1.00
C25    C     0.56100   0.08940   0.27460   0.01267  Uiso   1.00
C26    C     0.42730   0.09380   0.27650   0.01267  Uiso   1.00
C27    C     0.70240   0.35210   0.13360   0.01267  Uiso   1.00
C28    C     0.59530   0.39960   0.10910   0.01267  Uiso   1.00
C29    C     0.06100   0.41060   0.22540   0.01267  Uiso   1.00
C30    C     0.92730   0.40620   0.22350   0.01267  Uiso   1.00
C31    C     0.20240   0.14790   0.36640   0.01267  Uiso   1.00
C32    C     0.09530   0.10040   0.39090   0.01267  Uiso   1.00
O1     O     0.13080   0.71600   0.28290   0.01267  Uiso   1.00
O2     O     0.08300   0.81170   0.36430   0.01267  Uiso   1.00
O3     O     0.26960   0.85130   0.31530   0.01267  Uiso   1.00
O4     O     0.13100   0.99690   0.26970   0.01267  Uiso   1.00
O5     O     0.87960   0.82380   0.26960   0.01267  Uiso   1.00
O6     O     0.87350   0.98260   0.28970   0.01267  Uiso   1.00
O7     O     0.34830   0.62520   0.05200   0.01267  Uiso   1.00
O8     O     0.21570   0.77880   0.05480   0.01267  Uiso   1.00
O9     O     0.39300   0.76620   0.11400   0.01267  Uiso   1.00
O10    O     0.20610   0.69820   0.18030   0.01267  Uiso   1.00
O11    O     0.11380   0.54560   0.07190   0.01267  Uiso   1.00
O12    O     0.99920   0.61110   0.13120   0.01267  Uiso   1.00
O13    O     0.63080   0.78400   0.21710   0.01267  Uiso   1.00
O14    O     0.58300   0.68830   0.13570   0.01267  Uiso   1.00
O15    O     0.76960   0.64870   0.18470   0.01267  Uiso   1.00
O16    O     0.63100   0.50310   0.23030   0.01267  Uiso   1.00
O17    O     0.37960   0.67620   0.23040   0.01267  Uiso   1.00
O18    O     0.37350   0.51740   0.21030   0.01267  Uiso   1.00
O19    O     0.84830   0.87480   0.44800   0.01267  Uiso   1.00
O20    O     0.71570   0.72120   0.44520   0.01267  Uiso   1.00
O21    O     0.89300   0.73380   0.38600   0.01267  Uiso   1.00
O22    O     0.70610   0.80180   0.31970   0.01267  Uiso   1.00
O23    O     0.61380   0.95440   0.42810   0.01267  Uiso   1.00
O24    O     0.49920   0.88890   0.36880   0.01267  Uiso   1.00
O25    O     0.36920   0.71600   0.71710   0.01267  Uiso   1.00
O26    O     0.41700   0.81170   0.63570   0.01267  Uiso   1.00
O27    O     0.23040   0.85130   0.68470   0.01267  Uiso   1.00
O28    O     0.36900   0.99690   0.73030   0.01267  Uiso   1.00
O29    O     0.62040   0.82380   0.73040   0.01267  Uiso   1.00
O30    O     0.62650   0.98260   0.71030   0.01267  Uiso   1.00
O31    O     0.15170   0.62520   0.94800   0.01267  Uiso   1.00
O32    O     0.28430   0.77880   0.94520   0.01267  Uiso   1.00
O33    O     0.10700   0.76620   0.88600   0.01267  Uiso   1.00
O34    O     0.29390   0.69820   0.81970   0.01267  Uiso   1.00
O35    O     0.38620   0.54560   0.92810   0.01267  Uiso   1.00
O36    O     0.50080   0.61110   0.86880   0.01267  Uiso   1.00
O37    O     0.86920   0.78400   0.78290   0.01267  Uiso   1.00
O38    O     0.91700   0.68830   0.86430   0.01267  Uiso   1.00
O39    O     0.73040   0.64870   0.81530   0.01267  Uiso   1.00
O40    O     0.86900   0.50310   0.76970   0.01267  Uiso   1.00
O41    O     0.12040   0.67620   0.76960   0.01267  Uiso   1.00
O42    O     0.12650   0.51740   0.78970   0.01267  Uiso   1.00
O43    O     0.65170   0.87480   0.55200   0.01267  Uiso   1.00
O44    O     0.78430   0.72120   0.55480   0.01267  Uiso   1.00
O45    O     0.60700   0.73380   0.61400   0.01267  Uiso   1.00
O46    O     0.79390   0.80180   0.68030   0.01267  Uiso   1.00
O47    O     0.88620   0.95440   0.57190   0.01267  Uiso   1.00
O48    O     0.00080   0.88890   0.63120   0.01267  Uiso   1.00
O49    O     0.86920   0.28400   0.71710   0.01267  Uiso   1.00
O50    O     0.91700   0.18830   0.63570   0.01267  Uiso   1.00
O51    O     0.73040   0.14870   0.68470   0.01267  Uiso   1.00
O52    O     0.86900   0.00310   0.73030   0.01267  Uiso   1.00
O53    O     0.12040   0.17620   0.73040   0.01267  Uiso   1.00
O54    O     0.12650   0.01740   0.71030   0.01267  Uiso   1.00
O55    O     0.65170   0.37480   0.94800   0.01267  Uiso   1.00
O56    O     0.78430   0.22120   0.94520   0.01267  Uiso   1.00
O57    O     0.60700   0.23380   0.88600   0.01267  Uiso   1.00
O58    O     0.79390   0.30180   0.81970   0.01267  Uiso   1.00
O59    O     0.88620   0.45440   0.92810   0.01267  Uiso   1.00
O60    O     0.00080   0.38890   0.86880   0.01267  Uiso   1.00
O61    O     0.36920   0.21600   0.78290   0.01267  Uiso   1.00
O62    O     0.41700   0.31170   0.86430   0.01267  Uiso   1.00
O63    O     0.23040   0.35130   0.81530   0.01267  Uiso   1.00
O64    O     0.36900   0.49690   0.76970   0.01267  Uiso   1.00
O65    O     0.62040   0.32380   0.76960   0.01267  Uiso   1.00
O66    O     0.62650   0.48260   0.78970   0.01267  Uiso   1.00
O67    O     0.15170   0.12520   0.55200   0.01267  Uiso   1.00
O68    O     0.28430   0.27880   0.55480   0.01267  Uiso   1.00
O69    O     0.10700   0.26620   0.61400   0.01267  Uiso   1.00
O70    O     0.29390   0.19820   0.68030   0.01267  Uiso   1.00
O71    O     0.38620   0.04560   0.57190   0.01267  Uiso   1.00
O72    O     0.50080   0.11110   0.63120   0.01267  Uiso   1.00
O73    O     0.63080   0.28400   0.28290   0.01267  Uiso   1.00
O74    O     0.58300   0.18830   0.36430   0.01267  Uiso   1.00
O75    O     0.76960   0.14870   0.31530   0.01267  Uiso   1.00
O76    O     0.63100   0.00310   0.26970   0.01267  Uiso   1.00
O77    O     0.37960   0.17620   0.26960   0.01267  Uiso   1.00
O78    O     0.37350   0.01740   0.28970   0.01267  Uiso   1.00
O79    O     0.84830   0.37480   0.05200   0.01267  Uiso   1.00
O80    O     0.71570   0.22120   0.05480   0.01267  Uiso   1.00
O81    O     0.89300   0.23380   0.11400   0.01267  Uiso   1.00
O82    O     0.70610   0.30180   0.18030   0.01267  Uiso   1.00
O83    O     0.61380   0.45440   0.07190   0.01267  Uiso   1.00
O84    O     0.49920   0.38890   0.13120   0.01267  Uiso   1.00
O85    O     0.13080   0.21600   0.21710   0.01267  Uiso   1.00
O86    O     0.08300   0.31170   0.13570   0.01267  Uiso   1.00
O87    O     0.26960   0.35130   0.18470   0.01267  Uiso   1.00
O88    O     0.13100   0.49690   0.23030   0.01267  Uiso   1.00
O89    O     0.87960   0.32380   0.23040   0.01267  Uiso   1.00
O90    O     0.87350   0.48260   0.21030   0.01267  Uiso   1.00
O91    O     0.34830   0.12520   0.44800   0.01267  Uiso   1.00
O92    O     0.21570   0.27880   0.44520   0.01267  Uiso   1.00
O93    O     0.39300   0.26620   0.38600   0.01267  Uiso   1.00
O94    O     0.20610   0.19820   0.31970   0.01267  Uiso   1.00
O95    O     0.11380   0.04560   0.42810   0.01267  Uiso   1.00
O96    O     0.99920   0.11110   0.36880   0.01267  Uiso   1.00
