data_NIBXUT_clean
_audit_creation_date              2014-07-02
_audit_creation_method            'Materials Studio'
_symmetry_space_group_name_H-M    'P1'
_symmetry_Int_Tables_number       1
_symmetry_cell_setting            triclinic
loop_
_symmetry_equiv_pos_as_xyz
  x,y,z
_cell_length_a                    11.0757
_cell_length_b                    13.0433
_cell_length_c                    25.7014
_cell_angle_alpha                 90.0000
_cell_angle_beta                  90.0000
_cell_angle_gamma                 90.0000
loop_
_atom_site_label
_atom_site_type_symbol
_atom_site_fract_x
_atom_site_fract_y
_atom_site_fract_z
_atom_site_U_iso_or_equiv
_atom_site_adp_type
_atom_site_occupancy
Gd1    Gd    0.97942   0.65703   0.21878   0.01267  Uiso   1.00
Gd2    Gd    0.47942   0.84297   0.28122   0.01267  Uiso   1.00
Gd3    Gd    0.52058   0.65703   0.78122   0.01267  Uiso   1.00
Gd4    Gd    0.02058   0.84297   0.71878   0.01267  Uiso   1.00
Gd5    Gd    0.02058   0.34297   0.78122   0.01267  Uiso   1.00
Gd6    Gd    0.52058   0.15703   0.71878   0.01267  Uiso   1.00
Gd7    Gd    0.47942   0.34297   0.21878   0.01267  Uiso   1.00
Gd8    Gd    0.97942   0.15703   0.28122   0.01267  Uiso   1.00
Gd9    Gd    0.25000   0.49213   0.00000   0.01267  Uiso   1.00
Gd10   Gd    0.75000   0.00787   0.50000   0.01267  Uiso   1.00
Gd11   Gd    0.75000   0.50787   0.00000   0.01267  Uiso   1.00
Gd12   Gd    0.25000   0.99213   0.50000   0.01267  Uiso   1.00
P1     P     0.15275   0.81144   0.30396   0.01267  Uiso   1.00
P2     P     0.31099   0.70174   0.08165   0.01267  Uiso   1.00
P3     P     0.65275   0.68856   0.19604   0.01267  Uiso   1.00
P4     P     0.81099   0.79826   0.41835   0.01267  Uiso   1.00
P5     P     0.34725   0.81144   0.69604   0.01267  Uiso   1.00
P6     P     0.18901   0.70174   0.91835   0.01267  Uiso   1.00
P7     P     0.84725   0.68856   0.80396   0.01267  Uiso   1.00
P8     P     0.68901   0.79826   0.58165   0.01267  Uiso   1.00
P9     P     0.84725   0.18856   0.69604   0.01267  Uiso   1.00
P10    P     0.68901   0.29826   0.91835   0.01267  Uiso   1.00
P11    P     0.34725   0.31144   0.80396   0.01267  Uiso   1.00
P12    P     0.18901   0.20174   0.58165   0.01267  Uiso   1.00
P13    P     0.65275   0.18856   0.30396   0.01267  Uiso   1.00
P14    P     0.81099   0.29826   0.08165   0.01267  Uiso   1.00
P15    P     0.15275   0.31144   0.19604   0.01267  Uiso   1.00
P16    P     0.31099   0.20174   0.41835   0.01267  Uiso   1.00
H1     H     0.10060   0.89060   0.22460   0.01267  Uiso   1.00
H2     H     0.19520   0.00840   0.27490   0.01267  Uiso   1.00
H3     H     0.26260   0.57370   0.14150   0.01267  Uiso   1.00
H4     H     0.24800   0.68590   0.19230   0.01267  Uiso   1.00
H5     H     0.60060   0.60940   0.27540   0.01267  Uiso   1.00
H6     H     0.69520   0.49160   0.22510   0.01267  Uiso   1.00
H7     H     0.76260   0.92630   0.35850   0.01267  Uiso   1.00
H8     H     0.74800   0.81410   0.30770   0.01267  Uiso   1.00
H9     H     0.39940   0.89060   0.77540   0.01267  Uiso   1.00
H10    H     0.30480   0.00840   0.72510   0.01267  Uiso   1.00
H11    H     0.23740   0.57370   0.85850   0.01267  Uiso   1.00
H12    H     0.25200   0.68590   0.80770   0.01267  Uiso   1.00
H13    H     0.89940   0.60940   0.72460   0.01267  Uiso   1.00
H14    H     0.80480   0.49160   0.77490   0.01267  Uiso   1.00
H15    H     0.73740   0.92630   0.64150   0.01267  Uiso   1.00
H16    H     0.75200   0.81410   0.69230   0.01267  Uiso   1.00
H17    H     0.89940   0.10940   0.77540   0.01267  Uiso   1.00
H18    H     0.80480   0.99160   0.72510   0.01267  Uiso   1.00
H19    H     0.73740   0.42630   0.85850   0.01267  Uiso   1.00
H20    H     0.75200   0.31410   0.80770   0.01267  Uiso   1.00
H21    H     0.39940   0.39060   0.72460   0.01267  Uiso   1.00
H22    H     0.30480   0.50840   0.77490   0.01267  Uiso   1.00
H23    H     0.23740   0.07370   0.64150   0.01267  Uiso   1.00
H24    H     0.25200   0.18590   0.69230   0.01267  Uiso   1.00
H25    H     0.60060   0.10940   0.22460   0.01267  Uiso   1.00
H26    H     0.69520   0.99160   0.27490   0.01267  Uiso   1.00
H27    H     0.76260   0.42630   0.14150   0.01267  Uiso   1.00
H28    H     0.74800   0.31410   0.19230   0.01267  Uiso   1.00
H29    H     0.10060   0.39060   0.27540   0.01267  Uiso   1.00
H30    H     0.19520   0.50840   0.22510   0.01267  Uiso   1.00
H31    H     0.26260   0.07370   0.35850   0.01267  Uiso   1.00
H32    H     0.24800   0.18590   0.30770   0.01267  Uiso   1.00
C1     C     0.08180   0.90730   0.26170   0.01267  Uiso   1.00
C2     C     0.94510   0.90170   0.26989   0.01267  Uiso   1.00
C3     C     0.21580   0.63480   0.12945   0.01267  Uiso   1.00
C4     C     0.09890   0.59410   0.10480   0.01267  Uiso   1.00
C5     C     0.58180   0.59270   0.23830   0.01267  Uiso   1.00
C6     C     0.44510   0.59830   0.23011   0.01267  Uiso   1.00
C7     C     0.71580   0.86520   0.37055   0.01267  Uiso   1.00
C8     C     0.59890   0.90590   0.39520   0.01267  Uiso   1.00
C9     C     0.41820   0.90730   0.73830   0.01267  Uiso   1.00
C10    C     0.55490   0.90170   0.73011   0.01267  Uiso   1.00
C11    C     0.28420   0.63480   0.87055   0.01267  Uiso   1.00
C12    C     0.40110   0.59410   0.89520   0.01267  Uiso   1.00
C13    C     0.91820   0.59270   0.76170   0.01267  Uiso   1.00
C14    C     0.05490   0.59830   0.76989   0.01267  Uiso   1.00
C15    C     0.78420   0.86520   0.62945   0.01267  Uiso   1.00
C16    C     0.90110   0.90590   0.60480   0.01267  Uiso   1.00
C17    C     0.91820   0.09270   0.73830   0.01267  Uiso   1.00
C18    C     0.05490   0.09830   0.73011   0.01267  Uiso   1.00
C19    C     0.78420   0.36520   0.87055   0.01267  Uiso   1.00
C20    C     0.90110   0.40590   0.89520   0.01267  Uiso   1.00
C21    C     0.41820   0.40730   0.76170   0.01267  Uiso   1.00
C22    C     0.55490   0.40170   0.76989   0.01267  Uiso   1.00
C23    C     0.28420   0.13480   0.62945   0.01267  Uiso   1.00
C24    C     0.40110   0.09410   0.60480   0.01267  Uiso   1.00
C25    C     0.58180   0.09270   0.26170   0.01267  Uiso   1.00
C26    C     0.44510   0.09830   0.26989   0.01267  Uiso   1.00
C27    C     0.71580   0.36520   0.12945   0.01267  Uiso   1.00
C28    C     0.59890   0.40590   0.10480   0.01267  Uiso   1.00
C29    C     0.08180   0.40730   0.23830   0.01267  Uiso   1.00
C30    C     0.94510   0.40170   0.23011   0.01267  Uiso   1.00
C31    C     0.21580   0.13480   0.37055   0.01267  Uiso   1.00
C32    C     0.09890   0.09410   0.39520   0.01267  Uiso   1.00
O1     O     0.12150   0.70890   0.28085   0.01267  Uiso   1.00
O2     O     0.09870   0.82760   0.35946   0.01267  Uiso   1.00
O3     O     0.28330   0.83780   0.30722   0.01267  Uiso   1.00
O4     O     0.12210   0.00860   0.27274   0.01267  Uiso   1.00
O5     O     0.89730   0.81470   0.26448   0.01267  Uiso   1.00
O6     O     0.88930   0.98270   0.28109   0.01267  Uiso   1.00
O7     O     0.35810   0.61780   0.04621   0.01267  Uiso   1.00
O8     O     0.23440   0.77950   0.05048   0.01267  Uiso   1.00
O9     O     0.40800   0.75780   0.11241   0.01267  Uiso   1.00
O10    O     0.18550   0.69270   0.17512   0.01267  Uiso   1.00
O11    O     0.10440   0.55770   0.06039   0.01267  Uiso   1.00
O12    O     0.00350   0.60110   0.13156   0.01267  Uiso   1.00
O13    O     0.62150   0.79110   0.21915   0.01267  Uiso   1.00
O14    O     0.59870   0.67240   0.14054   0.01267  Uiso   1.00
O15    O     0.78330   0.66220   0.19278   0.01267  Uiso   1.00
O16    O     0.62210   0.49140   0.22726   0.01267  Uiso   1.00
O17    O     0.39730   0.68530   0.23552   0.01267  Uiso   1.00
O18    O     0.38930   0.51730   0.21891   0.01267  Uiso   1.00
O19    O     0.85810   0.88220   0.45379   0.01267  Uiso   1.00
O20    O     0.73440   0.72050   0.44952   0.01267  Uiso   1.00
O21    O     0.90800   0.74220   0.38759   0.01267  Uiso   1.00
O22    O     0.68550   0.80730   0.32488   0.01267  Uiso   1.00
O23    O     0.60440   0.94230   0.43961   0.01267  Uiso   1.00
O24    O     0.50350   0.89890   0.36844   0.01267  Uiso   1.00
O25    O     0.37850   0.70890   0.71915   0.01267  Uiso   1.00
O26    O     0.40130   0.82760   0.64054   0.01267  Uiso   1.00
O27    O     0.21670   0.83780   0.69278   0.01267  Uiso   1.00
O28    O     0.37790   0.00860   0.72726   0.01267  Uiso   1.00
O29    O     0.60270   0.81470   0.73552   0.01267  Uiso   1.00
O30    O     0.61070   0.98270   0.71891   0.01267  Uiso   1.00
O31    O     0.14190   0.61780   0.95379   0.01267  Uiso   1.00
O32    O     0.26560   0.77950   0.94952   0.01267  Uiso   1.00
O33    O     0.09200   0.75780   0.88759   0.01267  Uiso   1.00
O34    O     0.31450   0.69270   0.82488   0.01267  Uiso   1.00
O35    O     0.39560   0.55770   0.93961   0.01267  Uiso   1.00
O36    O     0.49650   0.60110   0.86844   0.01267  Uiso   1.00
O37    O     0.87850   0.79110   0.78085   0.01267  Uiso   1.00
O38    O     0.90130   0.67240   0.85946   0.01267  Uiso   1.00
O39    O     0.71670   0.66220   0.80722   0.01267  Uiso   1.00
O40    O     0.87790   0.49140   0.77274   0.01267  Uiso   1.00
O41    O     0.10270   0.68530   0.76448   0.01267  Uiso   1.00
O42    O     0.11070   0.51730   0.78109   0.01267  Uiso   1.00
O43    O     0.64190   0.88220   0.54621   0.01267  Uiso   1.00
O44    O     0.76560   0.72050   0.55048   0.01267  Uiso   1.00
O45    O     0.59200   0.74220   0.61241   0.01267  Uiso   1.00
O46    O     0.81450   0.80730   0.67512   0.01267  Uiso   1.00
O47    O     0.89560   0.94230   0.56039   0.01267  Uiso   1.00
O48    O     0.99650   0.89890   0.63156   0.01267  Uiso   1.00
O49    O     0.87850   0.29110   0.71915   0.01267  Uiso   1.00
O50    O     0.90130   0.17240   0.64054   0.01267  Uiso   1.00
O51    O     0.71670   0.16220   0.69278   0.01267  Uiso   1.00
O52    O     0.87790   0.99140   0.72726   0.01267  Uiso   1.00
O53    O     0.10270   0.18530   0.73552   0.01267  Uiso   1.00
O54    O     0.11070   0.01730   0.71891   0.01267  Uiso   1.00
O55    O     0.64190   0.38220   0.95379   0.01267  Uiso   1.00
O56    O     0.76560   0.22050   0.94952   0.01267  Uiso   1.00
O57    O     0.59200   0.24220   0.88759   0.01267  Uiso   1.00
O58    O     0.81450   0.30730   0.82488   0.01267  Uiso   1.00
O59    O     0.89560   0.44230   0.93961   0.01267  Uiso   1.00
O60    O     0.99650   0.39890   0.86844   0.01267  Uiso   1.00
O61    O     0.37850   0.20890   0.78085   0.01267  Uiso   1.00
O62    O     0.40130   0.32760   0.85946   0.01267  Uiso   1.00
O63    O     0.21670   0.33780   0.80722   0.01267  Uiso   1.00
O64    O     0.37790   0.50860   0.77274   0.01267  Uiso   1.00
O65    O     0.60270   0.31470   0.76448   0.01267  Uiso   1.00
O66    O     0.61070   0.48270   0.78109   0.01267  Uiso   1.00
O67    O     0.14190   0.11780   0.54621   0.01267  Uiso   1.00
O68    O     0.26560   0.27950   0.55048   0.01267  Uiso   1.00
O69    O     0.09200   0.25780   0.61241   0.01267  Uiso   1.00
O70    O     0.31450   0.19270   0.67512   0.01267  Uiso   1.00
O71    O     0.39560   0.05770   0.56039   0.01267  Uiso   1.00
O72    O     0.49650   0.10110   0.63156   0.01267  Uiso   1.00
O73    O     0.62150   0.29110   0.28085   0.01267  Uiso   1.00
O74    O     0.59870   0.17240   0.35946   0.01267  Uiso   1.00
O75    O     0.78330   0.16220   0.30722   0.01267  Uiso   1.00
O76    O     0.62210   0.99140   0.27274   0.01267  Uiso   1.00
O77    O     0.39730   0.18530   0.26448   0.01267  Uiso   1.00
O78    O     0.38930   0.01730   0.28109   0.01267  Uiso   1.00
O79    O     0.85810   0.38220   0.04621   0.01267  Uiso   1.00
O80    O     0.73440   0.22050   0.05048   0.01267  Uiso   1.00
O81    O     0.90800   0.24220   0.11241   0.01267  Uiso   1.00
O82    O     0.68550   0.30730   0.17512   0.01267  Uiso   1.00
O83    O     0.60440   0.44230   0.06039   0.01267  Uiso   1.00
O84    O     0.50350   0.39890   0.13156   0.01267  Uiso   1.00
O85    O     0.12150   0.20890   0.21915   0.01267  Uiso   1.00
O86    O     0.09870   0.32760   0.14054   0.01267  Uiso   1.00
O87    O     0.28330   0.33780   0.19278   0.01267  Uiso   1.00
O88    O     0.12210   0.50860   0.22726   0.01267  Uiso   1.00
O89    O     0.89730   0.31470   0.23552   0.01267  Uiso   1.00
O90    O     0.88930   0.48270   0.21891   0.01267  Uiso   1.00
O91    O     0.35810   0.11780   0.45379   0.01267  Uiso   1.00
O92    O     0.23440   0.27950   0.44952   0.01267  Uiso   1.00
O93    O     0.40800   0.25780   0.38759   0.01267  Uiso   1.00
O94    O     0.18550   0.19270   0.32488   0.01267  Uiso   1.00
O95    O     0.10440   0.05770   0.43961   0.01267  Uiso   1.00
O96    O     0.00350   0.10110   0.36844   0.01267  Uiso   1.00
