data_image0
_cell_length_a       24.7293
_cell_length_b       8.9442
_cell_length_c       9.9806
_cell_angle_alpha    90
_cell_angle_beta     90
_cell_angle_gamma    90

_symmetry_space_group_name_H-M    "P 1"
_symmetry_int_tables_number       1

loop_
  _symmetry_equiv_pos_as_xyz
  'x, y, z'

loop_
  _atom_site_label
  _atom_site_occupancy
  _atom_site_fract_x
  _atom_site_fract_y
  _atom_site_fract_z
  _atom_site_thermal_displace_type
  _atom_site_B_iso_or_equiv
  _atom_site_type_symbol
  Al1      1.0000 0.38530  0.87281  0.78295  Biso   1.000  Al
  Al2      1.0000 0.23054  0.16923  0.48198  Biso   1.000  Al
  P1       1.0000 0.33884  0.95504  0.51124  Biso   1.000  P
  P2       1.0000 0.30274  0.61277  0.79440  Biso   1.000  P
  O1       1.0000 0.50550  0.63800  0.62940  Biso   1.000  O
  O2       1.0000 0.45127  0.84020  0.73910  Biso   1.000  O
  O3       1.0000 0.35446  0.98060  0.65940  Biso   1.000  O
  O4       1.0000 0.28918  0.04310  0.47710  Biso   1.000  O
  O5       1.0000 0.38686  0.01690  0.42790  Biso   1.000  O
  O6       1.0000 0.33198  0.78900  0.48530  Biso   1.000  O
  O7       1.0000 0.35686  0.69570  0.81170  Biso   1.000  O
  O8       1.0000 0.30724  0.47180  0.87680  Biso   1.000  O
  O9       1.0000 0.29549  0.57610  0.64610  Biso   1.000  O
  O10      1.0000 0.25649  0.71710  0.83720  Biso   1.000  O
  Al3      1.0000 0.11470  0.62719  0.28295  Biso   1.000  Al
  Al4      1.0000 0.26946  0.33077  0.98198  Biso   1.000  Al
  P3       1.0000 0.16116  0.54496  0.01124  Biso   1.000  P
  P4       1.0000 0.19726  0.88723  0.29440  Biso   1.000  P
  O11      1.0000 0.99450  0.86200  0.12940  Biso   1.000  O
  O12      1.0000 0.04873  0.65980  0.23910  Biso   1.000  O
  O13      1.0000 0.14554  0.51940  0.15940  Biso   1.000  O
  O14      1.0000 0.21082  0.45690  0.97710  Biso   1.000  O
  O15      1.0000 0.11314  0.48310  0.92790  Biso   1.000  O
  O16      1.0000 0.16802  0.71100  0.98530  Biso   1.000  O
  O17      1.0000 0.14314  0.80430  0.31170  Biso   1.000  O
  O18      1.0000 0.19276  0.02820  0.37680  Biso   1.000  O
  O19      1.0000 0.20451  0.92390  0.14610  Biso   1.000  O
  O20      1.0000 0.24351  0.78290  0.33720  Biso   1.000  O
  Al5      1.0000 0.61470  0.87281  0.71705  Biso   1.000  Al
  Al6      1.0000 0.76946  0.16923  0.01802  Biso   1.000  Al
  P5       1.0000 0.66116  0.95504  0.98876  Biso   1.000  P
  P6       1.0000 0.69726  0.61277  0.70560  Biso   1.000  P
  O21      1.0000 0.49450  0.63800  0.87060  Biso   1.000  O
  O22      1.0000 0.54873  0.84020  0.76090  Biso   1.000  O
  O23      1.0000 0.64554  0.98060  0.84060  Biso   1.000  O
  O24      1.0000 0.71082  0.04310  0.02290  Biso   1.000  O
  O25      1.0000 0.61314  0.01690  0.07210  Biso   1.000  O
  O26      1.0000 0.66802  0.78900  0.01470  Biso   1.000  O
  O27      1.0000 0.64314  0.69570  0.68830  Biso   1.000  O
  O28      1.0000 0.69276  0.47180  0.62320  Biso   1.000  O
  O29      1.0000 0.70451  0.57610  0.85390  Biso   1.000  O
  O30      1.0000 0.74351  0.71710  0.66280  Biso   1.000  O
  Al7      1.0000 0.88530  0.62719  0.21705  Biso   1.000  Al
  Al8      1.0000 0.73054  0.33077  0.51802  Biso   1.000  Al
  P7       1.0000 0.83884  0.54496  0.48876  Biso   1.000  P
  P8       1.0000 0.80274  0.88723  0.20560  Biso   1.000  P
  O31      1.0000 0.00550  0.86200  0.37060  Biso   1.000  O
  O32      1.0000 0.95127  0.65980  0.26090  Biso   1.000  O
  O33      1.0000 0.85446  0.51940  0.34060  Biso   1.000  O
  O34      1.0000 0.78918  0.45690  0.52290  Biso   1.000  O
  O35      1.0000 0.88686  0.48310  0.57210  Biso   1.000  O
  O36      1.0000 0.83198  0.71100  0.51470  Biso   1.000  O
  O37      1.0000 0.85686  0.80430  0.18830  Biso   1.000  O
  O38      1.0000 0.80724  0.02820  0.12320  Biso   1.000  O
  O39      1.0000 0.79549  0.92390  0.35390  Biso   1.000  O
  O40      1.0000 0.75649  0.78290  0.16280  Biso   1.000  O
  Al9      1.0000 0.61470  0.12719  0.21705  Biso   1.000  Al
  Al10     1.0000 0.76946  0.83077  0.51802  Biso   1.000  Al
  P9       1.0000 0.66116  0.04496  0.48876  Biso   1.000  P
  P10      1.0000 0.69726  0.38723  0.20560  Biso   1.000  P
  O41      1.0000 0.49450  0.36200  0.37060  Biso   1.000  O
  O42      1.0000 0.54873  0.15980  0.26090  Biso   1.000  O
  O43      1.0000 0.64554  0.01940  0.34060  Biso   1.000  O
  O44      1.0000 0.71082  0.95690  0.52290  Biso   1.000  O
  O45      1.0000 0.61314  0.98310  0.57210  Biso   1.000  O
  O46      1.0000 0.66802  0.21100  0.51470  Biso   1.000  O
  O47      1.0000 0.64314  0.30430  0.18830  Biso   1.000  O
  O48      1.0000 0.69276  0.52820  0.12320  Biso   1.000  O
  O49      1.0000 0.70451  0.42390  0.35390  Biso   1.000  O
  O50      1.0000 0.74351  0.28290  0.16280  Biso   1.000  O
  Al11     1.0000 0.88530  0.37281  0.71705  Biso   1.000  Al
  Al12     1.0000 0.73054  0.66923  0.01802  Biso   1.000  Al
  P11      1.0000 0.83884  0.45504  0.98876  Biso   1.000  P
  P12      1.0000 0.80274  0.11277  0.70560  Biso   1.000  P
  O51      1.0000 0.00550  0.13800  0.87060  Biso   1.000  O
  O52      1.0000 0.95127  0.34020  0.76090  Biso   1.000  O
  O53      1.0000 0.85446  0.48060  0.84060  Biso   1.000  O
  O54      1.0000 0.78918  0.54310  0.02290  Biso   1.000  O
  O55      1.0000 0.88686  0.51690  0.07210  Biso   1.000  O
  O56      1.0000 0.83198  0.28900  0.01470  Biso   1.000  O
  O57      1.0000 0.85686  0.19570  0.68830  Biso   1.000  O
  O58      1.0000 0.80724  0.97180  0.62320  Biso   1.000  O
  O59      1.0000 0.79549  0.07610  0.85390  Biso   1.000  O
  O60      1.0000 0.75649  0.21710  0.66280  Biso   1.000  O
  Al13     1.0000 0.38530  0.12719  0.28295  Biso   1.000  Al
  Al14     1.0000 0.23054  0.83077  0.98198  Biso   1.000  Al
  P13      1.0000 0.33884  0.04496  0.01124  Biso   1.000  P
  P14      1.0000 0.30274  0.38723  0.29440  Biso   1.000  P
  O61      1.0000 0.50550  0.36200  0.12940  Biso   1.000  O
  O62      1.0000 0.45127  0.15980  0.23910  Biso   1.000  O
  O63      1.0000 0.35446  0.01940  0.15940  Biso   1.000  O
  O64      1.0000 0.28918  0.95690  0.97710  Biso   1.000  O
  O65      1.0000 0.38686  0.98310  0.92790  Biso   1.000  O
  O66      1.0000 0.33198  0.21100  0.98530  Biso   1.000  O
  O67      1.0000 0.35686  0.30430  0.31170  Biso   1.000  O
  O68      1.0000 0.30724  0.52820  0.37680  Biso   1.000  O
  O69      1.0000 0.29549  0.42390  0.14610  Biso   1.000  O
  O70      1.0000 0.25649  0.28290  0.33720  Biso   1.000  O
  Al15     1.0000 0.11470  0.37281  0.78295  Biso   1.000  Al
  Al16     1.0000 0.26946  0.66923  0.48198  Biso   1.000  Al
  P15      1.0000 0.16116  0.45504  0.51124  Biso   1.000  P
  P16      1.0000 0.19726  0.11277  0.79440  Biso   1.000  P
  O71      1.0000 0.99450  0.13800  0.62940  Biso   1.000  O
  O72      1.0000 0.04873  0.34020  0.73910  Biso   1.000  O
  O73      1.0000 0.14554  0.48060  0.65940  Biso   1.000  O
  O74      1.0000 0.21082  0.54310  0.47710  Biso   1.000  O
  O75      1.0000 0.11314  0.51690  0.42790  Biso   1.000  O
  O76      1.0000 0.16802  0.28900  0.48530  Biso   1.000  O
  O77      1.0000 0.14314  0.19570  0.81170  Biso   1.000  O
  O78      1.0000 0.19276  0.97180  0.87680  Biso   1.000  O
  O79      1.0000 0.20451  0.07610  0.64610  Biso   1.000  O
  O80      1.0000 0.24351  0.21710  0.83720  Biso   1.000  O
  P17      1.0000 0.50000  0.73550  0.75000  Biso   1.000  P
  P18      1.0000 0.00000  0.76450  0.25000  Biso   1.000  P
  P19      1.0000 0.50000  0.26450  0.25000  Biso   1.000  P
  P20      1.0000 0.00000  0.23550  0.75000  Biso   1.000  P
