data_NICJUG_clean
_audit_creation_date              2014-07-02
_audit_creation_method            'Materials Studio'
_symmetry_space_group_name_H-M    'P1'
_symmetry_Int_Tables_number       1
_symmetry_cell_setting            triclinic
loop_
_symmetry_equiv_pos_as_xyz
  x,y,z
_cell_length_a                    12.5640
_cell_length_b                    16.5810
_cell_length_c                    16.5810
_cell_angle_alpha                 66.1523
_cell_angle_beta                  75.3699
_cell_angle_gamma                 104.6300
loop_
_atom_site_label
_atom_site_type_symbol
_atom_site_fract_x
_atom_site_fract_y
_atom_site_fract_z
_atom_site_U_iso_or_equiv
_atom_site_adp_type
_atom_site_occupancy
Ba1    Ba    0.70493   0.40986   0.29507   0.01267  Uiso   1.00
Ba2    Ba    0.00000   0.29507   0.29507   0.01267  Uiso   1.00
Ba3    Ba    0.29507   0.29507   0.40986   0.01267  Uiso   1.00
Ba4    Ba    0.29507   0.59014   0.70493   0.01267  Uiso   1.00
Ba5    Ba    0.00000   0.70493   0.70493   0.01267  Uiso   1.00
Ba6    Ba    0.70493   0.70493   0.59014   0.01267  Uiso   1.00
Cu1    Cu    0.89257   0.62747   0.37253   0.01267  Uiso   1.00
Cu2    Cu    0.26510   0.37253   0.00000   0.01267  Uiso   1.00
Cu3    Cu    0.26510   0.00000   0.62747   0.01267  Uiso   1.00
Cu4    Cu    0.73490   0.00000   0.37253   0.01267  Uiso   1.00
Cu5    Cu    0.73490   0.62747   0.00000   0.01267  Uiso   1.00
Cu6    Cu    0.10743   0.37253   0.62747   0.01267  Uiso   1.00
H1     H     0.53300   0.45690   0.19090   0.01267  Uiso   1.00
H2     H     0.49990   0.36840   0.21070   0.01267  Uiso   1.00
H3     H     0.72390   0.19090   0.35220   0.01267  Uiso   1.00
H4     H     0.71060   0.21070   0.42090   0.01267  Uiso   1.00
H5     H     0.07610   0.35220   0.45690   0.01267  Uiso   1.00
H6     H     0.13150   0.42090   0.36840   0.01267  Uiso   1.00
H7     H     0.27610   0.35220   0.19090   0.01267  Uiso   1.00
H8     H     0.28940   0.42090   0.21070   0.01267  Uiso   1.00
H9     H     0.92390   0.45690   0.35220   0.01267  Uiso   1.00
H10    H     0.86850   0.36840   0.42090   0.01267  Uiso   1.00
H11    H     0.46700   0.19090   0.45690   0.01267  Uiso   1.00
H12    H     0.50010   0.21070   0.36840   0.01267  Uiso   1.00
H13    H     0.46700   0.54310   0.80910   0.01267  Uiso   1.00
H14    H     0.50010   0.63160   0.78930   0.01267  Uiso   1.00
H15    H     0.27610   0.80910   0.64780   0.01267  Uiso   1.00
H16    H     0.28940   0.78930   0.57910   0.01267  Uiso   1.00
H17    H     0.92390   0.64780   0.54310   0.01267  Uiso   1.00
H18    H     0.86850   0.57910   0.63160   0.01267  Uiso   1.00
H19    H     0.72390   0.64780   0.80910   0.01267  Uiso   1.00
H20    H     0.71060   0.57910   0.78930   0.01267  Uiso   1.00
H21    H     0.07610   0.54310   0.64780   0.01267  Uiso   1.00
H22    H     0.13150   0.63160   0.57910   0.01267  Uiso   1.00
H23    H     0.53300   0.80910   0.54310   0.01267  Uiso   1.00
H24    H     0.49990   0.78930   0.63160   0.01267  Uiso   1.00
C1     C     0.11855   0.70250   0.38745   0.01267  Uiso   1.00
C2     C     0.69318   0.59579   0.31545   0.01267  Uiso   1.00
C3     C     0.50600   0.38745   0.91005   0.01267  Uiso   1.00
C4     C     0.00863   0.31545   0.08876   0.01267  Uiso   1.00
C5     C     0.41605   0.91005   0.70250   0.01267  Uiso   1.00
C6     C     0.09739   0.08876   0.59579   0.01267  Uiso   1.00
C7     C     0.49400   0.91005   0.38745   0.01267  Uiso   1.00
C8     C     0.99137   0.08876   0.31545   0.01267  Uiso   1.00
C9     C     0.58395   0.70250   0.91005   0.01267  Uiso   1.00
C10    C     0.90261   0.59579   0.08876   0.01267  Uiso   1.00
C11    C     0.88145   0.38745   0.70250   0.01267  Uiso   1.00
C12    C     0.30682   0.31545   0.59579   0.01267  Uiso   1.00
C13    C     0.88145   0.29750   0.61255   0.01267  Uiso   1.00
C14    C     0.30682   0.40421   0.68455   0.01267  Uiso   1.00
C15    C     0.49400   0.61255   0.08995   0.01267  Uiso   1.00
C16    C     0.99137   0.68455   0.91124   0.01267  Uiso   1.00
C17    C     0.58395   0.08995   0.29750   0.01267  Uiso   1.00
C18    C     0.90261   0.91124   0.40421   0.01267  Uiso   1.00
C19    C     0.50600   0.08995   0.61255   0.01267  Uiso   1.00
C20    C     0.00863   0.91124   0.68455   0.01267  Uiso   1.00
C21    C     0.41605   0.29750   0.08995   0.01267  Uiso   1.00
C22    C     0.09739   0.40421   0.91124   0.01267  Uiso   1.00
C23    C     0.11855   0.61255   0.29750   0.01267  Uiso   1.00
C24    C     0.69318   0.68455   0.40421   0.01267  Uiso   1.00
C25    C     0.31502   0.73068   0.26932   0.01267  Uiso   1.00
C26    C     0.18196   0.70899   0.29101   0.01267  Uiso   1.00
C27    C     0.16970   0.79020   0.20980   0.01267  Uiso   1.00
C28    C     0.68742   0.68883   0.31117   0.01267  Uiso   1.00
C29    C     0.57374   0.69891   0.30109   0.01267  Uiso   1.00
C30    C     0.79714   0.77571   0.22429   0.01267  Uiso   1.00
C31    C     0.58434   0.26932   0.00000   0.01267  Uiso   1.00
C32    C     0.47297   0.29101   0.00000   0.01267  Uiso   1.00
C33    C     0.37950   0.20980   0.00000   0.01267  Uiso   1.00
C34    C     0.99859   0.31117   0.00000   0.01267  Uiso   1.00
C35    C     0.87483   0.30109   0.00000   0.01267  Uiso   1.00
C36    C     0.02143   0.22429   0.00000   0.01267  Uiso   1.00
C37    C     0.58434   0.00000   0.73068   0.01267  Uiso   1.00
C38    C     0.47297   1.00000   0.70899   0.01267  Uiso   1.00
C39    C     0.37950   0.00000   0.79020   0.01267  Uiso   1.00
C40    C     0.99859   0.00000   0.68883   0.01267  Uiso   1.00
C41    C     0.87483   0.00000   0.69891   0.01267  Uiso   1.00
C42    C     0.02143   1.00000   0.77571   0.01267  Uiso   1.00
C43    C     0.41566   0.00000   0.26932   0.01267  Uiso   1.00
C44    C     0.52703   0.00000   0.29101   0.01267  Uiso   1.00
C45    C     0.62050   0.00000   0.20980   0.01267  Uiso   1.00
C46    C     0.00141   0.00000   0.31117   0.01267  Uiso   1.00
C47    C     0.12517   0.00000   0.30109   0.01267  Uiso   1.00
C48    C     0.97857   0.00000   0.22429   0.01267  Uiso   1.00
C49    C     0.41566   0.73068   0.00000   0.01267  Uiso   1.00
C50    C     0.52703   0.70899   0.00000   0.01267  Uiso   1.00
C51    C     0.62050   0.79020   0.00000   0.01267  Uiso   1.00
C52    C     0.00141   0.68883   1.00000   0.01267  Uiso   1.00
C53    C     0.12517   0.69891   0.00000   0.01267  Uiso   1.00
C54    C     0.97857   0.77571   0.00000   0.01267  Uiso   1.00
C55    C     0.68498   0.26932   0.73068   0.01267  Uiso   1.00
C56    C     0.81804   0.29101   0.70899   0.01267  Uiso   1.00
C57    C     0.83030   0.20980   0.79020   0.01267  Uiso   1.00
C58    C     0.31258   0.31117   0.68883   0.01267  Uiso   1.00
C59    C     0.42626   0.30109   0.69891   0.01267  Uiso   1.00
C60    C     0.20286   0.22429   0.77571   0.01267  Uiso   1.00
O1     O     0.00545   0.68454   0.41491   0.01267  Uiso   1.00
O2     O     0.78827   0.58148   0.31641   0.01267  Uiso   1.00
O3     O     0.17649   0.71704   0.43355   0.01267  Uiso   1.00
O4     O     0.51077   0.40032   0.23635   0.01267  Uiso   1.00
O5     O     0.60732   0.53724   0.31702   0.01267  Uiso   1.00
O6     O     0.42036   0.41491   0.90055   0.01267  Uiso   1.00
O7     O     0.10468   0.31641   0.10211   0.01267  Uiso   1.00
O8     O     0.61004   0.43355   0.84941   0.01267  Uiso   1.00
O9     O     0.74712   0.23635   0.36333   0.01267  Uiso   1.00
O10    O     0.92434   0.31702   0.14574   0.01267  Uiso   1.00
O11    O     0.32091   0.90055   0.68454   0.01267  Uiso   1.00
O12    O     0.20679   0.10211   0.58148   0.01267  Uiso   1.00
O13    O     0.45945   0.84941   0.71704   0.01267  Uiso   1.00
O14    O     0.11045   0.36333   0.40032   0.01267  Uiso   1.00
O15    O     0.07008   0.14574   0.53724   0.01267  Uiso   1.00
O16    O     0.57964   0.90055   0.41491   0.01267  Uiso   1.00
O17    O     0.89532   0.10211   0.31641   0.01267  Uiso   1.00
O18    O     0.38996   0.84941   0.43355   0.01267  Uiso   1.00
O19    O     0.25288   0.36333   0.23635   0.01267  Uiso   1.00
O20    O     0.07566   0.14574   0.31702   0.01267  Uiso   1.00
O21    O     0.67909   0.68454   0.90055   0.01267  Uiso   1.00
O22    O     0.79321   0.58148   0.10211   0.01267  Uiso   1.00
O23    O     0.54055   0.71704   0.84941   0.01267  Uiso   1.00
O24    O     0.88955   0.40032   0.36333   0.01267  Uiso   1.00
O25    O     0.92992   0.53724   0.14574   0.01267  Uiso   1.00
O26    O     0.99455   0.41491   0.68454   0.01267  Uiso   1.00
O27    O     0.21173   0.31641   0.58148   0.01267  Uiso   1.00
O28    O     0.82351   0.43355   0.71704   0.01267  Uiso   1.00
O29    O     0.48923   0.23635   0.40032   0.01267  Uiso   1.00
O30    O     0.39268   0.31702   0.53724   0.01267  Uiso   1.00
O31    O     0.99455   0.31546   0.58509   0.01267  Uiso   1.00
O32    O     0.21173   0.41852   0.68359   0.01267  Uiso   1.00
O33    O     0.82351   0.28296   0.56645   0.01267  Uiso   1.00
O34    O     0.48923   0.59968   0.76365   0.01267  Uiso   1.00
O35    O     0.39268   0.46276   0.68298   0.01267  Uiso   1.00
O36    O     0.57964   0.58509   0.09945   0.01267  Uiso   1.00
O37    O     0.89532   0.68359   0.89789   0.01267  Uiso   1.00
O38    O     0.38996   0.56645   0.15059   0.01267  Uiso   1.00
O39    O     0.25288   0.76365   0.63667   0.01267  Uiso   1.00
O40    O     0.07566   0.68298   0.85426   0.01267  Uiso   1.00
O41    O     0.67909   0.09945   0.31546   0.01267  Uiso   1.00
O42    O     0.79321   0.89789   0.41852   0.01267  Uiso   1.00
O43    O     0.54055   0.15059   0.28296   0.01267  Uiso   1.00
O44    O     0.88955   0.63667   0.59968   0.01267  Uiso   1.00
O45    O     0.92992   0.85426   0.46276   0.01267  Uiso   1.00
O46    O     0.42036   0.09945   0.58509   0.01267  Uiso   1.00
O47    O     0.10468   0.89789   0.68359   0.01267  Uiso   1.00
O48    O     0.61004   0.15059   0.56645   0.01267  Uiso   1.00
O49    O     0.74712   0.63667   0.76365   0.01267  Uiso   1.00
O50    O     0.92434   0.85426   0.68298   0.01267  Uiso   1.00
O51    O     0.32091   0.31546   0.09945   0.01267  Uiso   1.00
O52    O     0.20679   0.41852   0.89789   0.01267  Uiso   1.00
O53    O     0.45945   0.28296   0.15059   0.01267  Uiso   1.00
O54    O     0.11045   0.59968   0.63667   0.01267  Uiso   1.00
O55    O     0.07008   0.46276   0.85426   0.01267  Uiso   1.00
O56    O     0.00545   0.58509   0.31546   0.01267  Uiso   1.00
O57    O     0.78827   0.68359   0.41852   0.01267  Uiso   1.00
O58    O     0.17649   0.56645   0.28296   0.01267  Uiso   1.00
O59    O     0.51077   0.76365   0.59968   0.01267  Uiso   1.00
O60    O     0.60732   0.68298   0.46276   0.01267  Uiso   1.00
