data_NIFTIH_clean
_audit_creation_date              2014-07-02
_audit_creation_method            'Materials Studio'
_symmetry_space_group_name_H-M    'P1'
_symmetry_Int_Tables_number       1
_symmetry_cell_setting            triclinic
loop_
_symmetry_equiv_pos_as_xyz
  x,y,z
_cell_length_a                    14.7660
_cell_length_b                    17.6409
_cell_length_c                    17.6409
_cell_angle_alpha                 79.9123
_cell_angle_beta                  65.2591
_cell_angle_gamma                 65.2590
loop_
_atom_site_label
_atom_site_type_symbol
_atom_site_fract_x
_atom_site_fract_y
_atom_site_fract_z
_atom_site_U_iso_or_equiv
_atom_site_adp_type
_atom_site_occupancy
Cd1    Cd    0.53773   0.58280   0.42678   0.01267  Uiso   1.00
Cd2    Cd    0.04731   0.91720   0.07322   0.01267  Uiso   1.00
Cd3    Cd    0.96451   0.57322   0.08280   0.01267  Uiso   1.00
Cd4    Cd    0.12053   0.92678   0.41720   0.01267  Uiso   1.00
Cd5    Cd    0.46227   0.41720   0.57322   0.01267  Uiso   1.00
Cd6    Cd    0.95269   0.08280   0.92678   0.01267  Uiso   1.00
Cd7    Cd    0.03549   0.42678   0.91720   0.01267  Uiso   1.00
Cd8    Cd    0.87947   0.07322   0.58280   0.01267  Uiso   1.00
H1     H     0.67380   0.43080   0.16860   0.01267  Uiso   1.00
H2     H     0.74800   0.74840   0.21940   0.01267  Uiso   1.00
H3     H     0.75980   0.85130   0.27990   0.01267  Uiso   1.00
H4     H     0.77810   0.58790   0.41150   0.01267  Uiso   1.00
H5     H     0.78080   0.86930   0.52590   0.01267  Uiso   1.00
H6     H     0.82420   0.73310   0.57590   0.01267  Uiso   1.00
H7     H     0.78860   0.63420   0.53020   0.01267  Uiso   1.00
H8     H     0.77240   0.89560   0.39140   0.01267  Uiso   1.00
H9     H     0.77320   0.06920   0.33140   0.01267  Uiso   1.00
H10    H     0.21580   0.75160   0.28060   0.01267  Uiso   1.00
H11    H     0.39100   0.64870   0.22010   0.01267  Uiso   1.00
H12    H     0.27750   0.91210   0.08850   0.01267  Uiso   1.00
H13    H     0.67600   0.63070   0.97410   0.01267  Uiso   1.00
H14    H     0.63320   0.76690   0.92410   0.01267  Uiso   1.00
H15    H     0.45300   0.86580   0.96980   0.01267  Uiso   1.00
H16    H     0.55940   0.60440   0.10860   0.01267  Uiso   1.00
H17    H     0.84240   0.83140   0.93080   0.01267  Uiso   1.00
H18    H     0.96740   0.78060   0.24840   0.01267  Uiso   1.00
H19    H     0.03970   0.72010   0.35130   0.01267  Uiso   1.00
H20    H     0.18960   0.58850   0.08790   0.01267  Uiso   1.00
H21    H     0.30670   0.47410   0.36930   0.01267  Uiso   1.00
H22    H     0.40010   0.42410   0.23310   0.01267  Uiso   1.00
H23    H     0.31880   0.46980   0.13420   0.01267  Uiso   1.00
H24    H     0.16380   0.60860   0.39560   0.01267  Uiso   1.00
H25    H     0.10460   0.66860   0.56920   0.01267  Uiso   1.00
H26    H     0.49640   0.71940   0.25160   0.01267  Uiso   1.00
H27    H     0.61110   0.77990   0.14870   0.01267  Uiso   1.00
H28    H     0.36600   0.91150   0.41210   0.01267  Uiso   1.00
H29    H     0.65010   0.02590   0.13070   0.01267  Uiso   1.00
H30    H     0.55730   0.07590   0.26690   0.01267  Uiso   1.00
H31    H     0.42280   0.03020   0.36580   0.01267  Uiso   1.00
H32    H     0.66800   0.89140   0.10440   0.01267  Uiso   1.00
H33    H     0.32620   0.56920   0.83140   0.01267  Uiso   1.00
H34    H     0.25200   0.25160   0.78060   0.01267  Uiso   1.00
H35    H     0.24020   0.14870   0.72010   0.01267  Uiso   1.00
H36    H     0.22190   0.41210   0.58850   0.01267  Uiso   1.00
H37    H     0.21920   0.13070   0.47410   0.01267  Uiso   1.00
H38    H     0.17580   0.26690   0.42410   0.01267  Uiso   1.00
H39    H     0.21140   0.36580   0.46980   0.01267  Uiso   1.00
H40    H     0.22760   0.10440   0.60860   0.01267  Uiso   1.00
H41    H     0.22680   0.93080   0.66860   0.01267  Uiso   1.00
H42    H     0.78420   0.24840   0.71940   0.01267  Uiso   1.00
H43    H     0.60900   0.35130   0.77990   0.01267  Uiso   1.00
H44    H     0.72250   0.08790   0.91150   0.01267  Uiso   1.00
H45    H     0.32400   0.36930   0.02590   0.01267  Uiso   1.00
H46    H     0.36680   0.23310   0.07590   0.01267  Uiso   1.00
H47    H     0.54700   0.13420   0.03020   0.01267  Uiso   1.00
H48    H     0.44060   0.39560   0.89140   0.01267  Uiso   1.00
H49    H     0.15760   0.16860   0.06920   0.01267  Uiso   1.00
H50    H     0.03260   0.21940   0.75160   0.01267  Uiso   1.00
H51    H     0.96030   0.27990   0.64870   0.01267  Uiso   1.00
H52    H     0.81040   0.41150   0.91210   0.01267  Uiso   1.00
H53    H     0.69330   0.52590   0.63070   0.01267  Uiso   1.00
H54    H     0.59990   0.57590   0.76690   0.01267  Uiso   1.00
H55    H     0.68120   0.53020   0.86580   0.01267  Uiso   1.00
H56    H     0.83620   0.39140   0.60440   0.01267  Uiso   1.00
H57    H     0.89540   0.33140   0.43080   0.01267  Uiso   1.00
H58    H     0.50360   0.28060   0.74840   0.01267  Uiso   1.00
H59    H     0.38890   0.22010   0.85130   0.01267  Uiso   1.00
H60    H     0.63400   0.08850   0.58790   0.01267  Uiso   1.00
H61    H     0.34990   0.97410   0.86930   0.01267  Uiso   1.00
H62    H     0.44270   0.92410   0.73310   0.01267  Uiso   1.00
H63    H     0.57720   0.96980   0.63420   0.01267  Uiso   1.00
H64    H     0.33200   0.10860   0.89560   0.01267  Uiso   1.00
C1     C     0.75180   0.59910   0.26690   0.01267  Uiso   1.00
C2     C     0.68440   0.51870   0.24730   0.01267  Uiso   1.00
C3     C     0.61030   0.47660   0.26860   0.01267  Uiso   1.00
C4     C     0.77130   0.52170   0.17430   0.01267  Uiso   1.00
C5     C     0.82090   0.47770   0.09450   0.01267  Uiso   1.00
C6     C     0.76340   0.65840   0.30780   0.01267  Uiso   1.00
C7     C     0.75620   0.73740   0.27020   0.01267  Uiso   1.00
C8     C     0.78070   0.70130   0.42250   0.01267  Uiso   1.00
C9     C     0.76660   0.78160   0.38620   0.01267  Uiso   1.00
C10    C     0.76070   0.80070   0.30650   0.01267  Uiso   1.00
C11    C     0.77470   0.63920   0.38560   0.01267  Uiso   1.00
C12    C     0.78520   0.82770   0.49710   0.01267  Uiso   1.00
C13    C     0.80300   0.74610   0.53090   0.01267  Uiso   1.00
C14    C     0.79040   0.68310   0.50090   0.01267  Uiso   1.00
C15    C     0.77440   0.84530   0.41910   0.01267  Uiso   1.00
C16    C     0.11780   0.90090   0.23310   0.01267  Uiso   1.00
C17    C     0.95040   0.98130   0.25270   0.01267  Uiso   1.00
C18    C     0.85550   0.02340   0.23140   0.01267  Uiso   1.00
C19    C     0.96730   0.97830   0.32570   0.01267  Uiso   1.00
C20    C     0.89310   0.02230   0.40550   0.01267  Uiso   1.00
C21    C     0.22960   0.84160   0.19220   0.01267  Uiso   1.00
C22    C     0.26380   0.76260   0.22980   0.01267  Uiso   1.00
C23    C     0.40450   0.79870   0.07750   0.01267  Uiso   1.00
C24    C     0.43440   0.71840   0.11380   0.01267  Uiso   1.00
C25    C     0.36790   0.69930   0.19350   0.01267  Uiso   1.00
C26    C     0.29950   0.86080   0.11440   0.01267  Uiso   1.00
C27    C     0.61000   0.67230   0.00290   0.01267  Uiso   1.00
C28    C     0.58000   0.75390   0.96910   0.01267  Uiso   1.00
C29    C     0.47440   0.81690   0.99910   0.01267  Uiso   1.00
C30    C     0.53880   0.65470   0.08090   0.01267  Uiso   1.00
C31    C     0.01870   0.73310   0.09910   0.01267  Uiso   1.00
C32    C     0.93170   0.75270   0.01870   0.01267  Uiso   1.00
C33    C     0.87890   0.73140   0.97660   0.01267  Uiso   1.00
C34    C     0.94560   0.82570   0.02170   0.01267  Uiso   1.00
C35    C     0.91540   0.90550   0.97770   0.01267  Uiso   1.00
C36    C     0.07120   0.69220   0.15840   0.01267  Uiso   1.00
C37    C     0.02640   0.72980   0.23740   0.01267  Uiso   1.00
C38    C     0.20320   0.57750   0.20130   0.01267  Uiso   1.00
C39    C     0.15280   0.61380   0.28160   0.01267  Uiso   1.00
C40    C     0.06720   0.69350   0.30070   0.01267  Uiso   1.00
C41    C     0.16030   0.61440   0.13920   0.01267  Uiso   1.00
C42    C     0.28230   0.50290   0.32770   0.01267  Uiso   1.00
C43    C     0.33390   0.46910   0.24610   0.01267  Uiso   1.00
C44    C     0.29130   0.49910   0.18310   0.01267  Uiso   1.00
C45    C     0.19350   0.58090   0.34530   0.01267  Uiso   1.00
C46    C     0.35090   0.76690   0.40090   0.01267  Uiso   1.00
C47    C     0.20310   0.74730   0.48130   0.01267  Uiso   1.00
C48    C     0.08690   0.76860   0.52340   0.01267  Uiso   1.00
C49    C     0.29300   0.67430   0.47830   0.01267  Uiso   1.00
C50    C     0.29860   0.59450   0.52230   0.01267  Uiso   1.00
C51    C     0.42180   0.80780   0.34160   0.01267  Uiso   1.00
C52    C     0.49360   0.77020   0.26260   0.01267  Uiso   1.00
C53    C     0.48200   0.92250   0.29870   0.01267  Uiso   1.00
C54    C     0.54820   0.88620   0.21840   0.01267  Uiso   1.00
C55    C     0.56140   0.80650   0.19930   0.01267  Uiso   1.00
C56    C     0.41390   0.88560   0.36080   0.01267  Uiso   1.00
C57    C     0.61290   0.99710   0.17230   0.01267  Uiso   1.00
C58    C     0.54910   0.03090   0.25390   0.01267  Uiso   1.00
C59    C     0.47350   0.00090   0.31690   0.01267  Uiso   1.00
C60    C     0.61970   0.91910   0.15470   0.01267  Uiso   1.00
C61    C     0.24820   0.40090   0.73310   0.01267  Uiso   1.00
C62    C     0.31560   0.48130   0.75270   0.01267  Uiso   1.00
C63    C     0.38970   0.52340   0.73140   0.01267  Uiso   1.00
C64    C     0.22870   0.47830   0.82570   0.01267  Uiso   1.00
C65    C     0.17910   0.52230   0.90550   0.01267  Uiso   1.00
C66    C     0.23660   0.34160   0.69220   0.01267  Uiso   1.00
C67    C     0.24380   0.26260   0.72980   0.01267  Uiso   1.00
C68    C     0.21930   0.29870   0.57750   0.01267  Uiso   1.00
C69    C     0.23340   0.21840   0.61380   0.01267  Uiso   1.00
C70    C     0.23930   0.19930   0.69350   0.01267  Uiso   1.00
C71    C     0.22530   0.36080   0.61440   0.01267  Uiso   1.00
C72    C     0.21480   0.17230   0.50290   0.01267  Uiso   1.00
C73    C     0.19700   0.25390   0.46910   0.01267  Uiso   1.00
C74    C     0.20960   0.31690   0.49910   0.01267  Uiso   1.00
C75    C     0.22560   0.15470   0.58090   0.01267  Uiso   1.00
C76    C     0.88220   0.09910   0.76690   0.01267  Uiso   1.00
C77    C     0.04960   0.01870   0.74730   0.01267  Uiso   1.00
C78    C     0.14450   0.97660   0.76860   0.01267  Uiso   1.00
C79    C     0.03270   0.02170   0.67430   0.01267  Uiso   1.00
C80    C     0.10690   0.97770   0.59450   0.01267  Uiso   1.00
C81    C     0.77040   0.15840   0.80780   0.01267  Uiso   1.00
C82    C     0.73620   0.23740   0.77020   0.01267  Uiso   1.00
C83    C     0.59550   0.20130   0.92250   0.01267  Uiso   1.00
C84    C     0.56560   0.28160   0.88620   0.01267  Uiso   1.00
C85    C     0.63210   0.30070   0.80650   0.01267  Uiso   1.00
C86    C     0.70050   0.13920   0.88560   0.01267  Uiso   1.00
C87    C     0.39000   0.32770   0.99710   0.01267  Uiso   1.00
C88    C     0.42000   0.24610   0.03090   0.01267  Uiso   1.00
C89    C     0.52560   0.18310   0.00090   0.01267  Uiso   1.00
C90    C     0.46120   0.34530   0.91910   0.01267  Uiso   1.00
C91    C     0.98130   0.26690   0.90090   0.01267  Uiso   1.00
C92    C     0.06830   0.24730   0.98130   0.01267  Uiso   1.00
C93    C     0.12110   0.26860   0.02340   0.01267  Uiso   1.00
C94    C     0.05440   0.17430   0.97830   0.01267  Uiso   1.00
C95    C     0.08460   0.09450   0.02230   0.01267  Uiso   1.00
C96    C     0.92880   0.30780   0.84160   0.01267  Uiso   1.00
C97    C     0.97360   0.27020   0.76260   0.01267  Uiso   1.00
C98    C     0.79680   0.42250   0.79870   0.01267  Uiso   1.00
C99    C     0.84720   0.38620   0.71840   0.01267  Uiso   1.00
C100   C     0.93280   0.30650   0.69930   0.01267  Uiso   1.00
C101   C     0.83970   0.38560   0.86080   0.01267  Uiso   1.00
C102   C     0.71770   0.49710   0.67230   0.01267  Uiso   1.00
C103   C     0.66610   0.53090   0.75390   0.01267  Uiso   1.00
C104   C     0.70870   0.50090   0.81690   0.01267  Uiso   1.00
C105   C     0.80650   0.41910   0.65470   0.01267  Uiso   1.00
C106   C     0.64910   0.23310   0.59910   0.01267  Uiso   1.00
C107   C     0.79690   0.25270   0.51870   0.01267  Uiso   1.00
C108   C     0.91310   0.23140   0.47660   0.01267  Uiso   1.00
C109   C     0.70700   0.32570   0.52170   0.01267  Uiso   1.00
C110   C     0.70140   0.40550   0.47770   0.01267  Uiso   1.00
C111   C     0.57820   0.19220   0.65840   0.01267  Uiso   1.00
C112   C     0.50640   0.22980   0.73740   0.01267  Uiso   1.00
C113   C     0.51800   0.07750   0.70130   0.01267  Uiso   1.00
C114   C     0.45180   0.11380   0.78160   0.01267  Uiso   1.00
C115   C     0.43860   0.19350   0.80070   0.01267  Uiso   1.00
C116   C     0.58610   0.11440   0.63920   0.01267  Uiso   1.00
C117   C     0.38710   0.00290   0.82770   0.01267  Uiso   1.00
C118   C     0.45090   0.96910   0.74610   0.01267  Uiso   1.00
C119   C     0.52650   0.99910   0.68310   0.01267  Uiso   1.00
C120   C     0.38030   0.08090   0.84530   0.01267  Uiso   1.00
N1     N     0.67140   0.56950   0.30590   0.01267  Uiso   1.00
N2     N     0.81160   0.57240   0.18840   0.01267  Uiso   1.00
N3     N     0.04680   0.93050   0.19410   0.01267  Uiso   1.00
N4     N     0.07240   0.92760   0.31160   0.01267  Uiso   1.00
N5     N     0.97730   0.69410   0.06950   0.01267  Uiso   1.00
N6     N     1.00000   0.81160   0.07240   0.01267  Uiso   1.00
N7     N     0.24090   0.80590   0.43050   0.01267  Uiso   1.00
N8     N     0.38400   0.68840   0.42760   0.01267  Uiso   1.00
N9     N     0.32860   0.43050   0.69410   0.01267  Uiso   1.00
N10    N     0.18840   0.42760   0.81160   0.01267  Uiso   1.00
N11    N     0.95320   0.06950   0.80590   0.01267  Uiso   1.00
N12    N     0.92760   0.07240   0.68840   0.01267  Uiso   1.00
N13    N     0.02270   0.30590   0.93050   0.01267  Uiso   1.00
N14    N     1.00000   0.18840   0.92760   0.01267  Uiso   1.00
N15    N     0.75910   0.19410   0.56950   0.01267  Uiso   1.00
N16    N     0.61600   0.31160   0.57240   0.01267  Uiso   1.00
O1     O     0.53700   0.48490   0.33830   0.01267  Uiso   1.00
O2     O     0.62380   0.42880   0.21200   0.01267  Uiso   1.00
O3     O     0.90270   0.48780   0.04120   0.01267  Uiso   1.00
O4     O     0.78130   0.43100   0.08360   0.01267  Uiso   1.00
O5     O     0.86020   0.01510   0.16170   0.01267  Uiso   1.00
O6     O     0.76460   0.07120   0.28800   0.01267  Uiso   1.00
O7     O     0.93170   0.01220   0.45880   0.01267  Uiso   1.00
O8     O     0.79590   0.06900   0.41640   0.01267  Uiso   1.00
O9     O     0.87530   0.66170   0.98490   0.01267  Uiso   1.00
O10    O     0.83580   0.78800   0.92880   0.01267  Uiso   1.00
O11    O     0.94390   0.95880   0.98780   0.01267  Uiso   1.00
O12    O     0.86490   0.91640   0.93100   0.01267  Uiso   1.00
O13    O     0.02190   0.83830   0.51510   0.01267  Uiso   1.00
O14    O     0.05260   0.71200   0.57120   0.01267  Uiso   1.00
O15    O     0.39050   0.54120   0.51220   0.01267  Uiso   1.00
O16    O     0.21230   0.58360   0.56900   0.01267  Uiso   1.00
O17    O     0.46300   0.51510   0.66170   0.01267  Uiso   1.00
O18    O     0.37620   0.57120   0.78800   0.01267  Uiso   1.00
O19    O     0.09730   0.51220   0.95880   0.01267  Uiso   1.00
O20    O     0.21870   0.56900   0.91640   0.01267  Uiso   1.00
O21    O     0.13980   0.98490   0.83830   0.01267  Uiso   1.00
O22    O     0.23540   0.92880   0.71200   0.01267  Uiso   1.00
O23    O     0.06830   0.98780   0.54120   0.01267  Uiso   1.00
O24    O     0.20410   0.93100   0.58360   0.01267  Uiso   1.00
O25    O     0.12470   0.33830   0.01510   0.01267  Uiso   1.00
O26    O     0.16420   0.21200   0.07120   0.01267  Uiso   1.00
O27    O     0.05610   0.04120   0.01220   0.01267  Uiso   1.00
O28    O     0.13510   0.08360   0.06900   0.01267  Uiso   1.00
O29    O     0.97810   0.16170   0.48490   0.01267  Uiso   1.00
O30    O     0.94740   0.28800   0.42880   0.01267  Uiso   1.00
O31    O     0.60950   0.45880   0.48780   0.01267  Uiso   1.00
O32    O     0.78770   0.41640   0.43100   0.01267  Uiso   1.00
