data_NIGBOW_clean
_audit_creation_date              2015-10-29
_audit_creation_method            'Materials Studio'
_symmetry_space_group_name_H-M    'P1'
_symmetry_Int_Tables_number       1
_symmetry_cell_setting            triclinic
loop_
_symmetry_equiv_pos_as_xyz
  x,y,z
_cell_length_a                    6.9570
_cell_length_b                    15.2588
_cell_length_c                    15.2588
_cell_angle_alpha                 84.7587
_cell_angle_beta                  76.8226
_cell_angle_gamma                 76.8226
loop_
_atom_site_label
_atom_site_type_symbol
_atom_site_fract_x
_atom_site_fract_y
_atom_site_fract_z
_atom_site_U_iso_or_equiv
_atom_site_adp_type
_atom_site_occupancy
V1     V     0.50000  -0.00000  -0.00000   0.01267  Uiso   1.00
V2     V     0.00000   0.00000   0.00000   0.01267  Uiso   1.00
C3     C     0.58460   0.69400   0.00400   0.01267  Uiso   1.00
C4     C     0.63700   0.59500   0.00300   0.01267  Uiso   1.00
C5     C     0.91540   0.99600   0.30600   0.01267  Uiso   1.00
C6     C     0.86300   0.99700   0.40500   0.01267  Uiso   1.00
C7     C     0.78260   0.30600   0.99600   0.01267  Uiso   1.00
C8     C     0.73500   0.40500   0.99700   0.01267  Uiso   1.00
C9     C     0.71740   0.00400   0.69400   0.01267  Uiso   1.00
C10    C     0.76500   0.00300   0.59500   0.01267  Uiso   1.00
C11    C     0.41540   0.30600   0.99600   0.01267  Uiso   1.00
C12    C     0.36300   0.40500   0.99700   0.01267  Uiso   1.00
C13    C     0.08460   0.00400   0.69400   0.01267  Uiso   1.00
C14    C     0.13700   0.00300   0.59500   0.01267  Uiso   1.00
C15    C     0.21740   0.69400   0.00400   0.01267  Uiso   1.00
C16    C     0.26500   0.59500   0.00300   0.01267  Uiso   1.00
C17    C     0.28260   0.99600   0.30600   0.01267  Uiso   1.00
C18    C     0.23500   0.99700   0.40500   0.01267  Uiso   1.00
C19    C     0.33200   0.84400   0.99200   0.01267  Uiso   1.00
C20    C     0.37900   0.74100   0.00100   0.01267  Uiso   1.00
C21    C     0.47400   0.55000   0.00200   0.01267  Uiso   1.00
C22    C     0.16800   0.00800   0.15600   0.01267  Uiso   1.00
C23    C     0.12100   0.99900   0.25900   0.01267  Uiso   1.00
C24    C     0.02600   0.99800   0.45000   0.01267  Uiso   1.00
C25    C     0.66800   0.15600   0.00800   0.01267  Uiso   1.00
C26    C     0.62100   0.25900   0.99900   0.01267  Uiso   1.00
C27    C     0.52600   0.45000   0.99800   0.01267  Uiso   1.00
C28    C     0.83200   0.99200   0.84400   0.01267  Uiso   1.00
C29    C     0.87900   0.00100   0.74100   0.01267  Uiso   1.00
C30    C     0.97400   0.00200   0.55000   0.01267  Uiso   1.00
O31    O     0.48750   0.88450   0.98650   0.01267  Uiso   1.00
O32    O     0.01250   0.01350   0.11550   0.01267  Uiso   1.00
O33    O     0.85850   0.11550   0.01350   0.01267  Uiso   1.00
O34    O     0.64150   0.98650   0.88450   0.01267  Uiso   1.00
O35    O     0.51250   0.11550   0.01350   0.01267  Uiso   1.00
O36    O     0.98750   0.98650   0.88450   0.01267  Uiso   1.00
O37    O     0.14150   0.88450   0.98650   0.01267  Uiso   1.00
O38    O     0.35850   0.01350   0.11550   0.01267  Uiso   1.00
O39    O     0.75000   0.96200   0.03800   0.01267  Uiso   1.00
O40    O     0.25000   0.03800   0.96200   0.01267  Uiso   1.00
H41    H     0.70443   0.73296   0.00709   0.00000  Uiso   1.00
H42    H     0.79862   0.55739   0.00303   0.00000  Uiso   1.00
H43    H     0.79557   0.99291   0.26704   0.00000  Uiso   1.00
H44    H     0.70138   0.99697   0.44261   0.00000  Uiso   1.00
H45    H     0.94448   0.26704   0.99291   0.00000  Uiso   1.00
H46    H     0.85904   0.44261   0.99697   0.00000  Uiso   1.00
H47    H     0.55552   0.00709   0.73296   0.00000  Uiso   1.00
H48    H     0.64096   0.00303   0.55739   0.00000  Uiso   1.00
H49    H     0.29557   0.26704   0.99291   0.00000  Uiso   1.00
H50    H     0.20138   0.44261   0.99697   0.00000  Uiso   1.00
H51    H     0.20443   0.00709   0.73296   0.00000  Uiso   1.00
H52    H     0.29862   0.00303   0.55739   0.00000  Uiso   1.00
H53    H     0.05552   0.73296   0.00709   0.00000  Uiso   1.00
H54    H     0.14096   0.55739   0.00303   0.00000  Uiso   1.00
H55    H     0.44448   0.99291   0.26704   0.00000  Uiso   1.00
H56    H     0.35904   0.99697   0.44261   0.00000  Uiso   1.00
loop_
_geom_bond_atom_site_label_1
_geom_bond_atom_site_label_2
_geom_bond_distance
_geom_bond_site_symmetry_2
_ccdc_geom_bond_type
V1     O31     1.817   1_544 S
V1     O34     1.817   1_544 S
V1     O35     1.817   .     S
V1     O38     1.817   .     S
V1     O39     1.907   1_545 S
V1     O40     1.907   1_554 S
V2     O32     1.817   .     S
V2     O33     1.817   1_455 S
V2     O36     1.817   1_444 S
V2     O37     1.817   1_544 S
V2     O39     1.907   1_445 S
V2     O40     1.907   1_554 S
C3     C4      1.472   .     A
C3     C20     1.456   .     A
C3     H41     1.140   .     S
C4     C21     1.457   .     A
C4     H42     1.140   .     S
C5     C6      1.472   .     A
C5     C23     1.456   1_655 A
C5     H43     1.140   .     S
C6     C24     1.457   1_655 A
C6     H44     1.140   .     S
C7     C8      1.472   .     A
C7     C26     1.456   .     A
C7     H45     1.140   .     S
C8     C27     1.457   .     A
C8     H46     1.140   .     S
C9     C10     1.472   .     A
C9     C29     1.456   .     A
C9     H47     1.140   .     S
C10    C30     1.457   .     A
C10    H48     1.140   .     S
C11    C12     1.472   .     A
C11    C26     1.456   .     A
C11    H49     1.140   .     S
C12    C27     1.457   .     A
C12    H50     1.140   .     S
C13    C14     1.472   .     A
C13    C29     1.456   1_455 A
C13    H51     1.140   .     S
C14    C30     1.457   1_455 A
C14    H52     1.140   .     S
C15    C16     1.472   .     A
C15    C20     1.456   .     A
C15    H53     1.140   .     S
C16    C21     1.457   .     A
C16    H54     1.140   .     S
C17    C18     1.472   .     A
C17    C23     1.456   .     A
C17    H55     1.140   .     S
C18    C24     1.457   .     A
C18    H56     1.140   .     S
C19    C20     1.531   1_556 S
C19    O31     1.347   .     A
C19    O37     1.347   .     A
C20    C19     1.531   1_554 S
C21    C27     1.489   1_554 S
C22    C23     1.531   1_545 S
C22    O32     1.347   .     A
C22    O38     1.347   .     A
C23    C5      1.456   1_455 A
C23    C22     1.531   1_565 S
C24    C6      1.457   1_455 A
C24    C30     1.489   1_465 A
C25    C26     1.531   1_554 S
C25    O33     1.347   .     A
C25    O35     1.347   .     A
C26    C25     1.531   1_556 S
C27    C21     1.489   1_556 S
C28    C29     1.531   1_565 S
C28    O34     1.347   .     A
C28    O36     1.347   .     A
C29    C13     1.456   1_655 A
C29    C28     1.531   1_545 S
C30    C24     1.489   1_645 A
C30    C14     1.457   1_655 A
O31    V1      1.817   1_566 S
O33    V2      1.817   1_655 S
O34    V1      1.817   1_566 S
O36    V2      1.817   1_666 S
O37    V2      1.817   1_566 S
O39    V2      1.907   1_665 S
O39    V1      1.907   1_565 S
O40    V2      1.907   1_556 S
O40    V1      1.907   1_556 S
