data_NIGFIT_clean
_audit_creation_date              2014-07-02
_audit_creation_method            'Materials Studio'
_symmetry_space_group_name_H-M    'P1'
_symmetry_Int_Tables_number       1
_symmetry_cell_setting            triclinic
loop_
_symmetry_equiv_pos_as_xyz
  x,y,z
_cell_length_a                    10.8894
_cell_length_b                    10.8894
_cell_length_c                    19.6803
_cell_angle_alpha                 75.7156
_cell_angle_beta                  75.7156
_cell_angle_gamma                 64.6726
loop_
_atom_site_label
_atom_site_type_symbol
_atom_site_fract_x
_atom_site_fract_y
_atom_site_fract_z
_atom_site_U_iso_or_equiv
_atom_site_adp_type
_atom_site_occupancy
Er1    Er    0.59459   0.25507   0.08330   0.01267  Uiso   1.00
Er2    Er    0.74493   0.40541   0.41670   0.01267  Uiso   1.00
Er3    Er    0.40541   0.74493   0.91670   0.01267  Uiso   1.00
Er4    Er    0.25507   0.59459   0.58330   0.01267  Uiso   1.00
H1     H     0.20150   0.31190   0.27550   0.01267  Uiso   1.00
H2     H     0.16940   0.40080   0.46680   0.01267  Uiso   1.00
H3     H     0.51940   0.34400   0.32750   0.01267  Uiso   1.00
H4     H     0.68810   0.79850   0.22450   0.01267  Uiso   1.00
H5     H     0.59920   0.83060   0.03320   0.01267  Uiso   1.00
H6     H     0.65600   0.48060   0.17250   0.01267  Uiso   1.00
H7     H     0.79850   0.68810   0.72450   0.01267  Uiso   1.00
H8     H     0.83060   0.59920   0.53320   0.01267  Uiso   1.00
H9     H     0.48060   0.65600   0.67250   0.01267  Uiso   1.00
H10    H     0.31190   0.20150   0.77550   0.01267  Uiso   1.00
H11    H     0.40080   0.16940   0.96680   0.01267  Uiso   1.00
H12    H     0.34400   0.51940   0.82750   0.01267  Uiso   1.00
C1     C     0.45340   0.29820   0.21730   0.01267  Uiso   1.00
C2     C     0.01700   0.36820   0.39150   0.01267  Uiso   1.00
C3     C     0.41550   0.40670   0.45640   0.01267  Uiso   1.00
C4     C     0.37360   0.32120   0.28970   0.01267  Uiso   1.00
C5     C     0.24050   0.32710   0.30800   0.01267  Uiso   1.00
C6     C     0.16410   0.35530   0.37400   0.01267  Uiso   1.00
C7     C     0.22070   0.38070   0.42260   0.01267  Uiso   1.00
C8     C     0.35390   0.37610   0.40490   0.01267  Uiso   1.00
C9     C     0.43020   0.34680   0.33920   0.01267  Uiso   1.00
C10    C     0.70180   0.54660   0.28270   0.01267  Uiso   1.00
C11    C     0.63180   0.98300   0.10850   0.01267  Uiso   1.00
C12    C     0.59330   0.58450   0.04360   0.01267  Uiso   1.00
C13    C     0.67880   0.62640   0.21030   0.01267  Uiso   1.00
C14    C     0.67290   0.75950   0.19200   0.01267  Uiso   1.00
C15    C     0.64470   0.83590   0.12600   0.01267  Uiso   1.00
C16    C     0.61930   0.77930   0.07740   0.01267  Uiso   1.00
C17    C     0.62390   0.64610   0.09510   0.01267  Uiso   1.00
C18    C     0.65320   0.56980   0.16080   0.01267  Uiso   1.00
C19    C     0.54660   0.70180   0.78270   0.01267  Uiso   1.00
C20    C     0.98300   0.63180   0.60850   0.01267  Uiso   1.00
C21    C     0.58450   0.59330   0.54360   0.01267  Uiso   1.00
C22    C     0.62640   0.67880   0.71030   0.01267  Uiso   1.00
C23    C     0.75950   0.67290   0.69200   0.01267  Uiso   1.00
C24    C     0.83590   0.64470   0.62600   0.01267  Uiso   1.00
C25    C     0.77930   0.61930   0.57740   0.01267  Uiso   1.00
C26    C     0.64610   0.62390   0.59510   0.01267  Uiso   1.00
C27    C     0.56980   0.65320   0.66080   0.01267  Uiso   1.00
C28    C     0.29820   0.45340   0.71730   0.01267  Uiso   1.00
C29    C     0.36820   0.01700   0.89150   0.01267  Uiso   1.00
C30    C     0.40670   0.41550   0.95640   0.01267  Uiso   1.00
C31    C     0.32120   0.37360   0.78970   0.01267  Uiso   1.00
C32    C     0.32710   0.24050   0.80800   0.01267  Uiso   1.00
C33    C     0.35530   0.16410   0.87400   0.01267  Uiso   1.00
C34    C     0.38070   0.22070   0.92260   0.01267  Uiso   1.00
C35    C     0.37610   0.35390   0.90490   0.01267  Uiso   1.00
C36    C     0.34680   0.43020   0.83920   0.01267  Uiso   1.00
O1     O     0.39500   0.29340   0.17030   0.01267  Uiso   1.00
O2     O     0.57700   0.28340   0.20360   0.01267  Uiso   1.00
O3     O     0.97150   0.33270   0.35030   0.01267  Uiso   1.00
O4     O     0.94190   0.41050   0.44590   0.01267  Uiso   1.00
O5     O     0.35060   0.41780   0.51840   0.01267  Uiso   1.00
O6     O     0.52850   0.41990   0.43410   0.01267  Uiso   1.00
O7     O     0.70660   0.60500   0.32970   0.01267  Uiso   1.00
O8     O     0.71660   0.42300   0.29640   0.01267  Uiso   1.00
O9     O     0.66730   0.02850   0.14970   0.01267  Uiso   1.00
O10    O     0.58950   0.05810   0.05410   0.01267  Uiso   1.00
O11    O     0.58220   0.64940   0.98160   0.01267  Uiso   1.00
O12    O     0.58010   0.47150   0.06590   0.01267  Uiso   1.00
O13    O     0.60500   0.70660   0.82970   0.01267  Uiso   1.00
O14    O     0.42300   0.71660   0.79640   0.01267  Uiso   1.00
O15    O     0.02850   0.66730   0.64970   0.01267  Uiso   1.00
O16    O     0.05810   0.58950   0.55410   0.01267  Uiso   1.00
O17    O     0.64940   0.58220   0.48160   0.01267  Uiso   1.00
O18    O     0.47150   0.58010   0.56590   0.01267  Uiso   1.00
O19    O     0.29340   0.39500   0.67030   0.01267  Uiso   1.00
O20    O     0.28340   0.57700   0.70360   0.01267  Uiso   1.00
O21    O     0.33270   0.97150   0.85030   0.01267  Uiso   1.00
O22    O     0.41050   0.94190   0.94590   0.01267  Uiso   1.00
O23    O     0.41780   0.35060   0.01840   0.01267  Uiso   1.00
O24    O     0.41990   0.52850   0.93410   0.01267  Uiso   1.00
