data_NIGFUF_clean
_audit_creation_date              2014-07-02
_audit_creation_method            'Materials Studio'
_symmetry_space_group_name_H-M    'P1'
_symmetry_Int_Tables_number       1
_symmetry_cell_setting            triclinic
loop_
_symmetry_equiv_pos_as_xyz
  x,y,z
_cell_length_a                    10.9097
_cell_length_b                    10.9097
_cell_length_c                    19.5100
_cell_angle_alpha                 75.4687
_cell_angle_beta                  75.4687
_cell_angle_gamma                 64.1082
loop_
_atom_site_label
_atom_site_type_symbol
_atom_site_fract_x
_atom_site_fract_y
_atom_site_fract_z
_atom_site_U_iso_or_equiv
_atom_site_adp_type
_atom_site_occupancy
Dy1    Dy    0.75382   0.09646   0.08305   0.01267  Uiso   1.00
Dy2    Dy    0.90354   0.24618   0.41695   0.01267  Uiso   1.00
Dy3    Dy    0.24618   0.90354   0.91695   0.01267  Uiso   1.00
Dy4    Dy    0.09646   0.75382   0.58305   0.01267  Uiso   1.00
H1     H     0.33120   0.09980   0.03170   0.01267  Uiso   1.00
H2     H     0.29770   0.18810   0.22380   0.01267  Uiso   1.00
H3     H     0.98080   0.15720   0.17230   0.01267  Uiso   1.00
H4     H     0.90020   0.66880   0.46830   0.01267  Uiso   1.00
H5     H     0.81190   0.70230   0.27620   0.01267  Uiso   1.00
H6     H     0.84280   0.01920   0.32770   0.01267  Uiso   1.00
H7     H     0.66880   0.90020   0.96830   0.01267  Uiso   1.00
H8     H     0.70230   0.81190   0.77620   0.01267  Uiso   1.00
H9     H     0.01920   0.84280   0.82770   0.01267  Uiso   1.00
H10    H     0.09980   0.33120   0.53170   0.01267  Uiso   1.00
H11    H     0.18810   0.29770   0.72380   0.01267  Uiso   1.00
H12    H     0.15720   0.98080   0.67230   0.01267  Uiso   1.00
C1     C     0.08620   0.09320   0.04380   0.01267  Uiso   1.00
C2     C     0.14960   0.12180   0.09510   0.01267  Uiso   1.00
C3     C     0.28080   0.11820   0.07670   0.01267  Uiso   1.00
C4     C     0.33760   0.14160   0.12480   0.01267  Uiso   1.00
C5     C     0.25990   0.17110   0.19130   0.01267  Uiso   1.00
C6     C     0.12880   0.17540   0.20970   0.01267  Uiso   1.00
C7     C     0.07080   0.15220   0.16090   0.01267  Uiso   1.00
C8     C     0.48440   0.13040   0.10620   0.01267  Uiso   1.00
C9     C     0.04600   0.20200   0.28290   0.01267  Uiso   1.00
C10    C     0.90680   0.91380   0.45620   0.01267  Uiso   1.00
C11    C     0.87820   0.85040   0.40490   0.01267  Uiso   1.00
C12    C     0.88180   0.71920   0.42330   0.01267  Uiso   1.00
C13    C     0.85840   0.66240   0.37520   0.01267  Uiso   1.00
C14    C     0.82890   0.74010   0.30870   0.01267  Uiso   1.00
C15    C     0.82460   0.87120   0.29030   0.01267  Uiso   1.00
C16    C     0.84780   0.92920   0.33910   0.01267  Uiso   1.00
C17    C     0.86960   0.51560   0.39380   0.01267  Uiso   1.00
C18    C     0.79800   0.95400   0.21710   0.01267  Uiso   1.00
C19    C     0.91380   0.90680   0.95620   0.01267  Uiso   1.00
C20    C     0.85040   0.87820   0.90490   0.01267  Uiso   1.00
C21    C     0.71920   0.88180   0.92330   0.01267  Uiso   1.00
C22    C     0.66240   0.85840   0.87520   0.01267  Uiso   1.00
C23    C     0.74010   0.82890   0.80870   0.01267  Uiso   1.00
C24    C     0.87120   0.82460   0.79030   0.01267  Uiso   1.00
C25    C     0.92920   0.84780   0.83910   0.01267  Uiso   1.00
C26    C     0.51560   0.86960   0.89380   0.01267  Uiso   1.00
C27    C     0.95400   0.79800   0.71710   0.01267  Uiso   1.00
C28    C     0.09320   0.08620   0.54380   0.01267  Uiso   1.00
C29    C     0.12180   0.14960   0.59510   0.01267  Uiso   1.00
C30    C     0.11820   0.28080   0.57670   0.01267  Uiso   1.00
C31    C     0.14160   0.33760   0.62480   0.01267  Uiso   1.00
C32    C     0.17110   0.25990   0.69130   0.01267  Uiso   1.00
C33    C     0.17540   0.12880   0.70970   0.01267  Uiso   1.00
C34    C     0.15220   0.07080   0.66090   0.01267  Uiso   1.00
C35    C     0.13040   0.48440   0.60620   0.01267  Uiso   1.00
C36    C     0.20200   0.04600   0.78290   0.01267  Uiso   1.00
O1     O     0.15090   0.08150   0.98160   0.01267  Uiso   1.00
O2     O     0.55410   0.09970   0.05090   0.01267  Uiso   1.00
O3     O     0.52850   0.15910   0.15100   0.01267  Uiso   1.00
O4     O     0.10500   0.20500   0.32910   0.01267  Uiso   1.00
O5     O     0.92520   0.21680   0.29520   0.01267  Uiso   1.00
O6     O     0.97270   0.08190   0.06540   0.01267  Uiso   1.00
O7     O     0.91850   0.84910   0.51840   0.01267  Uiso   1.00
O8     O     0.90030   0.44590   0.44910   0.01267  Uiso   1.00
O9     O     0.84090   0.47150   0.34900   0.01267  Uiso   1.00
O10    O     0.79500   0.89500   0.17090   0.01267  Uiso   1.00
O11    O     0.78320   0.07480   0.20480   0.01267  Uiso   1.00
O12    O     0.91810   0.02730   0.43460   0.01267  Uiso   1.00
O13    O     0.84910   0.91850   0.01840   0.01267  Uiso   1.00
O14    O     0.44590   0.90030   0.94910   0.01267  Uiso   1.00
O15    O     0.47150   0.84090   0.84900   0.01267  Uiso   1.00
O16    O     0.89500   0.79500   0.67090   0.01267  Uiso   1.00
O17    O     0.07480   0.78320   0.70480   0.01267  Uiso   1.00
O18    O     0.02730   0.91810   0.93460   0.01267  Uiso   1.00
O19    O     0.08150   0.15090   0.48160   0.01267  Uiso   1.00
O20    O     0.09970   0.55410   0.55090   0.01267  Uiso   1.00
O21    O     0.15910   0.52850   0.65100   0.01267  Uiso   1.00
O22    O     0.20500   0.10500   0.82910   0.01267  Uiso   1.00
O23    O     0.21680   0.92520   0.79520   0.01267  Uiso   1.00
O24    O     0.08190   0.97270   0.56540   0.01267  Uiso   1.00
