data_NIGFOZ_clean
_audit_creation_date              2014-07-02
_audit_creation_method            'Materials Studio'
_symmetry_space_group_name_H-M    'P1'
_symmetry_Int_Tables_number       1
_symmetry_cell_setting            triclinic
loop_
_symmetry_equiv_pos_as_xyz
  x,y,z
_cell_length_a                    10.9548
_cell_length_b                    10.9548
_cell_length_c                    19.7410
_cell_angle_alpha                 75.4848
_cell_angle_beta                  75.4848
_cell_angle_gamma                 64.1216
loop_
_atom_site_label
_atom_site_type_symbol
_atom_site_fract_x
_atom_site_fract_y
_atom_site_fract_z
_atom_site_U_iso_or_equiv
_atom_site_adp_type
_atom_site_occupancy
Tb1    Tb    0.90240   0.24686   0.41708   0.01267  Uiso   1.00
Tb2    Tb    0.75314   0.09760   0.08292   0.01267  Uiso   1.00
Tb3    Tb    0.09760   0.75314   0.58292   0.01267  Uiso   1.00
Tb4    Tb    0.24686   0.90240   0.91708   0.01267  Uiso   1.00
H1     H     0.29550   0.18870   0.22330   0.01267  Uiso   1.00
H2     H     0.33070   0.09750   0.03230   0.01267  Uiso   1.00
H3     H     0.98170   0.15650   0.17220   0.01267  Uiso   1.00
H4     H     0.81130   0.70450   0.27670   0.01267  Uiso   1.00
H5     H     0.90250   0.66930   0.46770   0.01267  Uiso   1.00
H6     H     0.84350   0.01830   0.32780   0.01267  Uiso   1.00
H7     H     0.70450   0.81130   0.77670   0.01267  Uiso   1.00
H8     H     0.66930   0.90250   0.96770   0.01267  Uiso   1.00
H9     H     0.01830   0.84350   0.82780   0.01267  Uiso   1.00
H10    H     0.18870   0.29550   0.72330   0.01267  Uiso   1.00
H11    H     0.09750   0.33070   0.53230   0.01267  Uiso   1.00
H12    H     0.15650   0.98170   0.67220   0.01267  Uiso   1.00
C1     C     0.04480   0.20160   0.28220   0.01267  Uiso   1.00
C2     C     0.12640   0.17780   0.20980   0.01267  Uiso   1.00
C3     C     0.25730   0.17250   0.19110   0.01267  Uiso   1.00
C4     C     0.33500   0.14360   0.12520   0.01267  Uiso   1.00
C5     C     0.27940   0.11800   0.07630   0.01267  Uiso   1.00
C6     C     0.14660   0.12380   0.09480   0.01267  Uiso   1.00
C7     C     0.07070   0.15310   0.16050   0.01267  Uiso   1.00
C8     C     0.48010   0.13390   0.10750   0.01267  Uiso   1.00
C9     C     0.08490   0.09390   0.04370   0.01267  Uiso   1.00
C10    C     0.79840   0.95520   0.21780   0.01267  Uiso   1.00
C11    C     0.82220   0.87360   0.29020   0.01267  Uiso   1.00
C12    C     0.82750   0.74270   0.30890   0.01267  Uiso   1.00
C13    C     0.85640   0.66500   0.37480   0.01267  Uiso   1.00
C14    C     0.88200   0.72060   0.42370   0.01267  Uiso   1.00
C15    C     0.87620   0.85340   0.40520   0.01267  Uiso   1.00
C16    C     0.84690   0.92930   0.33950   0.01267  Uiso   1.00
C17    C     0.86610   0.51990   0.39250   0.01267  Uiso   1.00
C18    C     0.90610   0.91510   0.45630   0.01267  Uiso   1.00
C19    C     0.95520   0.79840   0.71780   0.01267  Uiso   1.00
C20    C     0.87360   0.82220   0.79020   0.01267  Uiso   1.00
C21    C     0.74270   0.82750   0.80890   0.01267  Uiso   1.00
C22    C     0.66500   0.85640   0.87480   0.01267  Uiso   1.00
C23    C     0.72060   0.88200   0.92370   0.01267  Uiso   1.00
C24    C     0.85340   0.87620   0.90520   0.01267  Uiso   1.00
C25    C     0.92930   0.84690   0.83950   0.01267  Uiso   1.00
C26    C     0.51990   0.86610   0.89250   0.01267  Uiso   1.00
C27    C     0.91510   0.90610   0.95630   0.01267  Uiso   1.00
C28    C     0.20160   0.04480   0.78220   0.01267  Uiso   1.00
C29    C     0.17780   0.12640   0.70980   0.01267  Uiso   1.00
C30    C     0.17250   0.25730   0.69110   0.01267  Uiso   1.00
C31    C     0.14360   0.33500   0.62520   0.01267  Uiso   1.00
C32    C     0.11800   0.27940   0.57630   0.01267  Uiso   1.00
C33    C     0.12380   0.14660   0.59480   0.01267  Uiso   1.00
C34    C     0.15310   0.07070   0.66050   0.01267  Uiso   1.00
C35    C     0.13390   0.48010   0.60750   0.01267  Uiso   1.00
C36    C     0.09390   0.08490   0.54370   0.01267  Uiso   1.00
O1     O     0.10580   0.20060   0.32920   0.01267  Uiso   1.00
O2     O     0.92240   0.21860   0.29560   0.01267  Uiso   1.00
O3     O     0.52520   0.16140   0.15180   0.01267  Uiso   1.00
O4     O     0.55130   0.10250   0.05110   0.01267  Uiso   1.00
O5     O     0.15030   0.08150   0.98200   0.01267  Uiso   1.00
O6     O     0.97300   0.08300   0.06570   0.01267  Uiso   1.00
O7     O     0.79940   0.89420   0.17080   0.01267  Uiso   1.00
O8     O     0.78140   0.07760   0.20440   0.01267  Uiso   1.00
O9     O     0.83860   0.47480   0.34820   0.01267  Uiso   1.00
O10    O     0.89750   0.44870   0.44890   0.01267  Uiso   1.00
O11    O     0.91850   0.84970   0.51800   0.01267  Uiso   1.00
O12    O     0.91700   0.02700   0.43430   0.01267  Uiso   1.00
O13    O     0.89420   0.79940   0.67080   0.01267  Uiso   1.00
O14    O     0.07760   0.78140   0.70440   0.01267  Uiso   1.00
O15    O     0.47480   0.83860   0.84820   0.01267  Uiso   1.00
O16    O     0.44870   0.89750   0.94890   0.01267  Uiso   1.00
O17    O     0.84970   0.91850   0.01800   0.01267  Uiso   1.00
O18    O     0.02700   0.91700   0.93430   0.01267  Uiso   1.00
O19    O     0.20060   0.10580   0.82920   0.01267  Uiso   1.00
O20    O     0.21860   0.92240   0.79560   0.01267  Uiso   1.00
O21    O     0.16140   0.52520   0.65180   0.01267  Uiso   1.00
O22    O     0.10250   0.55130   0.55110   0.01267  Uiso   1.00
O23    O     0.08150   0.15030   0.48200   0.01267  Uiso   1.00
O24    O     0.08300   0.97300   0.56570   0.01267  Uiso   1.00
