data_NIGHOA_charged
_audit_creation_date              2014-07-02
_audit_creation_method            'Materials Studio'
_symmetry_space_group_name_H-M    'P1'
_symmetry_Int_Tables_number       1
_symmetry_cell_setting            triclinic
loop_
_symmetry_equiv_pos_as_xyz
  x,y,z
_cell_length_a                    12.2800
_cell_length_b                    12.5530
_cell_length_c                    19.4900
_cell_angle_alpha                 90.0000
_cell_angle_beta                  92.1700
_cell_angle_gamma                 90.0000
loop_
_atom_site_label
_atom_site_type_symbol
_atom_site_fract_x
_atom_site_fract_y
_atom_site_fract_z
_atom_site_U_iso_or_equiv
_atom_site_adp_type
_atom_site_occupancy
Cu1    Cu    0.23520   0.88826   0.75487   0.01267  Uiso   1.00
Cu2    Cu    0.26480   0.38826   0.24513   0.01267  Uiso   1.00
Cu3    Cu    0.76480   0.11174   0.24513   0.01267  Uiso   1.00
Cu4    Cu    0.73520   0.61174   0.75487   0.01267  Uiso   1.00
H1     H     0.44870   0.84800   0.83320   0.01267  Uiso   1.00
H2     H     0.57100   0.82390   0.92000   0.01267  Uiso   1.00
H3     H     0.35470   0.03710   0.87170   0.01267  Uiso   1.00
H4     H     0.47550   0.07760   0.95940   0.01267  Uiso   1.00
H5     H     0.59320   0.02700   0.96520   0.01267  Uiso   1.00
H6     H     0.03930   0.04930   0.75400   0.01267  Uiso   1.00
H7     H     0.90010   0.07370   0.86260   0.01267  Uiso   1.00
H8     H     0.15240   0.87560   0.90860   0.01267  Uiso   1.00
H9     H     0.01130   0.89890   0.99350   0.01267  Uiso   1.00
H10    H     0.94720   0.98020   0.96560   0.01267  Uiso   1.00
H11    H     0.01060   0.78130   0.69870   0.01267  Uiso   1.00
H12    H     0.89620   0.86780   0.59940   0.01267  Uiso   1.00
H13    H     0.17480   0.02960   0.61970   0.01267  Uiso   1.00
H14    H     0.02060   0.10350   0.52820   0.01267  Uiso   1.00
H15    H     0.91550   0.04630   0.53270   0.01267  Uiso   1.00
H16    H     0.68000   0.15620   0.40080   0.01267  Uiso   1.00
H17    H     0.50440   0.05360   0.44630   0.01267  Uiso   1.00
H18    H     0.54980   0.95410   0.25380   0.01267  Uiso   1.00
H19    H     0.40060   0.88370   0.31540   0.01267  Uiso   1.00
H20    H     0.41950   0.87570   0.40110   0.01267  Uiso   1.00
H21    H     0.30140   0.01500   0.38800   0.01267  Uiso   1.00
H22    H     0.23240   0.92550   0.34860   0.01267  Uiso   1.00
H23    H     0.27850   0.94690   0.21040   0.01267  Uiso   1.00
H24    H     0.24320   0.64690   0.84780   0.01267  Uiso   1.00
H25    H     0.20390   0.69570   0.64560   0.01267  Uiso   1.00
H26    H     0.05130   0.34800   0.16680   0.01267  Uiso   1.00
H27    H     0.92900   0.32390   0.08000   0.01267  Uiso   1.00
H28    H     0.14530   0.53710   0.12830   0.01267  Uiso   1.00
H29    H     0.02450   0.57760   0.04060   0.01267  Uiso   1.00
H30    H     0.90680   0.52700   0.03480   0.01267  Uiso   1.00
H31    H     0.46070   0.54930   0.24600   0.01267  Uiso   1.00
H32    H     0.59990   0.57370   0.13740   0.01267  Uiso   1.00
H33    H     0.34760   0.37560   0.09140   0.01267  Uiso   1.00
H34    H     0.48870   0.39890   0.00650   0.01267  Uiso   1.00
H35    H     0.55280   0.48020   0.03440   0.01267  Uiso   1.00
H36    H     0.48940   0.28130   0.30130   0.01267  Uiso   1.00
H37    H     0.60380   0.36780   0.40060   0.01267  Uiso   1.00
H38    H     0.32520   0.52960   0.38030   0.01267  Uiso   1.00
H39    H     0.47940   0.60350   0.47180   0.01267  Uiso   1.00
H40    H     0.58450   0.54630   0.46730   0.01267  Uiso   1.00
H41    H     0.82000   0.65620   0.59920   0.01267  Uiso   1.00
H42    H     0.99560   0.55360   0.55370   0.01267  Uiso   1.00
H43    H     0.95020   0.45410   0.74620   0.01267  Uiso   1.00
H44    H     0.09940   0.38370   0.68460   0.01267  Uiso   1.00
H45    H     0.08050   0.37570   0.59890   0.01267  Uiso   1.00
H46    H     0.19860   0.51500   0.61200   0.01267  Uiso   1.00
H47    H     0.26760   0.42550   0.65140   0.01267  Uiso   1.00
H48    H     0.22150   0.44690   0.78960   0.01267  Uiso   1.00
H49    H     0.25680   0.14690   0.15220   0.01267  Uiso   1.00
H50    H     0.29610   0.19570   0.35440   0.01267  Uiso   1.00
H51    H     0.55130   0.15200   0.16680   0.01267  Uiso   1.00
H52    H     0.42900   0.17610   0.08000   0.01267  Uiso   1.00
H53    H     0.64530   0.96290   0.12830   0.01267  Uiso   1.00
H54    H     0.52450   0.92240   0.04060   0.01267  Uiso   1.00
H55    H     0.40680   0.97300   0.03480   0.01267  Uiso   1.00
H56    H     0.96070   0.95070   0.24600   0.01267  Uiso   1.00
H57    H     0.09990   0.92630   0.13740   0.01267  Uiso   1.00
H58    H     0.84760   0.12440   0.09140   0.01267  Uiso   1.00
H59    H     0.98870   0.10110   0.00650   0.01267  Uiso   1.00
H60    H     0.05280   0.01980   0.03440   0.01267  Uiso   1.00
H61    H     0.98940   0.21870   0.30130   0.01267  Uiso   1.00
H62    H     0.10380   0.13220   0.40060   0.01267  Uiso   1.00
H63    H     0.82520   0.97040   0.38030   0.01267  Uiso   1.00
H64    H     0.97940   0.89650   0.47180   0.01267  Uiso   1.00
H65    H     0.08450   0.95370   0.46730   0.01267  Uiso   1.00
H66    H     0.32000   0.84380   0.59920   0.01267  Uiso   1.00
H67    H     0.49560   0.94640   0.55370   0.01267  Uiso   1.00
H68    H     0.45020   0.04590   0.74620   0.01267  Uiso   1.00
H69    H     0.59940   0.11630   0.68460   0.01267  Uiso   1.00
H70    H     0.58050   0.12430   0.59890   0.01267  Uiso   1.00
H71    H     0.69860   0.98500   0.61200   0.01267  Uiso   1.00
H72    H     0.76760   0.07450   0.65140   0.01267  Uiso   1.00
H73    H     0.72150   0.05310   0.78960   0.01267  Uiso   1.00
H74    H     0.75680   0.35310   0.15220   0.01267  Uiso   1.00
H75    H     0.79610   0.30430   0.35440   0.01267  Uiso   1.00
H76    H     0.94870   0.65200   0.83320   0.01267  Uiso   1.00
H77    H     0.07100   0.67610   0.92000   0.01267  Uiso   1.00
H78    H     0.85470   0.46290   0.87170   0.01267  Uiso   1.00
H79    H     0.97550   0.42240   0.95940   0.01267  Uiso   1.00
H80    H     0.09320   0.47300   0.96520   0.01267  Uiso   1.00
H81    H     0.53930   0.45070   0.75400   0.01267  Uiso   1.00
H82    H     0.40010   0.42630   0.86260   0.01267  Uiso   1.00
H83    H     0.65240   0.62440   0.90860   0.01267  Uiso   1.00
H84    H     0.51130   0.60110   0.99350   0.01267  Uiso   1.00
H85    H     0.44720   0.51980   0.96560   0.01267  Uiso   1.00
H86    H     0.51060   0.71870   0.69870   0.01267  Uiso   1.00
H87    H     0.39620   0.63220   0.59940   0.01267  Uiso   1.00
H88    H     0.67480   0.47040   0.61970   0.01267  Uiso   1.00
H89    H     0.52060   0.39650   0.52820   0.01267  Uiso   1.00
H90    H     0.41550   0.45370   0.53270   0.01267  Uiso   1.00
H91    H     0.18000   0.34380   0.40080   0.01267  Uiso   1.00
H92    H     0.00440   0.44640   0.44630   0.01267  Uiso   1.00
H93    H     0.04980   0.54590   0.25380   0.01267  Uiso   1.00
H94    H     0.90060   0.61630   0.31540   0.01267  Uiso   1.00
H95    H     0.91950   0.62430   0.40110   0.01267  Uiso   1.00
H96    H     0.80140   0.48500   0.38800   0.01267  Uiso   1.00
H97    H     0.73240   0.57450   0.34860   0.01267  Uiso   1.00
H98    H     0.77850   0.55310   0.21040   0.01267  Uiso   1.00
H99    H     0.74320   0.85310   0.84780   0.01267  Uiso   1.00
H100   H     0.70390   0.80430   0.64560   0.01267  Uiso   1.00
C1     C     0.42570   0.81040   0.84460   0.01267  Uiso   1.00
C2     C     0.49400   0.84710   0.89660   0.01267  Uiso   1.00
C3     C     0.36610   0.96560   0.87650   0.01267  Uiso   1.00
C4     C     0.51550   0.01770   0.96540   0.01267  Uiso   1.00
C5     C     0.03580   0.01320   0.80310   0.01267  Uiso   1.00
C6     C     0.97490   0.02870   0.85820   0.01267  Uiso   1.00
C7     C     0.10530   0.91450   0.88290   0.01267  Uiso   1.00
C8     C     0.98050   0.95190   0.97950   0.01267  Uiso   1.00
C9     C     0.02890   0.84210   0.67050   0.01267  Uiso   1.00
C10    C     0.96830   0.88050   0.61740   0.01267  Uiso   1.00
C11    C     0.11810   0.97300   0.62880   0.01267  Uiso   1.00
C12    C     0.99040   0.03030   0.53310   0.01267  Uiso   1.00
C13    C     0.62860   0.10620   0.37650   0.01267  Uiso   1.00
C14    C     0.54050   0.05700   0.40100   0.01267  Uiso   1.00
C15    C     0.56500   0.00340   0.29670   0.01267  Uiso   1.00
C16    C     0.40860   0.91840   0.35310   0.01267  Uiso   1.00
C17    C     0.29970   0.97630   0.35500   0.01267  Uiso   1.00
C18    C     0.27500   0.03690   0.23040   0.01267  Uiso   1.00
C19    C     0.23370   0.63380   0.79860   0.01267  Uiso   1.00
C20    C     0.21320   0.66090   0.69010   0.01267  Uiso   1.00
C21    C     0.07430   0.31040   0.15540   0.01267  Uiso   1.00
C22    C     0.00600   0.34710   0.10340   0.01267  Uiso   1.00
C23    C     0.13390   0.46560   0.12350   0.01267  Uiso   1.00
C24    C     0.98450   0.51770   0.03460   0.01267  Uiso   1.00
C25    C     0.46420   0.51320   0.19690   0.01267  Uiso   1.00
C26    C     0.52510   0.52870   0.14180   0.01267  Uiso   1.00
C27    C     0.39470   0.41450   0.11710   0.01267  Uiso   1.00
C28    C     0.51950   0.45190   0.02050   0.01267  Uiso   1.00
C29    C     0.47110   0.34210   0.32950   0.01267  Uiso   1.00
C30    C     0.53170   0.38050   0.38260   0.01267  Uiso   1.00
C31    C     0.38190   0.47300   0.37120   0.01267  Uiso   1.00
C32    C     0.50960   0.53030   0.46690   0.01267  Uiso   1.00
C33    C     0.87140   0.60620   0.62350   0.01267  Uiso   1.00
C34    C     0.95950   0.55700   0.59900   0.01267  Uiso   1.00
C35    C     0.93500   0.50340   0.70330   0.01267  Uiso   1.00
C36    C     0.09140   0.41840   0.64690   0.01267  Uiso   1.00
C37    C     0.20030   0.47630   0.64500   0.01267  Uiso   1.00
C38    C     0.22500   0.53690   0.76960   0.01267  Uiso   1.00
C39    C     0.26630   0.13380   0.20140   0.01267  Uiso   1.00
C40    C     0.28680   0.16090   0.30990   0.01267  Uiso   1.00
C41    C     0.57430   0.18960   0.15540   0.01267  Uiso   1.00
C42    C     0.50600   0.15290   0.10340   0.01267  Uiso   1.00
C43    C     0.63390   0.03440   0.12350   0.01267  Uiso   1.00
C44    C     0.48450   0.98230   0.03460   0.01267  Uiso   1.00
C45    C     0.96420   0.98680   0.19690   0.01267  Uiso   1.00
C46    C     0.02510   0.97130   0.14180   0.01267  Uiso   1.00
C47    C     0.89470   0.08550   0.11710   0.01267  Uiso   1.00
C48    C     0.01950   0.04810   0.02050   0.01267  Uiso   1.00
C49    C     0.97110   0.15790   0.32950   0.01267  Uiso   1.00
C50    C     0.03170   0.11950   0.38260   0.01267  Uiso   1.00
C51    C     0.88190   0.02700   0.37120   0.01267  Uiso   1.00
C52    C     0.00960   0.96970   0.46690   0.01267  Uiso   1.00
C53    C     0.37140   0.89380   0.62350   0.01267  Uiso   1.00
C54    C     0.45950   0.94300   0.59900   0.01267  Uiso   1.00
C55    C     0.43500   0.99660   0.70330   0.01267  Uiso   1.00
C56    C     0.59140   0.08160   0.64690   0.01267  Uiso   1.00
C57    C     0.70030   0.02370   0.64500   0.01267  Uiso   1.00
C58    C     0.72500   0.96310   0.76960   0.01267  Uiso   1.00
C59    C     0.76630   0.36620   0.20140   0.01267  Uiso   1.00
C60    C     0.78680   0.33910   0.30990   0.01267  Uiso   1.00
C61    C     0.92570   0.68960   0.84460   0.01267  Uiso   1.00
C62    C     0.99400   0.65290   0.89660   0.01267  Uiso   1.00
C63    C     0.86610   0.53440   0.87650   0.01267  Uiso   1.00
C64    C     0.01550   0.48230   0.96540   0.01267  Uiso   1.00
C65    C     0.53580   0.48680   0.80310   0.01267  Uiso   1.00
C66    C     0.47490   0.47130   0.85820   0.01267  Uiso   1.00
C67    C     0.60530   0.58550   0.88290   0.01267  Uiso   1.00
C68    C     0.48050   0.54810   0.97950   0.01267  Uiso   1.00
C69    C     0.52890   0.65790   0.67050   0.01267  Uiso   1.00
C70    C     0.46830   0.61950   0.61740   0.01267  Uiso   1.00
C71    C     0.61810   0.52700   0.62880   0.01267  Uiso   1.00
C72    C     0.49040   0.46970   0.53310   0.01267  Uiso   1.00
C73    C     0.12860   0.39380   0.37650   0.01267  Uiso   1.00
C74    C     0.04050   0.44300   0.40100   0.01267  Uiso   1.00
C75    C     0.06500   0.49660   0.29670   0.01267  Uiso   1.00
C76    C     0.90860   0.58160   0.35310   0.01267  Uiso   1.00
C77    C     0.79970   0.52370   0.35500   0.01267  Uiso   1.00
C78    C     0.77500   0.46310   0.23040   0.01267  Uiso   1.00
C79    C     0.73370   0.86620   0.79860   0.01267  Uiso   1.00
C80    C     0.71320   0.83910   0.69010   0.01267  Uiso   1.00
N1     N     0.34600   0.88800   0.83270   0.01267  Uiso   1.00
N2     N     0.45770   0.94540   0.91440   0.01267  Uiso   1.00
N3     N     0.11940   0.94230   0.81810   0.01267  Uiso   1.00
N4     N     0.01920   0.96370   0.90840   0.01267  Uiso   1.00
N5     N     0.12410   0.90040   0.67730   0.01267  Uiso   1.00
N6     N     0.02430   0.96610   0.59180   0.01267  Uiso   1.00
N7     N     0.64360   0.07230   0.31010   0.01267  Uiso   1.00
N8     N     0.50110   0.99120   0.34990   0.01267  Uiso   1.00
N9     N     0.28720   0.05560   0.30020   0.01267  Uiso   1.00
N10    N     0.22720   0.71280   0.74890   0.01267  Uiso   1.00
N11    N     0.15400   0.38800   0.16730   0.01267  Uiso   1.00
N12    N     0.04230   0.44540   0.08560   0.01267  Uiso   1.00
N13    N     0.38060   0.44230   0.18190   0.01267  Uiso   1.00
N14    N     0.48080   0.46370   0.09160   0.01267  Uiso   1.00
N15    N     0.37590   0.40040   0.32270   0.01267  Uiso   1.00
N16    N     0.47570   0.46610   0.40820   0.01267  Uiso   1.00
N17    N     0.85640   0.57230   0.68990   0.01267  Uiso   1.00
N18    N     0.99890   0.49120   0.65010   0.01267  Uiso   1.00
N19    N     0.21280   0.55560   0.69980   0.01267  Uiso   1.00
N20    N     0.27280   0.21280   0.25110   0.01267  Uiso   1.00
N21    N     0.65400   0.11200   0.16730   0.01267  Uiso   1.00
N22    N     0.54230   0.05460   0.08560   0.01267  Uiso   1.00
N23    N     0.88060   0.05770   0.18190   0.01267  Uiso   1.00
N24    N     0.98080   0.03630   0.09160   0.01267  Uiso   1.00
N25    N     0.87590   0.09960   0.32270   0.01267  Uiso   1.00
N26    N     0.97570   0.03390   0.40820   0.01267  Uiso   1.00
N27    N     0.35640   0.92770   0.68990   0.01267  Uiso   1.00
N28    N     0.49890   0.00880   0.65010   0.01267  Uiso   1.00
N29    N     0.71280   0.94440   0.69980   0.01267  Uiso   1.00
N30    N     0.77280   0.28720   0.25110   0.01267  Uiso   1.00
N31    N     0.84600   0.61200   0.83270   0.01267  Uiso   1.00
N32    N     0.95770   0.55460   0.91440   0.01267  Uiso   1.00
N33    N     0.61940   0.55770   0.81810   0.01267  Uiso   1.00
N34    N     0.51920   0.53630   0.90840   0.01267  Uiso   1.00
N35    N     0.62410   0.59960   0.67730   0.01267  Uiso   1.00
N36    N     0.52430   0.53390   0.59180   0.01267  Uiso   1.00
N37    N     0.14360   0.42770   0.31010   0.01267  Uiso   1.00
N38    N     0.00110   0.50880   0.34990   0.01267  Uiso   1.00
N39    N     0.78720   0.44440   0.30020   0.01267  Uiso   1.00
N40    N     0.72720   0.78720   0.74890   0.01267  Uiso   1.00
Cl1    Cl    0.74570   0.74680   0.04530   0.01267  Uiso   1.00
O1     O     0.74220   0.63720   0.04430   0.01267  Uiso   1.00
O2     O     0.73660   0.79000   0.98040   0.01267  Uiso   1.00
O3     O     0.65190   0.77140   0.07780   0.01267  Uiso   1.00
O4     O     0.83810   0.78530   0.07700   0.01267  Uiso   1.00
Cl2    Cl    0.70180   0.79050   0.46647   0.01267  Uiso   1.00
O5     O     0.59370   0.79420   0.45710   0.01267  Uiso   1.00
O6     O     0.73800   0.80170   0.40200   0.01267  Uiso   1.00
O7     O     0.74260   0.87630   0.50160   0.01267  Uiso   1.00
O8     O     0.73250   0.69510   0.48930   0.01267  Uiso   1.00
Cl3    Cl    0.75430   0.24680   0.95470   0.01267  Uiso   1.00
O9     O     0.75780   0.13720   0.95570   0.01267  Uiso   1.00
O10    O     0.76340   0.29000   0.01960   0.01267  Uiso   1.00
O11    O     0.84810   0.27140   0.92220   0.01267  Uiso   1.00
O12    O     0.66190   0.28530   0.92300   0.01267  Uiso   1.00
Cl4    Cl    0.79820   0.29050   0.53353   0.01267  Uiso   1.00
O13    O     0.90630   0.29420   0.54290   0.01267  Uiso   1.00
O14    O     0.76200   0.30170   0.59800   0.01267  Uiso   1.00
O15    O     0.75740   0.37630   0.49840   0.01267  Uiso   1.00
O16    O     0.76750   0.19510   0.51070   0.01267  Uiso   1.00
Cl5    Cl    0.25430   0.25320   0.95470   0.01267  Uiso   1.00
O17    O     0.25780   0.36280   0.95570   0.01267  Uiso   1.00
O18    O     0.26340   0.21000   0.01960   0.01267  Uiso   1.00
O19    O     0.34810   0.22860   0.92220   0.01267  Uiso   1.00
O20    O     0.16190   0.21470   0.92300   0.01267  Uiso   1.00
Cl6    Cl    0.29820   0.20950   0.53353   0.01267  Uiso   1.00
O21    O     0.40630   0.20580   0.54290   0.01267  Uiso   1.00
O22    O     0.26200   0.19830   0.59800   0.01267  Uiso   1.00
O23    O     0.25740   0.12370   0.49840   0.01267  Uiso   1.00
O24    O     0.26750   0.30490   0.51070   0.01267  Uiso   1.00
Cl7    Cl    0.24570   0.75320   0.04530   0.01267  Uiso   1.00
O25    O     0.24220   0.86280   0.04430   0.01267  Uiso   1.00
O26    O     0.23660   0.71000   0.98040   0.01267  Uiso   1.00
O27    O     0.15190   0.72860   0.07780   0.01267  Uiso   1.00
O28    O     0.33810   0.71470   0.07700   0.01267  Uiso   1.00
Cl8    Cl    0.20180   0.70950   0.46647   0.01267  Uiso   1.00
O29    O     0.09370   0.70580   0.45710   0.01267  Uiso   1.00
O30    O     0.23800   0.69830   0.40200   0.01267  Uiso   1.00
O31    O     0.24260   0.62370   0.50160   0.01267  Uiso   1.00
O32    O     0.23250   0.80490   0.48930   0.01267  Uiso   1.00
