data_image0
_cell_length_a       17.413
_cell_length_b       24.924
_cell_length_c       22.279
_cell_angle_alpha    90
_cell_angle_beta     90
_cell_angle_gamma    90

_symmetry_space_group_name_H-M    "P 1"
_symmetry_int_tables_number       1

loop_
  _symmetry_equiv_pos_as_xyz
  'x, y, z'

loop_
  _atom_site_label
  _atom_site_occupancy
  _atom_site_fract_x
  _atom_site_fract_y
  _atom_site_fract_z
  _atom_site_thermal_displace_type
  _atom_site_B_iso_or_equiv
  _atom_site_type_symbol
  C1       1.0000 0.00340  0.51114  0.10464  Biso   1.000  C
  C2       1.0000 0.93325  0.53048  0.08572  Biso   1.000  C
  H1       1.0000 0.88880  0.51770  0.10390  Biso   1.000  H
  C3       1.0000 0.92691  0.56721  0.04183  Biso   1.000  C
  C4       1.0000 0.99225  0.58809  0.01611  Biso   1.000  C
  H2       1.0000 0.98800  0.61450  0.98680  Biso   1.000  H
  C5       1.0000 0.06417  0.57026  0.03338  Biso   1.000  C
  C6       1.0000 0.06982  0.53171  0.07772  Biso   1.000  C
  H3       1.0000 0.11780  0.51940  0.08970  Biso   1.000  H
  C7       1.0000 0.01042  0.47002  0.15288  Biso   1.000  C
  C8       1.0000 0.06081  0.42727  0.14761  Biso   1.000  C
  H4       1.0000 0.09130  0.42460  0.11340  Biso   1.000  H
  C9       1.0000 0.06721  0.38810  0.19214  Biso   1.000  C
  H5       1.0000 0.10190  0.36000  0.18790  Biso   1.000  H
  C10      1.0000 0.02134  0.39168  0.24253  Biso   1.000  C
  C11      1.0000 0.96908  0.43574  0.24947  Biso   1.000  C
  H6       1.0000 0.94010  0.43980  0.28420  Biso   1.000  H
  C12      1.0000 0.96332  0.47236  0.20215  Biso   1.000  C
  H7       1.0000 0.92630  0.49920  0.20410  Biso   1.000  H
  C13      1.0000 0.02732  0.35069  0.29318  Biso   1.000  C
  C14      1.0000 0.85003  0.58582  0.01945  Biso   1.000  C
  C15      1.0000 0.78769  0.55139  0.02071  Biso   1.000  C
  H8       1.0000 0.79370  0.51640  0.03450  Biso   1.000  H
  C16      1.0000 0.71542  0.56909  0.00124  Biso   1.000  C
  H9       1.0000 0.67370  0.54580  0.00300  Biso   1.000  H
  C17      1.0000 0.70513  0.62058  0.97940  Biso   1.000  C
  C18      1.0000 0.76708  0.65471  0.97856  Biso   1.000  C
  H10      1.0000 0.76100  0.68940  0.96410  Biso   1.000  H
  C19      1.0000 0.83734  0.63852  0.99861  Biso   1.000  C
  H11      1.0000 0.87790  0.66280  0.99850  Biso   1.000  H
  C20      1.0000 0.62655  0.63914  0.95890  Biso   1.000  C
  C21      1.0000 0.13611  0.59122  0.00367  Biso   1.000  C
  C22      1.0000 0.13598  0.61471  0.94745  Biso   1.000  C
  H12      1.0000 0.09050  0.61530  0.92560  Biso   1.000  H
  C23      1.0000 0.20009  0.63693  0.92308  Biso   1.000  C
  H13      1.0000 0.19740  0.65180  0.88480  Biso   1.000  H
  C24      1.0000 0.26886  0.63803  0.95360  Biso   1.000  C
  C25      1.0000 0.27056  0.61412  0.01032  Biso   1.000  C
  H14      1.0000 0.31660  0.61240  0.03140  Biso   1.000  H
  C26      1.0000 0.20506  0.59319  0.03519  Biso   1.000  C
  H15      1.0000 0.20680  0.57990  0.07420  Biso   1.000  H
  C27      1.0000 0.33791  0.66379  0.92586  Biso   1.000  C
  Co1      1.0000 0.99745  0.32186  0.42149  Biso   1.000  Co
  O1       1.0000 0.06380  0.30960  0.28024  Biso   1.000  O
  O2       1.0000 0.99614  0.36300  0.34122  Biso   1.000  O
  O3       1.0000 0.57132  0.61230  0.96910  Biso   1.000  O
  O4       1.0000 0.62218  0.68078  0.93260  Biso   1.000  O
  O5       1.0000 0.32932  0.69167  0.88178  Biso   1.000  O
  O6       1.0000 0.40187  0.65575  0.95347  Biso   1.000  O
  C28      1.0000 0.49660  0.48886  0.60464  Biso   1.000  C
  C29      1.0000 0.56675  0.46952  0.58572  Biso   1.000  C
  H16      1.0000 0.61120  0.48230  0.60390  Biso   1.000  H
  C30      1.0000 0.57309  0.43279  0.54183  Biso   1.000  C
  C31      1.0000 0.50775  0.41191  0.51611  Biso   1.000  C
  H17      1.0000 0.51200  0.38550  0.48680  Biso   1.000  H
  C32      1.0000 0.43583  0.42974  0.53338  Biso   1.000  C
  C33      1.0000 0.43018  0.46829  0.57772  Biso   1.000  C
  H18      1.0000 0.38220  0.48060  0.58970  Biso   1.000  H
  C34      1.0000 0.48958  0.52998  0.65288  Biso   1.000  C
  C35      1.0000 0.43919  0.57273  0.64761  Biso   1.000  C
  H19      1.0000 0.40870  0.57540  0.61340  Biso   1.000  H
  C36      1.0000 0.43279  0.61190  0.69214  Biso   1.000  C
  H20      1.0000 0.39810  0.64000  0.68790  Biso   1.000  H
  C37      1.0000 0.47866  0.60832  0.74253  Biso   1.000  C
  C38      1.0000 0.53092  0.56426  0.74947  Biso   1.000  C
  H21      1.0000 0.55990  0.56020  0.78420  Biso   1.000  H
  C39      1.0000 0.53668  0.52764  0.70215  Biso   1.000  C
  H22      1.0000 0.57370  0.50080  0.70410  Biso   1.000  H
  C40      1.0000 0.47268  0.64931  0.79318  Biso   1.000  C
  C41      1.0000 0.64997  0.41418  0.51945  Biso   1.000  C
  C42      1.0000 0.71231  0.44861  0.52071  Biso   1.000  C
  H23      1.0000 0.70630  0.48360  0.53450  Biso   1.000  H
  C43      1.0000 0.78458  0.43091  0.50124  Biso   1.000  C
  H24      1.0000 0.82630  0.45420  0.50300  Biso   1.000  H
  C44      1.0000 0.79487  0.37942  0.47940  Biso   1.000  C
  C45      1.0000 0.73292  0.34529  0.47856  Biso   1.000  C
  H25      1.0000 0.73900  0.31060  0.46410  Biso   1.000  H
  C46      1.0000 0.66266  0.36148  0.49861  Biso   1.000  C
  H26      1.0000 0.62210  0.33720  0.49850  Biso   1.000  H
  C47      1.0000 0.87345  0.36086  0.45890  Biso   1.000  C
  C48      1.0000 0.36389  0.40878  0.50367  Biso   1.000  C
  C49      1.0000 0.36402  0.38529  0.44745  Biso   1.000  C
  H27      1.0000 0.40950  0.38470  0.42560  Biso   1.000  H
  C50      1.0000 0.29991  0.36307  0.42308  Biso   1.000  C
  H28      1.0000 0.30260  0.34820  0.38480  Biso   1.000  H
  C51      1.0000 0.23114  0.36197  0.45360  Biso   1.000  C
  C52      1.0000 0.22944  0.38588  0.51032  Biso   1.000  C
  H29      1.0000 0.18340  0.38760  0.53140  Biso   1.000  H
  C53      1.0000 0.29494  0.40681  0.53519  Biso   1.000  C
  H30      1.0000 0.29320  0.42010  0.57420  Biso   1.000  H
  C54      1.0000 0.16209  0.33621  0.42586  Biso   1.000  C
  Co2      1.0000 0.50255  0.67814  0.92149  Biso   1.000  Co
  O7       1.0000 0.43620  0.69040  0.78024  Biso   1.000  O
  O8       1.0000 0.50386  0.63700  0.84122  Biso   1.000  O
  O9       1.0000 0.92868  0.38770  0.46910  Biso   1.000  O
  O10      1.0000 0.87782  0.31922  0.43260  Biso   1.000  O
  O11      1.0000 0.17068  0.30833  0.38178  Biso   1.000  O
  O12      1.0000 0.09813  0.34425  0.45347  Biso   1.000  O
  C55      1.0000 0.00340  0.98886  0.10464  Biso   1.000  C
  C56      1.0000 0.93325  0.96952  0.08572  Biso   1.000  C
  H31      1.0000 0.88880  0.98230  0.10390  Biso   1.000  H
  C57      1.0000 0.92691  0.93279  0.04183  Biso   1.000  C
  C58      1.0000 0.99225  0.91191  0.01611  Biso   1.000  C
  H32      1.0000 0.98800  0.88550  0.98680  Biso   1.000  H
  C59      1.0000 0.06417  0.92974  0.03338  Biso   1.000  C
  C60      1.0000 0.06982  0.96829  0.07772  Biso   1.000  C
  H33      1.0000 0.11780  0.98060  0.08970  Biso   1.000  H
  C61      1.0000 0.01042  0.02998  0.15288  Biso   1.000  C
  C62      1.0000 0.06081  0.07273  0.14761  Biso   1.000  C
  H34      1.0000 0.09130  0.07540  0.11340  Biso   1.000  H
  C63      1.0000 0.06721  0.11190  0.19214  Biso   1.000  C
  H35      1.0000 0.10190  0.14000  0.18790  Biso   1.000  H
  C64      1.0000 0.02134  0.10832  0.24253  Biso   1.000  C
  C65      1.0000 0.96908  0.06426  0.24947  Biso   1.000  C
  H36      1.0000 0.94010  0.06020  0.28420  Biso   1.000  H
  C66      1.0000 0.96332  0.02764  0.20215  Biso   1.000  C
  H37      1.0000 0.92630  0.00080  0.20410  Biso   1.000  H
  C67      1.0000 0.02732  0.14931  0.29318  Biso   1.000  C
  C68      1.0000 0.85003  0.91418  0.01945  Biso   1.000  C
  C69      1.0000 0.78769  0.94861  0.02071  Biso   1.000  C
  H38      1.0000 0.79370  0.98360  0.03450  Biso   1.000  H
  C70      1.0000 0.71542  0.93091  0.00124  Biso   1.000  C
  H39      1.0000 0.67370  0.95420  0.00300  Biso   1.000  H
  C71      1.0000 0.70513  0.87942  0.97940  Biso   1.000  C
  C72      1.0000 0.76708  0.84529  0.97856  Biso   1.000  C
  H40      1.0000 0.76100  0.81060  0.96410  Biso   1.000  H
  C73      1.0000 0.83734  0.86148  0.99861  Biso   1.000  C
  H41      1.0000 0.87790  0.83720  0.99850  Biso   1.000  H
  C74      1.0000 0.62655  0.86086  0.95890  Biso   1.000  C
  C75      1.0000 0.13611  0.90878  0.00367  Biso   1.000  C
  C76      1.0000 0.13598  0.88529  0.94745  Biso   1.000  C
  H42      1.0000 0.09050  0.88470  0.92560  Biso   1.000  H
  C77      1.0000 0.20009  0.86307  0.92308  Biso   1.000  C
  H43      1.0000 0.19740  0.84820  0.88480  Biso   1.000  H
  C78      1.0000 0.26886  0.86197  0.95360  Biso   1.000  C
  C79      1.0000 0.27056  0.88588  0.01032  Biso   1.000  C
  H44      1.0000 0.31660  0.88760  0.03140  Biso   1.000  H
  C80      1.0000 0.20506  0.90681  0.03519  Biso   1.000  C
  H45      1.0000 0.20680  0.92010  0.07420  Biso   1.000  H
  C81      1.0000 0.33791  0.83621  0.92586  Biso   1.000  C
  Co3      1.0000 0.99745  0.17814  0.42149  Biso   1.000  Co
  O13      1.0000 0.06380  0.19040  0.28024  Biso   1.000  O
  O14      1.0000 0.99614  0.13700  0.34122  Biso   1.000  O
  O15      1.0000 0.57132  0.88770  0.96910  Biso   1.000  O
  O16      1.0000 0.62218  0.81922  0.93260  Biso   1.000  O
  O17      1.0000 0.32932  0.80833  0.88178  Biso   1.000  O
  O18      1.0000 0.40187  0.84425  0.95347  Biso   1.000  O
  C82      1.0000 0.49660  0.01114  0.60464  Biso   1.000  C
  C83      1.0000 0.56675  0.03048  0.58572  Biso   1.000  C
  H46      1.0000 0.61120  0.01770  0.60390  Biso   1.000  H
  C84      1.0000 0.57309  0.06721  0.54183  Biso   1.000  C
  C85      1.0000 0.50775  0.08809  0.51611  Biso   1.000  C
  H47      1.0000 0.51200  0.11450  0.48680  Biso   1.000  H
  C86      1.0000 0.43583  0.07026  0.53338  Biso   1.000  C
  C87      1.0000 0.43018  0.03171  0.57772  Biso   1.000  C
  H48      1.0000 0.38220  0.01940  0.58970  Biso   1.000  H
  C88      1.0000 0.48958  0.97002  0.65288  Biso   1.000  C
  C89      1.0000 0.43919  0.92727  0.64761  Biso   1.000  C
  H49      1.0000 0.40870  0.92460  0.61340  Biso   1.000  H
  C90      1.0000 0.43279  0.88810  0.69214  Biso   1.000  C
  H50      1.0000 0.39810  0.86000  0.68790  Biso   1.000  H
  C91      1.0000 0.47866  0.89168  0.74253  Biso   1.000  C
  C92      1.0000 0.53092  0.93574  0.74947  Biso   1.000  C
  H51      1.0000 0.55990  0.93980  0.78420  Biso   1.000  H
  C93      1.0000 0.53668  0.97236  0.70215  Biso   1.000  C
  H52      1.0000 0.57370  0.99920  0.70410  Biso   1.000  H
  C94      1.0000 0.47268  0.85069  0.79318  Biso   1.000  C
  C95      1.0000 0.64997  0.08582  0.51945  Biso   1.000  C
  C96      1.0000 0.71231  0.05139  0.52071  Biso   1.000  C
  H53      1.0000 0.70630  0.01640  0.53450  Biso   1.000  H
  C97      1.0000 0.78458  0.06909  0.50124  Biso   1.000  C
  H54      1.0000 0.82630  0.04580  0.50300  Biso   1.000  H
  C98      1.0000 0.79487  0.12058  0.47940  Biso   1.000  C
  C99      1.0000 0.73292  0.15471  0.47856  Biso   1.000  C
  H55      1.0000 0.73900  0.18940  0.46410  Biso   1.000  H
  C100     1.0000 0.66266  0.13852  0.49861  Biso   1.000  C
  H56      1.0000 0.62210  0.16280  0.49850  Biso   1.000  H
  C101     1.0000 0.87345  0.13914  0.45890  Biso   1.000  C
  C102     1.0000 0.36389  0.09122  0.50367  Biso   1.000  C
  C103     1.0000 0.36402  0.11471  0.44745  Biso   1.000  C
  H57      1.0000 0.40950  0.11530  0.42560  Biso   1.000  H
  C104     1.0000 0.29991  0.13693  0.42308  Biso   1.000  C
  H58      1.0000 0.30260  0.15180  0.38480  Biso   1.000  H
  C105     1.0000 0.23114  0.13803  0.45360  Biso   1.000  C
  C106     1.0000 0.22944  0.11412  0.51032  Biso   1.000  C
  H59      1.0000 0.18340  0.11240  0.53140  Biso   1.000  H
  C107     1.0000 0.29494  0.09319  0.53519  Biso   1.000  C
  H60      1.0000 0.29320  0.07990  0.57420  Biso   1.000  H
  C108     1.0000 0.16209  0.16379  0.42586  Biso   1.000  C
  Co4      1.0000 0.50255  0.82186  0.92149  Biso   1.000  Co
  O19      1.0000 0.43620  0.80960  0.78024  Biso   1.000  O
  O20      1.0000 0.50386  0.86300  0.84122  Biso   1.000  O
  O21      1.0000 0.92868  0.11230  0.46910  Biso   1.000  O
  O22      1.0000 0.87782  0.18078  0.43260  Biso   1.000  O
  O23      1.0000 0.17068  0.19167  0.38178  Biso   1.000  O
  O24      1.0000 0.09813  0.15575  0.45347  Biso   1.000  O
  Co5      1.0000 0.11314  0.25000  0.33366  Biso   1.000  Co
  O25      1.0000 0.01109  0.25000  0.38421  Biso   1.000  O
  Co6      1.0000 0.38686  0.75000  0.83366  Biso   1.000  Co
  O26      1.0000 0.48891  0.75000  0.88421  Biso   1.000  O
  C109     1.0000 0.99660  0.01114  0.89536  Biso   1.000  C
  C110     1.0000 0.06675  0.03048  0.91428  Biso   1.000  C
  H61      1.0000 0.11120  0.01770  0.89610  Biso   1.000  H
  C111     1.0000 0.07309  0.06721  0.95817  Biso   1.000  C
  C112     1.0000 0.00775  0.08809  0.98389  Biso   1.000  C
  H62      1.0000 0.01200  0.11450  0.01320  Biso   1.000  H
  C113     1.0000 0.93583  0.07026  0.96662  Biso   1.000  C
  C114     1.0000 0.93018  0.03171  0.92228  Biso   1.000  C
  H63      1.0000 0.88220  0.01940  0.91030  Biso   1.000  H
  C115     1.0000 0.98958  0.97002  0.84712  Biso   1.000  C
  C116     1.0000 0.93919  0.92727  0.85239  Biso   1.000  C
  H64      1.0000 0.90870  0.92460  0.88660  Biso   1.000  H
  C117     1.0000 0.93279  0.88810  0.80786  Biso   1.000  C
  H65      1.0000 0.89810  0.86000  0.81210  Biso   1.000  H
  C118     1.0000 0.97866  0.89168  0.75747  Biso   1.000  C
  C119     1.0000 0.03092  0.93574  0.75053  Biso   1.000  C
  H66      1.0000 0.05990  0.93980  0.71580  Biso   1.000  H
  C120     1.0000 0.03668  0.97236  0.79785  Biso   1.000  C
  H67      1.0000 0.07370  0.99920  0.79590  Biso   1.000  H
  C121     1.0000 0.97268  0.85069  0.70682  Biso   1.000  C
  C122     1.0000 0.14997  0.08582  0.98055  Biso   1.000  C
  C123     1.0000 0.21231  0.05139  0.97929  Biso   1.000  C
  H68      1.0000 0.20630  0.01640  0.96550  Biso   1.000  H
  C124     1.0000 0.28458  0.06909  0.99876  Biso   1.000  C
  H69      1.0000 0.32630  0.04580  0.99700  Biso   1.000  H
  C125     1.0000 0.29487  0.12058  0.02060  Biso   1.000  C
  C126     1.0000 0.23292  0.15471  0.02144  Biso   1.000  C
  H70      1.0000 0.23900  0.18940  0.03590  Biso   1.000  H
  C127     1.0000 0.16266  0.13852  0.00139  Biso   1.000  C
  H71      1.0000 0.12210  0.16280  0.00150  Biso   1.000  H
  C128     1.0000 0.37345  0.13914  0.04110  Biso   1.000  C
  C129     1.0000 0.86389  0.09122  0.99633  Biso   1.000  C
  C130     1.0000 0.86402  0.11471  0.05255  Biso   1.000  C
  H72      1.0000 0.90950  0.11530  0.07440  Biso   1.000  H
  C131     1.0000 0.79991  0.13693  0.07692  Biso   1.000  C
  H73      1.0000 0.80260  0.15180  0.11520  Biso   1.000  H
  C132     1.0000 0.73114  0.13803  0.04640  Biso   1.000  C
  C133     1.0000 0.72944  0.11412  0.98968  Biso   1.000  C
  H74      1.0000 0.68340  0.11240  0.96860  Biso   1.000  H
  C134     1.0000 0.79494  0.09319  0.96481  Biso   1.000  C
  H75      1.0000 0.79320  0.07990  0.92580  Biso   1.000  H
  C135     1.0000 0.66209  0.16379  0.07414  Biso   1.000  C
  Co7      1.0000 0.00255  0.82186  0.57851  Biso   1.000  Co
  O27      1.0000 0.93620  0.80960  0.71976  Biso   1.000  O
  O28      1.0000 0.00386  0.86300  0.65878  Biso   1.000  O
  O29      1.0000 0.42868  0.11230  0.03090  Biso   1.000  O
  O30      1.0000 0.37782  0.18078  0.06740  Biso   1.000  O
  O31      1.0000 0.67068  0.19167  0.11822  Biso   1.000  O
  O32      1.0000 0.59813  0.15575  0.04653  Biso   1.000  O
  C136     1.0000 0.50340  0.98886  0.39536  Biso   1.000  C
  C137     1.0000 0.43325  0.96952  0.41428  Biso   1.000  C
  H76      1.0000 0.38880  0.98230  0.39610  Biso   1.000  H
  C138     1.0000 0.42691  0.93279  0.45817  Biso   1.000  C
  C139     1.0000 0.49225  0.91191  0.48389  Biso   1.000  C
  H77      1.0000 0.48800  0.88550  0.51320  Biso   1.000  H
  C140     1.0000 0.56417  0.92974  0.46662  Biso   1.000  C
  C141     1.0000 0.56982  0.96829  0.42228  Biso   1.000  C
  H78      1.0000 0.61780  0.98060  0.41030  Biso   1.000  H
  C142     1.0000 0.51042  0.02998  0.34712  Biso   1.000  C
  C143     1.0000 0.56081  0.07273  0.35239  Biso   1.000  C
  H79      1.0000 0.59130  0.07540  0.38660  Biso   1.000  H
  C144     1.0000 0.56721  0.11190  0.30786  Biso   1.000  C
  H80      1.0000 0.60190  0.14000  0.31210  Biso   1.000  H
  C145     1.0000 0.52134  0.10832  0.25747  Biso   1.000  C
  C146     1.0000 0.46908  0.06426  0.25053  Biso   1.000  C
  H81      1.0000 0.44010  0.06020  0.21580  Biso   1.000  H
  C147     1.0000 0.46332  0.02764  0.29785  Biso   1.000  C
  H82      1.0000 0.42630  0.00080  0.29590  Biso   1.000  H
  C148     1.0000 0.52732  0.14931  0.20682  Biso   1.000  C
  C149     1.0000 0.35003  0.91418  0.48055  Biso   1.000  C
  C150     1.0000 0.28769  0.94861  0.47929  Biso   1.000  C
  H83      1.0000 0.29370  0.98360  0.46550  Biso   1.000  H
  C151     1.0000 0.21542  0.93091  0.49876  Biso   1.000  C
  H84      1.0000 0.17370  0.95420  0.49700  Biso   1.000  H
  C152     1.0000 0.20513  0.87942  0.52060  Biso   1.000  C
  C153     1.0000 0.26708  0.84529  0.52144  Biso   1.000  C
  H85      1.0000 0.26100  0.81060  0.53590  Biso   1.000  H
  C154     1.0000 0.33734  0.86148  0.50139  Biso   1.000  C
  H86      1.0000 0.37790  0.83720  0.50150  Biso   1.000  H
  C155     1.0000 0.12655  0.86086  0.54110  Biso   1.000  C
  C156     1.0000 0.63611  0.90878  0.49633  Biso   1.000  C
  C157     1.0000 0.63598  0.88529  0.55255  Biso   1.000  C
  H87      1.0000 0.59050  0.88470  0.57440  Biso   1.000  H
  C158     1.0000 0.70009  0.86307  0.57692  Biso   1.000  C
  H88      1.0000 0.69740  0.84820  0.61520  Biso   1.000  H
  C159     1.0000 0.76886  0.86197  0.54640  Biso   1.000  C
  C160     1.0000 0.77056  0.88588  0.48968  Biso   1.000  C
  H89      1.0000 0.81660  0.88760  0.46860  Biso   1.000  H
  C161     1.0000 0.70506  0.90681  0.46481  Biso   1.000  C
  H90      1.0000 0.70680  0.92010  0.42580  Biso   1.000  H
  C162     1.0000 0.83791  0.83621  0.57414  Biso   1.000  C
  Co8      1.0000 0.49745  0.17814  0.07851  Biso   1.000  Co
  O33      1.0000 0.56380  0.19040  0.21976  Biso   1.000  O
  O34      1.0000 0.49614  0.13700  0.15878  Biso   1.000  O
  O35      1.0000 0.07132  0.88770  0.53090  Biso   1.000  O
  O36      1.0000 0.12218  0.81922  0.56740  Biso   1.000  O
  O37      1.0000 0.82932  0.80833  0.61822  Biso   1.000  O
  O38      1.0000 0.90187  0.84425  0.54653  Biso   1.000  O
  C163     1.0000 0.99660  0.48886  0.89536  Biso   1.000  C
  C164     1.0000 0.06675  0.46952  0.91428  Biso   1.000  C
  H91      1.0000 0.11120  0.48230  0.89610  Biso   1.000  H
  C165     1.0000 0.07309  0.43279  0.95817  Biso   1.000  C
  C166     1.0000 0.00775  0.41191  0.98389  Biso   1.000  C
  H92      1.0000 0.01200  0.38550  0.01320  Biso   1.000  H
  C167     1.0000 0.93583  0.42974  0.96662  Biso   1.000  C
  C168     1.0000 0.93018  0.46829  0.92228  Biso   1.000  C
  H93      1.0000 0.88220  0.48060  0.91030  Biso   1.000  H
  C169     1.0000 0.98958  0.52998  0.84712  Biso   1.000  C
  C170     1.0000 0.93919  0.57273  0.85239  Biso   1.000  C
  H94      1.0000 0.90870  0.57540  0.88660  Biso   1.000  H
  C171     1.0000 0.93279  0.61190  0.80786  Biso   1.000  C
  H95      1.0000 0.89810  0.64000  0.81210  Biso   1.000  H
  C172     1.0000 0.97866  0.60832  0.75747  Biso   1.000  C
  C173     1.0000 0.03092  0.56426  0.75053  Biso   1.000  C
  H96      1.0000 0.05990  0.56020  0.71580  Biso   1.000  H
  C174     1.0000 0.03668  0.52764  0.79785  Biso   1.000  C
  H97      1.0000 0.07370  0.50080  0.79590  Biso   1.000  H
  C175     1.0000 0.97268  0.64931  0.70682  Biso   1.000  C
  C176     1.0000 0.14997  0.41418  0.98055  Biso   1.000  C
  C177     1.0000 0.21231  0.44861  0.97929  Biso   1.000  C
  H98      1.0000 0.20630  0.48360  0.96550  Biso   1.000  H
  C178     1.0000 0.28458  0.43091  0.99876  Biso   1.000  C
  H99      1.0000 0.32630  0.45420  0.99700  Biso   1.000  H
  C179     1.0000 0.29487  0.37942  0.02060  Biso   1.000  C
  C180     1.0000 0.23292  0.34529  0.02144  Biso   1.000  C
  H100     1.0000 0.23900  0.31060  0.03590  Biso   1.000  H
  C181     1.0000 0.16266  0.36148  0.00139  Biso   1.000  C
  H101     1.0000 0.12210  0.33720  0.00150  Biso   1.000  H
  C182     1.0000 0.37345  0.36086  0.04110  Biso   1.000  C
  C183     1.0000 0.86389  0.40878  0.99633  Biso   1.000  C
  C184     1.0000 0.86402  0.38529  0.05255  Biso   1.000  C
  H102     1.0000 0.90950  0.38470  0.07440  Biso   1.000  H
  C185     1.0000 0.79991  0.36307  0.07692  Biso   1.000  C
  H103     1.0000 0.80260  0.34820  0.11520  Biso   1.000  H
  C186     1.0000 0.73114  0.36197  0.04640  Biso   1.000  C
  C187     1.0000 0.72944  0.38588  0.98968  Biso   1.000  C
  H104     1.0000 0.68340  0.38760  0.96860  Biso   1.000  H
  C188     1.0000 0.79494  0.40681  0.96481  Biso   1.000  C
  H105     1.0000 0.79320  0.42010  0.92580  Biso   1.000  H
  C189     1.0000 0.66209  0.33621  0.07414  Biso   1.000  C
  Co9      1.0000 0.00255  0.67814  0.57851  Biso   1.000  Co
  O39      1.0000 0.93620  0.69040  0.71976  Biso   1.000  O
  O40      1.0000 0.00386  0.63700  0.65878  Biso   1.000  O
  O41      1.0000 0.42868  0.38770  0.03090  Biso   1.000  O
  O42      1.0000 0.37782  0.31922  0.06740  Biso   1.000  O
  O43      1.0000 0.67068  0.30833  0.11822  Biso   1.000  O
  O44      1.0000 0.59813  0.34425  0.04653  Biso   1.000  O
  C190     1.0000 0.50340  0.51114  0.39536  Biso   1.000  C
  C191     1.0000 0.43325  0.53048  0.41428  Biso   1.000  C
  H106     1.0000 0.38880  0.51770  0.39610  Biso   1.000  H
  C192     1.0000 0.42691  0.56721  0.45817  Biso   1.000  C
  C193     1.0000 0.49225  0.58809  0.48389  Biso   1.000  C
  H107     1.0000 0.48800  0.61450  0.51320  Biso   1.000  H
  C194     1.0000 0.56417  0.57026  0.46662  Biso   1.000  C
  C195     1.0000 0.56982  0.53171  0.42228  Biso   1.000  C
  H108     1.0000 0.61780  0.51940  0.41030  Biso   1.000  H
  C196     1.0000 0.51042  0.47002  0.34712  Biso   1.000  C
  C197     1.0000 0.56081  0.42727  0.35239  Biso   1.000  C
  H109     1.0000 0.59130  0.42460  0.38660  Biso   1.000  H
  C198     1.0000 0.56721  0.38810  0.30786  Biso   1.000  C
  H110     1.0000 0.60190  0.36000  0.31210  Biso   1.000  H
  C199     1.0000 0.52134  0.39168  0.25747  Biso   1.000  C
  C200     1.0000 0.46908  0.43574  0.25053  Biso   1.000  C
  H111     1.0000 0.44010  0.43980  0.21580  Biso   1.000  H
  C201     1.0000 0.46332  0.47236  0.29785  Biso   1.000  C
  H112     1.0000 0.42630  0.49920  0.29590  Biso   1.000  H
  C202     1.0000 0.52732  0.35069  0.20682  Biso   1.000  C
  C203     1.0000 0.35003  0.58582  0.48055  Biso   1.000  C
  C204     1.0000 0.28769  0.55139  0.47929  Biso   1.000  C
  H113     1.0000 0.29370  0.51640  0.46550  Biso   1.000  H
  C205     1.0000 0.21542  0.56909  0.49876  Biso   1.000  C
  H114     1.0000 0.17370  0.54580  0.49700  Biso   1.000  H
  C206     1.0000 0.20513  0.62058  0.52060  Biso   1.000  C
  C207     1.0000 0.26708  0.65471  0.52144  Biso   1.000  C
  H115     1.0000 0.26100  0.68940  0.53590  Biso   1.000  H
  C208     1.0000 0.33734  0.63852  0.50139  Biso   1.000  C
  H116     1.0000 0.37790  0.66280  0.50150  Biso   1.000  H
  C209     1.0000 0.12655  0.63914  0.54110  Biso   1.000  C
  C210     1.0000 0.63611  0.59122  0.49633  Biso   1.000  C
  C211     1.0000 0.63598  0.61471  0.55255  Biso   1.000  C
  H117     1.0000 0.59050  0.61530  0.57440  Biso   1.000  H
  C212     1.0000 0.70009  0.63693  0.57692  Biso   1.000  C
  H118     1.0000 0.69740  0.65180  0.61520  Biso   1.000  H
  C213     1.0000 0.76886  0.63803  0.54640  Biso   1.000  C
  C214     1.0000 0.77056  0.61412  0.48968  Biso   1.000  C
  H119     1.0000 0.81660  0.61240  0.46860  Biso   1.000  H
  C215     1.0000 0.70506  0.59319  0.46481  Biso   1.000  C
  H120     1.0000 0.70680  0.57990  0.42580  Biso   1.000  H
  C216     1.0000 0.83791  0.66379  0.57414  Biso   1.000  C
  Co10     1.0000 0.49745  0.32186  0.07851  Biso   1.000  Co
  O45      1.0000 0.56380  0.30960  0.21976  Biso   1.000  O
  O46      1.0000 0.49614  0.36300  0.15878  Biso   1.000  O
  O47      1.0000 0.07132  0.61230  0.53090  Biso   1.000  O
  O48      1.0000 0.12218  0.68078  0.56740  Biso   1.000  O
  O49      1.0000 0.82932  0.69167  0.61822  Biso   1.000  O
  O50      1.0000 0.90187  0.65575  0.54653  Biso   1.000  O
  Co11     1.0000 0.88686  0.75000  0.66634  Biso   1.000  Co
  O51      1.0000 0.98891  0.75000  0.61579  Biso   1.000  O
  Co12     1.0000 0.61314  0.25000  0.16634  Biso   1.000  Co
  O52      1.0000 0.51109  0.25000  0.11579  Biso   1.000  O
