data_image0
_cell_length_a       11.3594
_cell_length_b       9.8177
_cell_length_c       18.3724
_cell_angle_alpha    90
_cell_angle_beta     126.931
_cell_angle_gamma    90

_symmetry_space_group_name_H-M    "P 1"
_symmetry_int_tables_number       1

loop_
  _symmetry_equiv_pos_as_xyz
  'x, y, z'

loop_
  _atom_site_label
  _atom_site_occupancy
  _atom_site_fract_x
  _atom_site_fract_y
  _atom_site_fract_z
  _atom_site_thermal_displace_type
  _atom_site_B_iso_or_equiv
  _atom_site_type_symbol
  Fe1      1.0000 0.37769  0.08495  0.13311  Biso   1.000  Fe
  Fe2      1.0000 0.42585  0.10227  0.68692  Biso   1.000  Fe
  O1       1.0000 0.43470  0.20720  0.24557  Biso   1.000  O
  O2       1.0000 0.55070  0.07030  0.36766  Biso   1.000  O
  O3       1.0000 0.59210  0.00320  0.22000  Biso   1.000  O
  O4       1.0000 0.67940  0.00300  0.13866  Biso   1.000  O
  O5       1.0000 0.45440  0.26300  0.10685  Biso   1.000  O
  O6       1.0000 0.48130  0.21120  0.99907  Biso   1.000  O
  O7       1.0000 0.34610  0.92130  0.19641  Biso   1.000  O
  O8       1.0000 0.10220  0.89850  0.12094  Biso   1.000  O
  O9       1.0000 0.33730  0.97540  0.02366  Biso   1.000  O
  O10      1.0000 0.11490  0.89020  0.96761  Biso   1.000  O
  O11      1.0000 0.15890  0.15780  0.05939  Biso   1.000  O
  O12      1.0000 0.19960  0.38170  0.09078  Biso   1.000  O
  C1       1.0000 0.49490  0.17980  0.32880  Biso   1.000  C
  H1       1.0000 0.49700  0.25090  0.36460  Biso   1.000  H
  C2       1.0000 0.69520  0.99110  0.21130  Biso   1.000  C
  H2       1.0000 0.79130  0.97140  0.26460  Biso   1.000  H
  C3       1.0000 0.47310  0.29290  0.04680  Biso   1.000  C
  H3       1.0000 0.48140  0.38680  0.03810  Biso   1.000  H
  C4       1.0000 0.23260  0.87430  0.18640  Biso   1.000  C
  H4       1.0000 0.24870  0.81570  0.23270  Biso   1.000  H
  C5       1.0000 0.22510  0.89760  0.97010  Biso   1.000  C
  H5       1.0000 0.22830  0.84130  0.92930  Biso   1.000  H
  C6       1.0000 0.11680  0.28310  0.04950  Biso   1.000  C
  H6       1.0000 0.01440  0.30110  0.00730  Biso   1.000  H
  Fe3      1.0000 0.62231  0.58495  0.36689  Biso   1.000  Fe
  Fe4      1.0000 0.57415  0.60227  0.81308  Biso   1.000  Fe
  O13      1.0000 0.56530  0.70720  0.25443  Biso   1.000  O
  O14      1.0000 0.44930  0.57030  0.13234  Biso   1.000  O
  O15      1.0000 0.40790  0.50320  0.28000  Biso   1.000  O
  O16      1.0000 0.32060  0.50300  0.36134  Biso   1.000  O
  O17      1.0000 0.54560  0.76300  0.39315  Biso   1.000  O
  O18      1.0000 0.51870  0.71120  0.50093  Biso   1.000  O
  O19      1.0000 0.65390  0.42130  0.30359  Biso   1.000  O
  O20      1.0000 0.89780  0.39850  0.37906  Biso   1.000  O
  O21      1.0000 0.66270  0.47540  0.47634  Biso   1.000  O
  O22      1.0000 0.88510  0.39020  0.53239  Biso   1.000  O
  O23      1.0000 0.84110  0.65780  0.44061  Biso   1.000  O
  O24      1.0000 0.80040  0.88170  0.40922  Biso   1.000  O
  C7       1.0000 0.50510  0.67980  0.17120  Biso   1.000  C
  H7       1.0000 0.50300  0.75090  0.13540  Biso   1.000  H
  C8       1.0000 0.30480  0.49110  0.28870  Biso   1.000  C
  H8       1.0000 0.20870  0.47140  0.23540  Biso   1.000  H
  C9       1.0000 0.52690  0.79290  0.45320  Biso   1.000  C
  H9       1.0000 0.51860  0.88680  0.46190  Biso   1.000  H
  C10      1.0000 0.76740  0.37430  0.31360  Biso   1.000  C
  H10      1.0000 0.75130  0.31570  0.26730  Biso   1.000  H
  C11      1.0000 0.77490  0.39760  0.52990  Biso   1.000  C
  H11      1.0000 0.77170  0.34130  0.57070  Biso   1.000  H
  C12      1.0000 0.88320  0.78310  0.45050  Biso   1.000  C
  H12      1.0000 0.98560  0.80110  0.49270  Biso   1.000  H
  Fe5      1.0000 0.62231  0.91505  0.86689  Biso   1.000  Fe
  Fe6      1.0000 0.57415  0.89773  0.31308  Biso   1.000  Fe
  O25      1.0000 0.56530  0.79280  0.75443  Biso   1.000  O
  O26      1.0000 0.44930  0.92970  0.63234  Biso   1.000  O
  O27      1.0000 0.40790  0.99680  0.78000  Biso   1.000  O
  O28      1.0000 0.32060  0.99700  0.86134  Biso   1.000  O
  O29      1.0000 0.54560  0.73700  0.89315  Biso   1.000  O
  O30      1.0000 0.51870  0.78880  0.00093  Biso   1.000  O
  O31      1.0000 0.65390  0.07870  0.80359  Biso   1.000  O
  O32      1.0000 0.89780  0.10150  0.87906  Biso   1.000  O
  O33      1.0000 0.66270  0.02460  0.97634  Biso   1.000  O
  O34      1.0000 0.88510  0.10980  0.03239  Biso   1.000  O
  O35      1.0000 0.84110  0.84220  0.94061  Biso   1.000  O
  O36      1.0000 0.80040  0.61830  0.90922  Biso   1.000  O
  C13      1.0000 0.50510  0.82020  0.67120  Biso   1.000  C
  H13      1.0000 0.50300  0.74910  0.63540  Biso   1.000  H
  C14      1.0000 0.30480  0.00890  0.78870  Biso   1.000  C
  H14      1.0000 0.20870  0.02860  0.73540  Biso   1.000  H
  C15      1.0000 0.52690  0.70710  0.95320  Biso   1.000  C
  H15      1.0000 0.51860  0.61320  0.96190  Biso   1.000  H
  C16      1.0000 0.76740  0.12570  0.81360  Biso   1.000  C
  H16      1.0000 0.75130  0.18430  0.76730  Biso   1.000  H
  C17      1.0000 0.77490  0.10240  0.02990  Biso   1.000  C
  H17      1.0000 0.77170  0.15870  0.07070  Biso   1.000  H
  C18      1.0000 0.88320  0.71690  0.95050  Biso   1.000  C
  H18      1.0000 0.98560  0.69890  0.99270  Biso   1.000  H
  Fe7      1.0000 0.37769  0.41505  0.63311  Biso   1.000  Fe
  Fe8      1.0000 0.42585  0.39773  0.18692  Biso   1.000  Fe
  O37      1.0000 0.43470  0.29280  0.74557  Biso   1.000  O
  O38      1.0000 0.55070  0.42970  0.86766  Biso   1.000  O
  O39      1.0000 0.59210  0.49680  0.72000  Biso   1.000  O
  O40      1.0000 0.67940  0.49700  0.63866  Biso   1.000  O
  O41      1.0000 0.45440  0.23700  0.60685  Biso   1.000  O
  O42      1.0000 0.48130  0.28880  0.49907  Biso   1.000  O
  O43      1.0000 0.34610  0.57870  0.69641  Biso   1.000  O
  O44      1.0000 0.10220  0.60150  0.62094  Biso   1.000  O
  O45      1.0000 0.33730  0.52460  0.52366  Biso   1.000  O
  O46      1.0000 0.11490  0.60980  0.46761  Biso   1.000  O
  O47      1.0000 0.15890  0.34220  0.55939  Biso   1.000  O
  O48      1.0000 0.19960  0.11830  0.59078  Biso   1.000  O
  C19      1.0000 0.49490  0.32020  0.82880  Biso   1.000  C
  H19      1.0000 0.49700  0.24910  0.86460  Biso   1.000  H
  C20      1.0000 0.69520  0.50890  0.71130  Biso   1.000  C
  H20      1.0000 0.79130  0.52860  0.76460  Biso   1.000  H
  C21      1.0000 0.47310  0.20710  0.54680  Biso   1.000  C
  H21      1.0000 0.48140  0.11320  0.53810  Biso   1.000  H
  C22      1.0000 0.23260  0.62570  0.68640  Biso   1.000  C
  H22      1.0000 0.24870  0.68430  0.73270  Biso   1.000  H
  C23      1.0000 0.22510  0.60240  0.47010  Biso   1.000  C
  H23      1.0000 0.22830  0.65870  0.42930  Biso   1.000  H
  C24      1.0000 0.11680  0.21690  0.54950  Biso   1.000  C
  H24      1.0000 0.01440  0.19890  0.50730  Biso   1.000  H
  Fe9      1.0000 0.50000  0.00000  0.00000  Biso   1.000  Fe
  Fe10     1.0000 0.50000  0.50000  0.50000  Biso   1.000  Fe
  Fe11     1.0000 0.00000  0.00000  0.00000  Biso   1.000  Fe
  Fe12     1.0000 0.00000  0.50000  0.50000  Biso   1.000  Fe
