data_NIHBIQ01_clean
_audit_creation_date              2014-07-02
_audit_creation_method            'Materials Studio'
_symmetry_space_group_name_H-M    'P1'
_symmetry_Int_Tables_number       1
_symmetry_cell_setting            triclinic
loop_
_symmetry_equiv_pos_as_xyz
  x,y,z
_cell_length_a                    10.0705
_cell_length_b                    11.4667
_cell_length_c                    15.2124
_cell_angle_alpha                 90.8908
_cell_angle_beta                  90.0000
_cell_angle_gamma                 90.0000
loop_
_atom_site_label
_atom_site_type_symbol
_atom_site_fract_x
_atom_site_fract_y
_atom_site_fract_z
_atom_site_U_iso_or_equiv
_atom_site_adp_type
_atom_site_occupancy
Fe1    Fe    0.92826   0.75421   0.13433   0.01267  Uiso   1.00
Fe2    Fe    0.87582   0.25948   0.69763   0.01267  Uiso   1.00
Fe3    Fe    0.42826   0.74579   0.36567   0.01267  Uiso   1.00
Fe4    Fe    0.37582   0.24052   0.80237   0.01267  Uiso   1.00
Fe5    Fe    0.07174   0.24579   0.86567   0.01267  Uiso   1.00
Fe6    Fe    0.12418   0.74052   0.30237   0.01267  Uiso   1.00
Fe7    Fe    0.57174   0.25421   0.63433   0.01267  Uiso   1.00
Fe8    Fe    0.62418   0.75948   0.19763   0.01267  Uiso   1.00
Fe9    Fe    0.00000   0.50000  -0.00000   0.01267  Uiso   1.00
Fe10   Fe    0.50000   1.00000   0.50000   0.01267  Uiso   1.00
Fe11   Fe    0.00000   0.00000   0.00000   0.01267  Uiso   1.00
Fe12   Fe    0.50000   0.50000   0.50000   0.01267  Uiso   1.00
H1     H     0.77400   0.85020   0.36820   0.01267  Uiso   1.00
H2     H     0.05900   0.47600   0.25400   0.01267  Uiso   1.00
H3     H     0.62300   0.53460   0.07760   0.01267  Uiso   1.00
H4     H     0.22800   0.96360   0.20660   0.01267  Uiso   1.00
H5     H     0.12900   0.69640   0.91540   0.01267  Uiso   1.00
H6     H     0.71700   0.99410   0.03110   0.01267  Uiso   1.00
H7     H     0.27400   0.64980   0.13180   0.01267  Uiso   1.00
H8     H     0.55900   0.02400   0.24600   0.01267  Uiso   1.00
H9     H     0.12300   0.96540   0.42240   0.01267  Uiso   1.00
H10    H     0.72800   0.53640   0.29340   0.01267  Uiso   1.00
H11    H     0.62900   0.80360   0.58460   0.01267  Uiso   1.00
H12    H     0.21700   0.50590   0.46890   0.01267  Uiso   1.00
H13    H     0.22600   0.14980   0.63180   0.01267  Uiso   1.00
H14    H     0.94100   0.52400   0.74600   0.01267  Uiso   1.00
H15    H     0.37700   0.46540   0.92240   0.01267  Uiso   1.00
H16    H     0.77200   0.03640   0.79340   0.01267  Uiso   1.00
H17    H     0.87100   0.30360   0.08460   0.01267  Uiso   1.00
H18    H     0.28300   0.00590   0.96890   0.01267  Uiso   1.00
H19    H     0.72600   0.35020   0.86820   0.01267  Uiso   1.00
H20    H     0.44100   0.97600   0.75400   0.01267  Uiso   1.00
H21    H     0.87700   0.03460   0.57760   0.01267  Uiso   1.00
H22    H     0.27200   0.46360   0.70660   0.01267  Uiso   1.00
H23    H     0.37100   0.19640   0.41540   0.01267  Uiso   1.00
H24    H     0.78300   0.49410   0.53110   0.01267  Uiso   1.00
C1     C     0.84610   0.82473   0.32913   0.01267  Uiso   1.00
C2     C     0.03910   0.51935   0.20335   0.01267  Uiso   1.00
C3     C     0.71990   0.56253   0.07083   0.01267  Uiso   1.00
C4     C     0.15640   0.94033   0.16923   0.01267  Uiso   1.00
C5     C     0.08190   0.74168   0.96128   0.01267  Uiso   1.00
C6     C     0.73180   0.93435   0.06695   0.01267  Uiso   1.00
C7     C     0.34610   0.67527   0.17087   0.01267  Uiso   1.00
C8     C     0.53910   0.98065   0.29665   0.01267  Uiso   1.00
C9     C     0.21990   0.93747   0.42917   0.01267  Uiso   1.00
C10    C     0.65640   0.55967   0.33077   0.01267  Uiso   1.00
C11    C     0.58190   0.75832   0.53872   0.01267  Uiso   1.00
C12    C     0.23180   0.56565   0.43305   0.01267  Uiso   1.00
C13    C     0.15390   0.17527   0.67087   0.01267  Uiso   1.00
C14    C     0.96090   0.48065   0.79665   0.01267  Uiso   1.00
C15    C     0.28010   0.43747   0.92917   0.01267  Uiso   1.00
C16    C     0.84360   0.05967   0.83077   0.01267  Uiso   1.00
C17    C     0.91810   0.25832   0.03872   0.01267  Uiso   1.00
C18    C     0.26820   0.06565   0.93305   0.01267  Uiso   1.00
C19    C     0.65390   0.32473   0.82913   0.01267  Uiso   1.00
C20    C     0.46090   0.01935   0.70335   0.01267  Uiso   1.00
C21    C     0.78010   0.06253   0.57083   0.01267  Uiso   1.00
C22    C     0.34360   0.44033   0.66923   0.01267  Uiso   1.00
C23    C     0.41810   0.24168   0.46128   0.01267  Uiso   1.00
C24    C     0.76820   0.43435   0.56695   0.01267  Uiso   1.00
O1     O     0.81432   0.80622   0.24937   0.01267  Uiso   1.00
O2     O     0.95715   0.81056   0.36208   0.01267  Uiso   1.00
O3     O     0.01838   0.62782   0.21357   0.01267  Uiso   1.00
O4     O     0.03030   0.46315   0.13410   0.01267  Uiso   1.00
O5     O     0.75231   0.65013   0.11919   0.01267  Uiso   1.00
O6     O     0.79511   0.50789   0.02062   0.01267  Uiso   1.00
O7     O     0.09532   0.84694   0.18904   0.01267  Uiso   1.00
O8     O     0.13179   0.00462   0.10767   0.01267  Uiso   1.00
O9     O     0.01881   0.68628   0.02060   0.01267  Uiso   1.00
O10    O     0.09013   0.84838   0.95423   0.01267  Uiso   1.00
O11    O     0.85255   0.89993   0.06980   0.01267  Uiso   1.00
O12    O     0.63634   0.89364   0.10705   0.01267  Uiso   1.00
O13    O     0.31432   0.69378   0.25063   0.01267  Uiso   1.00
O14    O     0.45715   0.68944   0.13792   0.01267  Uiso   1.00
O15    O     0.51838   0.87218   0.28643   0.01267  Uiso   1.00
O16    O     0.53030   0.03685   0.36590   0.01267  Uiso   1.00
O17    O     0.25231   0.84987   0.38081   0.01267  Uiso   1.00
O18    O     0.29511   0.99211   0.47938   0.01267  Uiso   1.00
O19    O     0.59532   0.65306   0.31096   0.01267  Uiso   1.00
O20    O     0.63179   0.49538   0.39233   0.01267  Uiso   1.00
O21    O     0.51881   0.81372   0.47940   0.01267  Uiso   1.00
O22    O     0.59013   0.65162   0.54577   0.01267  Uiso   1.00
O23    O     0.35255   0.60007   0.43020   0.01267  Uiso   1.00
O24    O     0.13634   0.60636   0.39295   0.01267  Uiso   1.00
O25    O     0.18568   0.19378   0.75063   0.01267  Uiso   1.00
O26    O     0.04285   0.18944   0.63792   0.01267  Uiso   1.00
O27    O     0.98162   0.37218   0.78643   0.01267  Uiso   1.00
O28    O     0.96970   0.53685   0.86590   0.01267  Uiso   1.00
O29    O     0.24769   0.34987   0.88081   0.01267  Uiso   1.00
O30    O     0.20489   0.49211   0.97938   0.01267  Uiso   1.00
O31    O     0.90468   0.15306   0.81096   0.01267  Uiso   1.00
O32    O     0.86821   0.99538   0.89233   0.01267  Uiso   1.00
O33    O     0.98119   0.31372   0.97940   0.01267  Uiso   1.00
O34    O     0.90987   0.15162   0.04577   0.01267  Uiso   1.00
O35    O     0.14745   0.10007   0.93020   0.01267  Uiso   1.00
O36    O     0.36366   0.10636   0.89295   0.01267  Uiso   1.00
O37    O     0.68568   0.30622   0.74937   0.01267  Uiso   1.00
O38    O     0.54285   0.31056   0.86208   0.01267  Uiso   1.00
O39    O     0.48162   0.12782   0.71357   0.01267  Uiso   1.00
O40    O     0.46970   0.96315   0.63410   0.01267  Uiso   1.00
O41    O     0.74769   0.15013   0.61919   0.01267  Uiso   1.00
O42    O     0.70489   0.00789   0.52062   0.01267  Uiso   1.00
O43    O     0.40468   0.34694   0.68904   0.01267  Uiso   1.00
O44    O     0.36821   0.50462   0.60767   0.01267  Uiso   1.00
O45    O     0.48119   0.18628   0.52060   0.01267  Uiso   1.00
O46    O     0.40987   0.34838   0.45423   0.01267  Uiso   1.00
O47    O     0.64745   0.39993   0.56980   0.01267  Uiso   1.00
O48    O     0.86366   0.39364   0.60705   0.01267  Uiso   1.00
