data_image0
_cell_length_a       11.196
_cell_length_b       13.02
_cell_length_c       16.52
_cell_angle_alpha    84.072
_cell_angle_beta     85.182
_cell_angle_gamma    79.138

_symmetry_space_group_name_H-M    "P 1"
_symmetry_int_tables_number       1

loop_
  _symmetry_equiv_pos_as_xyz
  'x, y, z'

loop_
  _atom_site_label
  _atom_site_occupancy
  _atom_site_fract_x
  _atom_site_fract_y
  _atom_site_fract_z
  _atom_site_thermal_displace_type
  _atom_site_B_iso_or_equiv
  _atom_site_type_symbol
  Co1      1.0000 0.25004  0.07919  0.48157  Biso   1.000  Co
  Co2      1.0000 0.34665  0.14208  0.67449  Biso   1.000  Co
  N1       1.0000 0.48740  0.19854  0.72628  Biso   1.000  N
  N2       1.0000 0.64700  0.27556  0.72842  Biso   1.000  N
  N3       1.0000 0.20840  0.76120  0.51440  Biso   1.000  N
  N4       1.0000 0.26540  0.91590  0.48702  Biso   1.000  N
  N5       1.0000 0.20160  0.22800  0.74123  Biso   1.000  N
  N6       1.0000 0.04100  0.26489  0.82718  Biso   1.000  N
  N7       1.0000 0.35810  0.15572  0.23344  Biso   1.000  N
  N8       1.0000 0.27190  0.11210  0.35374  Biso   1.000  N
  O1       1.0000 0.46080  0.59328  0.22875  Biso   1.000  O
  O2       1.0000 0.32430  0.50257  0.19559  Biso   1.000  O
  O3       1.0000 0.35091  0.26890  0.58360  Biso   1.000  O
  O4       1.0000 0.21878  0.24168  0.49551  Biso   1.000  O
  O5       1.0000 0.06174  0.09562  0.46904  Biso   1.000  O
  O6       1.0000 0.99410  0.10108  0.60043  Biso   1.000  O
  O7       1.0000 0.43749  0.07628  0.47777  Biso   1.000  O
  O8       1.0000 0.48670  0.05248  0.60785  Biso   1.000  O
  C1       1.0000 0.39170  0.52690  0.24458  Biso   1.000  C
  C2       1.0000 0.39210  0.47270  0.32869  Biso   1.000  C
  C3       1.0000 0.46430  0.48070  0.38970  Biso   1.000  C
  H1       1.0000 0.52200  0.52410  0.38480  Biso   1.000  H
  C4       1.0000 0.44140  0.41570  0.46080  Biso   1.000  C
  H2       1.0000 0.48510  0.40920  0.50710  Biso   1.000  H
  C5       1.0000 0.34860  0.36340  0.45462  Biso   1.000  C
  C6       1.0000 0.30240  0.28500  0.51604  Biso   1.000  C
  C7       1.0000 0.97880  0.10200  0.52544  Biso   1.000  C
  C8       1.0000 0.85170  0.10680  0.50239  Biso   1.000  C
  C9       1.0000 0.80810  0.12270  0.42670  Biso   1.000  C
  H3       1.0000 0.85490  0.13690  0.37900  Biso   1.000  H
  C10      1.0000 0.68230  0.11510  0.42885  Biso   1.000  C
  H4       1.0000 0.63780  0.12500  0.38270  Biso   1.000  H
  C11      1.0000 0.63450  0.09190  0.50561  Biso   1.000  C
  C12      1.0000 0.50940  0.07230  0.53248  Biso   1.000  C
  C13      1.0000 0.56920  0.13870  0.77923  Biso   1.000  C
  H5       1.0000 0.55760  0.07640  0.80910  Biso   1.000  H
  C14      1.0000 0.53840  0.27930  0.69754  Biso   1.000  C
  H6       1.0000 0.50350  0.33270  0.66030  Biso   1.000  H
  C15      1.0000 0.66820  0.18420  0.78094  Biso   1.000  C
  H7       1.0000 0.73610  0.15950  0.81090  Biso   1.000  H
  C16      1.0000 0.73230  0.34420  0.70371  Biso   1.000  C
  C17      1.0000 0.84750  0.30090  0.67106  Biso   1.000  C
  H8       1.0000 0.86950  0.22870  0.66870  Biso   1.000  H
  C18      1.0000 0.92930  0.36650  0.64205  Biso   1.000  C
  H9       1.0000 0.00570  0.33800  0.61950  Biso   1.000  H
  C19      1.0000 0.89750  0.47550  0.64653  Biso   1.000  C
  C20      1.0000 0.78300  0.51600  0.68240  Biso   1.000  C
  H10      1.0000 0.76170  0.58770  0.68740  Biso   1.000  H
  C21      1.0000 0.70040  0.45100  0.71085  Biso   1.000  C
  H11      1.0000 0.62440  0.47900  0.73440  Biso   1.000  H
  C22      1.0000 0.98290  0.54710  0.61304  Biso   1.000  C
  C23      1.0000 0.05710  0.52780  0.54160  Biso   1.000  C
  H12      1.0000 0.05640  0.46770  0.51580  Biso   1.000  H
  C24      1.0000 0.13180  0.59780  0.50910  Biso   1.000  C
  H13      1.0000 0.17920  0.58540  0.46090  Biso   1.000  H
  C25      1.0000 0.13570  0.68640  0.54835  Biso   1.000  C
  C26      1.0000 0.06670  0.70400  0.62078  Biso   1.000  C
  H14      1.0000 0.07190  0.76130  0.64870  Biso   1.000  H
  C27      1.0000 0.99030  0.63560  0.65102  Biso   1.000  C
  H15      1.0000 0.94180  0.64930  0.69860  Biso   1.000  H
  C28      1.0000 0.31080  0.74740  0.45970  Biso   1.000  C
  H16      1.0000 0.34880  0.68520  0.43840  Biso   1.000  H
  C29      1.0000 0.34370  0.84270  0.44390  Biso   1.000  C
  H17      1.0000 0.40950  0.85680  0.40910  Biso   1.000  H
  C30      1.0000 0.18610  0.86320  0.52855  Biso   1.000  C
  H18      1.0000 0.12250  0.89320  0.56340  Biso   1.000  H
  C31      1.0000 0.11110  0.19120  0.78361  Biso   1.000  C
  H19      1.0000 0.09740  0.12300  0.78340  Biso   1.000  H
  C32      1.0000 0.18940  0.33050  0.75922  Biso   1.000  C
  H20      1.0000 0.24120  0.37640  0.73840  Biso   1.000  H
  C33      1.0000 0.09080  0.35460  0.81170  Biso   1.000  C
  H21      1.0000 0.06240  0.41880  0.83310  Biso   1.000  H
  C34      1.0000 0.93580  0.25050  0.88015  Biso   1.000  C
  C35      1.0000 0.92510  0.15080  0.91531  Biso   1.000  C
  H22      1.0000 0.98510  0.09330  0.90390  Biso   1.000  H
  C36      1.0000 0.82480  0.13760  0.96736  Biso   1.000  C
  H23      1.0000 0.81700  0.07030  0.98930  Biso   1.000  H
  C37      1.0000 0.73500  0.22240  0.98803  Biso   1.000  C
  C38      1.0000 0.74750  0.32090  0.95129  Biso   1.000  C
  H24      1.0000 0.68770  0.37850  0.96260  Biso   1.000  H
  C39      1.0000 0.84650  0.33570  0.89824  Biso   1.000  C
  H25      1.0000 0.85300  0.40260  0.87480  Biso   1.000  H
  C40      1.0000 0.63290  0.20540  0.04886  Biso   1.000  C
  C41      1.0000 0.60110  0.10610  0.06678  Biso   1.000  C
  H26      1.0000 0.64070  0.05050  0.03770  Biso   1.000  H
  C42      1.0000 0.51130  0.08940  0.12716  Biso   1.000  C
  H27      1.0000 0.49130  0.02300  0.13820  Biso   1.000  H
  C43      1.0000 0.45130  0.17080  0.17105  Biso   1.000  C
  C44      1.0000 0.47560  0.27050  0.15150  Biso   1.000  C
  H28      1.0000 0.43150  0.32650  0.17820  Biso   1.000  H
  C45      1.0000 0.56730  0.28680  0.09130  Biso   1.000  C
  H29      1.0000 0.58490  0.35400  0.07940  Biso   1.000  H
  C46      1.0000 0.23450  0.19820  0.23150  Biso   1.000  C
  H30      1.0000 0.19510  0.23840  0.18840  Biso   1.000  H
  C47      1.0000 0.18320  0.16870  0.30585  Biso   1.000  C
  H31      1.0000 0.10070  0.18450  0.32180  Biso   1.000  H
  C48      1.0000 0.37490  0.10580  0.30804  Biso   1.000  C
  H32      1.0000 0.45000  0.07090  0.32530  Biso   1.000  H
  S1       1.0000 0.29178  0.38818  0.35962  Biso   1.000  S
  S2       1.0000 0.74060  0.08256  0.57708  Biso   1.000  S
  Co3      1.0000 0.35783  0.63629  0.93492  Biso   1.000  Co
  Co4      1.0000 0.44500  0.71735  0.13598  Biso   1.000  Co
  N9       1.0000 0.37640  0.63543  0.80701  Biso   1.000  N
  N10      1.0000 0.44890  0.65904  0.68006  Biso   1.000  N
  N11      1.0000 0.12320  0.81907  0.28583  Biso   1.000  N
  N12      1.0000 0.28950  0.79284  0.20322  Biso   1.000  N
  N13      1.0000 0.57200  0.78160  0.19150  Biso   1.000  N
  N14      1.0000 0.71920  0.86832  0.20638  Biso   1.000  N
  N15      1.0000 0.29810  0.32490  0.97436  Biso   1.000  N
  N16      1.0000 0.37270  0.47111  0.95011  Biso   1.000  N
  O9       1.0000 0.54333  0.63048  0.93445  Biso   1.000  O
  O10      1.0000 0.58924  0.63827  0.06425  Biso   1.000  O
  O11      1.0000 0.09370  0.66830  0.05514  Biso   1.000  O
  O12      1.0000 0.17010  0.64750  0.92692  Biso   1.000  O
  O13      1.0000 0.32619  0.64566  0.06739  Biso   1.000  O
  H33      1.0000 0.32800  0.57450  0.09210  Biso   1.000  H
  H34      1.0000 0.24370  0.68340  0.07710  Biso   1.000  H
  C49      1.0000 0.45400  0.67960  0.75796  Biso   1.000  C
  H35      1.0000 0.50600  0.72000  0.77470  Biso   1.000  H
  C50      1.0000 0.31630  0.58430  0.75764  Biso   1.000  C
  H36      1.0000 0.25540  0.54610  0.77580  Biso   1.000  H
  C51      1.0000 0.36020  0.59870  0.67902  Biso   1.000  C
  H37      1.0000 0.33550  0.57310  0.63380  Biso   1.000  H
  C52      1.0000 0.53100  0.68770  0.61336  Biso   1.000  C
  C53      1.0000 0.58030  0.61750  0.55803  Biso   1.000  C
  H38      1.0000 0.55200  0.55470  0.55850  Biso   1.000  H
  C54      1.0000 0.67290  0.64020  0.50094  Biso   1.000  C
  H39      1.0000 0.70540  0.59240  0.46320  Biso   1.000  H
  C55      1.0000 0.71760  0.73370  0.49957  Biso   1.000  C
  C56      1.0000 0.66010  0.80560  0.55320  Biso   1.000  C
  H40      1.0000 0.68500  0.87010  0.55160  Biso   1.000  H
  C57      1.0000 0.56620  0.78390  0.60920  Biso   1.000  C
  H41      1.0000 0.52760  0.83410  0.64350  Biso   1.000  H
  C58      1.0000 0.82400  0.75480  0.44370  Biso   1.000  C
  C59      1.0000 0.87520  0.68860  0.38490  Biso   1.000  C
  H42      1.0000 0.84400  0.62800  0.38130  Biso   1.000  H
  C60      1.0000 0.97170  0.70920  0.33100  Biso   1.000  C
  H43      1.0000 0.00240  0.66460  0.29070  Biso   1.000  H
  C61      1.0000 0.02150  0.79750  0.33823  Biso   1.000  C
  C62      1.0000 0.97230  0.86540  0.39672  Biso   1.000  C
  H44      1.0000 0.00450  0.92520  0.40160  Biso   1.000  H
  C63      1.0000 0.87410  0.84250  0.44770  Biso   1.000  C
  H45      1.0000 0.84070  0.88860  0.48640  Biso   1.000  H
  C64      1.0000 0.20090  0.75060  0.24208  Biso   1.000  C
  H46      1.0000 0.19270  0.68130  0.23960  Biso   1.000  H
  C65      1.0000 0.26800  0.89580  0.22351  Biso   1.000  C
  H47      1.0000 0.31620  0.94550  0.20540  Biso   1.000  H
  C66      1.0000 0.16630  0.91220  0.27350  Biso   1.000  C
  H48      1.0000 0.13160  0.97470  0.29560  Biso   1.000  H
  C67      1.0000 0.61510  0.63130  0.99021  Biso   1.000  C
  C68      1.0000 0.74680  0.62420  0.96275  Biso   1.000  C
  C69      1.0000 0.96580  0.63270  0.96034  Biso   1.000  C
  C70      1.0000 0.08560  0.65090  0.98243  Biso   1.000  C
  C71      1.0000 0.92930  0.62350  0.88491  Biso   1.000  C
  H49      1.0000 0.98150  0.62050  0.83800  Biso   1.000  H
  C72      1.0000 0.80340  0.61890  0.88558  Biso   1.000  C
  H50      1.0000 0.76400  0.61300  0.83940  Biso   1.000  H
  C73      1.0000 0.57200  0.80070  0.27207  Biso   1.000  C
  H51      1.0000 0.51880  0.77910  0.31390  Biso   1.000  H
  C74      1.0000 0.66170  0.82400  0.15349  Biso   1.000  C
  H52      1.0000 0.68290  0.82360  0.09790  Biso   1.000  H
  C75      1.0000 0.66090  0.85530  0.28147  Biso   1.000  C
  H53      1.0000 0.67850  0.87920  0.32950  Biso   1.000  H
  C76      1.0000 0.81640  0.92550  0.18236  Biso   1.000  C
  C77      1.0000 0.90870  0.88690  0.12580  Biso   1.000  C
  H54      1.0000 0.91290  0.82060  0.10820  Biso   1.000  H
  C78      1.0000 0.99450  0.94810  0.09588  Biso   1.000  C
  H55      1.0000 0.05550  0.92310  0.05730  Biso   1.000  H
  C79      1.0000 0.99000  0.04710  0.12315  Biso   1.000  C
  C80      1.0000 0.90090  0.08130  0.18500  Biso   1.000  C
  H56      1.0000 0.89990  0.14490  0.20630  Biso   1.000  H
  C81      1.0000 0.81540  0.02050  0.21408  Biso   1.000  C
  H57      1.0000 0.75700  0.04320  0.25500  Biso   1.000  H
  C82      1.0000 0.07190  0.11760  0.08481  Biso   1.000  C
  C83      1.0000 0.18810  0.08010  0.05170  Biso   1.000  C
  H58      1.0000 0.21640  0.00800  0.05480  Biso   1.000  H
  C84      1.0000 0.26310  0.14640  0.01426  Biso   1.000  C
  H59      1.0000 0.34050  0.11940  0.99240  Biso   1.000  H
  C85      1.0000 0.22070  0.25420  0.00980  Biso   1.000  C
  C86      1.0000 0.10300  0.29540  0.03869  Biso   1.000  C
  H60      1.0000 0.07340  0.36730  0.03240  Biso   1.000  H
  C87      1.0000 0.03000  0.22630  0.07741  Biso   1.000  C
  H61      1.0000 0.95210  0.25310  0.09870  Biso   1.000  H
  C88      1.0000 0.39170  0.30840  0.91443  Biso   1.000  C
  H62      1.0000 0.41870  0.24720  0.88870  Biso   1.000  H
  C89      1.0000 0.43630  0.39800  0.90042  Biso   1.000  C
  H63      1.0000 0.50030  0.40890  0.86290  Biso   1.000  H
  C90      1.0000 0.29080  0.42490  0.99458  Biso   1.000  C
  H64      1.0000 0.23580  0.45620  0.03410  Biso   1.000  H
  S3       1.0000 0.84728  0.63530  0.03324  Biso   1.000  S
