data_NIKDEQ_clean
_audit_creation_date              2014-07-02
_audit_creation_method            'Materials Studio'
_symmetry_space_group_name_H-M    'P1'
_symmetry_Int_Tables_number       1
_symmetry_cell_setting            triclinic
loop_
_symmetry_equiv_pos_as_xyz
  x,y,z
_cell_length_a                    10.4562
_cell_length_b                    10.4562
_cell_length_c                    14.2640
_cell_angle_alpha                 83.3213
_cell_angle_beta                  83.3213
_cell_angle_gamma                 85.3259
loop_
_atom_site_label
_atom_site_type_symbol
_atom_site_fract_x
_atom_site_fract_y
_atom_site_fract_z
_atom_site_U_iso_or_equiv
_atom_site_adp_type
_atom_site_occupancy
Gd1    Gd    0.22880   0.77120   0.25000   0.01267  Uiso   1.00
Gd2    Gd    0.77120   0.22880   0.75000   0.01267  Uiso   1.00
H1     H     0.29020   0.16800   0.45960   0.01267  Uiso   1.00
H2     H     0.80410   0.73770   0.40870   0.01267  Uiso   1.00
H3     H     0.64640   0.68280   0.41160   0.01267  Uiso   1.00
H4     H     0.56100   0.88300   0.35310   0.01267  Uiso   1.00
H5     H     0.71540   0.86900   0.28780   0.01267  Uiso   1.00
H6     H     0.68990   0.18950   0.33360   0.01267  Uiso   1.00
H7     H     0.65320   0.08140   0.25690   0.01267  Uiso   1.00
H8     H     0.46460   0.21060   0.30030   0.01267  Uiso   1.00
H9     H     0.44460   0.04960   0.35400   0.01267  Uiso   1.00
H10    H     0.51960   0.27320   0.44530   0.01267  Uiso   1.00
H11    H     0.50320   0.11460   0.49930   0.01267  Uiso   1.00
H12    H     0.69030   0.67110   0.66100   0.01267  Uiso   1.00
H13    H     0.68210   0.57650   0.56910   0.01267  Uiso   1.00
H14    H     0.90500   0.63240   0.50710   0.01267  Uiso   1.00
H15    H     0.91000   0.70840   0.61080   0.01267  Uiso   1.00
H16    H     0.88230   0.91430   0.41350   0.01267  Uiso   1.00
H17    H     0.87600   0.03140   0.31320   0.01267  Uiso   1.00
H18    H     0.96770   0.11690   0.43440   0.01267  Uiso   1.00
H19    H     0.81860   0.20080   0.41720   0.01267  Uiso   1.00
H20    H     0.83200   0.70980   0.04040   0.01267  Uiso   1.00
H21    H     0.26230   0.19590   0.09130   0.01267  Uiso   1.00
H22    H     0.31720   0.35360   0.08840   0.01267  Uiso   1.00
H23    H     0.11700   0.43900   0.14690   0.01267  Uiso   1.00
H24    H     0.13100   0.28460   0.21220   0.01267  Uiso   1.00
H25    H     0.81050   0.31010   0.16640   0.01267  Uiso   1.00
H26    H     0.91860   0.34680   0.24310   0.01267  Uiso   1.00
H27    H     0.78940   0.53540   0.19970   0.01267  Uiso   1.00
H28    H     0.95040   0.55540   0.14600   0.01267  Uiso   1.00
H29    H     0.72680   0.48040   0.05470   0.01267  Uiso   1.00
H30    H     0.88540   0.49680   0.00070   0.01267  Uiso   1.00
H31    H     0.32890   0.30970   0.83900   0.01267  Uiso   1.00
H32    H     0.42350   0.31790   0.93090   0.01267  Uiso   1.00
H33    H     0.36760   0.09500   0.99290   0.01267  Uiso   1.00
H34    H     0.29160   0.09000   0.88920   0.01267  Uiso   1.00
H35    H     0.08570   0.11770   0.08650   0.01267  Uiso   1.00
H36    H     0.96860   0.12400   0.18680   0.01267  Uiso   1.00
H37    H     0.88310   0.03230   0.06560   0.01267  Uiso   1.00
H38    H     0.79920   0.18140   0.08280   0.01267  Uiso   1.00
H39    H     0.70980   0.83200   0.54040   0.01267  Uiso   1.00
H40    H     0.19590   0.26230   0.59130   0.01267  Uiso   1.00
H41    H     0.35360   0.31720   0.58840   0.01267  Uiso   1.00
H42    H     0.43900   0.11700   0.64690   0.01267  Uiso   1.00
H43    H     0.28460   0.13100   0.71220   0.01267  Uiso   1.00
H44    H     0.31010   0.81050   0.66640   0.01267  Uiso   1.00
H45    H     0.34680   0.91860   0.74310   0.01267  Uiso   1.00
H46    H     0.53540   0.78940   0.69970   0.01267  Uiso   1.00
H47    H     0.55540   0.95040   0.64600   0.01267  Uiso   1.00
H48    H     0.48040   0.72680   0.55470   0.01267  Uiso   1.00
H49    H     0.49680   0.88540   0.50070   0.01267  Uiso   1.00
H50    H     0.30970   0.32890   0.33900   0.01267  Uiso   1.00
H51    H     0.31790   0.42350   0.43090   0.01267  Uiso   1.00
H52    H     0.09500   0.36760   0.49290   0.01267  Uiso   1.00
H53    H     0.09000   0.29160   0.38920   0.01267  Uiso   1.00
H54    H     0.11770   0.08570   0.58650   0.01267  Uiso   1.00
H55    H     0.12400   0.96860   0.68680   0.01267  Uiso   1.00
H56    H     0.03230   0.88310   0.56560   0.01267  Uiso   1.00
H57    H     0.18140   0.79920   0.58280   0.01267  Uiso   1.00
H58    H     0.16800   0.29020   0.95960   0.01267  Uiso   1.00
H59    H     0.73770   0.80410   0.90870   0.01267  Uiso   1.00
H60    H     0.68280   0.64640   0.91160   0.01267  Uiso   1.00
H61    H     0.88300   0.56100   0.85310   0.01267  Uiso   1.00
H62    H     0.86900   0.71540   0.78780   0.01267  Uiso   1.00
H63    H     0.18950   0.68990   0.83360   0.01267  Uiso   1.00
H64    H     0.08140   0.65320   0.75690   0.01267  Uiso   1.00
H65    H     0.21060   0.46460   0.80030   0.01267  Uiso   1.00
H66    H     0.04960   0.44460   0.85400   0.01267  Uiso   1.00
H67    H     0.27320   0.51960   0.94530   0.01267  Uiso   1.00
H68    H     0.11460   0.50320   0.99930   0.01267  Uiso   1.00
H69    H     0.67110   0.69030   0.16100   0.01267  Uiso   1.00
H70    H     0.57650   0.68210   0.06910   0.01267  Uiso   1.00
H71    H     0.63240   0.90500   0.00710   0.01267  Uiso   1.00
H72    H     0.70840   0.91000   0.11080   0.01267  Uiso   1.00
H73    H     0.91430   0.88230   0.91350   0.01267  Uiso   1.00
H74    H     0.03140   0.87600   0.81320   0.01267  Uiso   1.00
H75    H     0.11690   0.96770   0.93440   0.01267  Uiso   1.00
H76    H     0.20080   0.81860   0.91720   0.01267  Uiso   1.00
C1     C     0.29700   0.24100   0.57420   0.01267  Uiso   1.00
C2     C     0.33600   0.12400   0.64280   0.01267  Uiso   1.00
C3     C     0.35960   0.89360   0.67110   0.01267  Uiso   1.00
C4     C     0.50200   0.86400   0.64780   0.01267  Uiso   1.00
C5     C     0.53210   0.81070   0.55400   0.01267  Uiso   1.00
C6     C     0.28000   0.34200   0.41190   0.01267  Uiso   1.00
C7     C     0.13600   0.36400   0.42100   0.01267  Uiso   1.00
C8     C     0.10000   0.49200   0.36500   0.01267  Uiso   1.00
C9     C     0.83740   0.00540   0.38660   0.01267  Uiso   1.00
C10    C     0.86300   0.10900   0.44600   0.01267  Uiso   1.00
C11    C     0.82160   0.08360   0.55300   0.01267  Uiso   1.00
C12    C     0.75900   0.70300   0.92580   0.01267  Uiso   1.00
C13    C     0.87600   0.66400   0.85720   0.01267  Uiso   1.00
C14    C     0.10640   0.64040   0.82890   0.01267  Uiso   1.00
C15    C     0.13600   0.49800   0.85220   0.01267  Uiso   1.00
C16    C     0.18930   0.46790   0.94600   0.01267  Uiso   1.00
C17    C     0.65800   0.72000   0.08810   0.01267  Uiso   1.00
C18    C     0.63600   0.86400   0.07900   0.01267  Uiso   1.00
C19    C     0.50800   0.90000   0.13500   0.01267  Uiso   1.00
C20    C     0.99460   0.16260   0.11340   0.01267  Uiso   1.00
C21    C     0.89100   0.13700   0.05400   0.01267  Uiso   1.00
C22    C     0.91640   0.17840   0.94700   0.01267  Uiso   1.00
C23    C     0.70300   0.75900   0.42580   0.01267  Uiso   1.00
C24    C     0.66400   0.87600   0.35720   0.01267  Uiso   1.00
C25    C     0.64040   0.10640   0.32890   0.01267  Uiso   1.00
C26    C     0.49800   0.13600   0.35220   0.01267  Uiso   1.00
C27    C     0.46790   0.18930   0.44600   0.01267  Uiso   1.00
C28    C     0.72000   0.65800   0.58810   0.01267  Uiso   1.00
C29    C     0.86400   0.63600   0.57900   0.01267  Uiso   1.00
C30    C     0.90000   0.50800   0.63500   0.01267  Uiso   1.00
C31    C     0.16260   0.99460   0.61340   0.01267  Uiso   1.00
C32    C     0.13700   0.89100   0.55400   0.01267  Uiso   1.00
C33    C     0.17840   0.91640   0.44700   0.01267  Uiso   1.00
C34    C     0.24100   0.29700   0.07420   0.01267  Uiso   1.00
C35    C     0.12400   0.33600   0.14280   0.01267  Uiso   1.00
C36    C     0.89360   0.35960   0.17110   0.01267  Uiso   1.00
C37    C     0.86400   0.50200   0.14780   0.01267  Uiso   1.00
C38    C     0.81070   0.53210   0.05400   0.01267  Uiso   1.00
C39    C     0.34200   0.28000   0.91190   0.01267  Uiso   1.00
C40    C     0.36400   0.13600   0.92100   0.01267  Uiso   1.00
C41    C     0.49200   0.10000   0.86500   0.01267  Uiso   1.00
C42    C     0.00540   0.83740   0.88660   0.01267  Uiso   1.00
C43    C     0.10900   0.86300   0.94600   0.01267  Uiso   1.00
C44    C     0.08360   0.82160   0.05300   0.01267  Uiso   1.00
N1     N     0.32700   0.22140   0.47280   0.01267  Uiso   1.00
N2     N     0.30420   0.00280   0.61060   0.01267  Uiso   1.00
N3     N     0.77860   0.67300   0.02720   0.01267  Uiso   1.00
N4     N     0.99720   0.69580   0.88940   0.01267  Uiso   1.00
N5     N     0.67300   0.77860   0.52720   0.01267  Uiso   1.00
N6     N     0.69580   0.99720   0.38940   0.01267  Uiso   1.00
N7     N     0.22140   0.32700   0.97280   0.01267  Uiso   1.00
N8     N     0.00280   0.30420   0.11060   0.01267  Uiso   1.00
O1     O     0.02080   0.47700   0.63640   0.01267  Uiso   1.00
O2     O     0.18680   0.55680   0.32150   0.01267  Uiso   1.00
O3     O     0.80170   0.97170   0.58710   0.01267  Uiso   1.00
O4     O     0.86200   0.15800   0.60000   0.01267  Uiso   1.00
O5     O     0.52300   0.97920   0.86360   0.01267  Uiso   1.00
O6     O     0.44320   0.81320   0.17850   0.01267  Uiso   1.00
O7     O     0.02830   0.19830   0.91290   0.01267  Uiso   1.00
O8     O     0.84200   0.13800   0.90000   0.01267  Uiso   1.00
O9     O     0.97920   0.52300   0.36360   0.01267  Uiso   1.00
O10    O     0.81320   0.44320   0.67850   0.01267  Uiso   1.00
O11    O     0.19830   0.02830   0.41290   0.01267  Uiso   1.00
O12    O     0.13800   0.84200   0.40000   0.01267  Uiso   1.00
O13    O     0.47700   0.02080   0.13640   0.01267  Uiso   1.00
O14    O     0.55680   0.18680   0.82150   0.01267  Uiso   1.00
O15    O     0.97170   0.80170   0.08710   0.01267  Uiso   1.00
O16    O     0.15800   0.86200   0.10000   0.01267  Uiso   1.00
