data_NIKJUN_clean
_audit_creation_date              2014-07-02
_audit_creation_method            'Materials Studio'
_symmetry_space_group_name_H-M    'P1'
_symmetry_Int_Tables_number       1
_symmetry_cell_setting            triclinic
loop_
_symmetry_equiv_pos_as_xyz
  x,y,z
_cell_length_a                    16.1376
_cell_length_b                    16.1376
_cell_length_c                    30.9377
_cell_angle_alpha                 100.7630
_cell_angle_beta                  100.7630
_cell_angle_gamma                 95.9170
loop_
_atom_site_label
_atom_site_type_symbol
_atom_site_fract_x
_atom_site_fract_y
_atom_site_fract_z
_atom_site_U_iso_or_equiv
_atom_site_adp_type
_atom_site_occupancy
Dy1    Dy    0.13857   0.68859   0.69944   0.01267  Uiso   1.00
Dy2    Dy    0.51580   0.13336   0.08726   0.01267  Uiso   1.00
Dy3    Dy    0.31141   0.86143   0.80056   0.01267  Uiso   1.00
Dy4    Dy    0.86664   0.48420   0.41274   0.01267  Uiso   1.00
Dy5    Dy    0.86143   0.31141   0.30056   0.01267  Uiso   1.00
Dy6    Dy    0.48420   0.86664   0.91274   0.01267  Uiso   1.00
Dy7    Dy    0.68859   0.13857   0.19944   0.01267  Uiso   1.00
Dy8    Dy    0.13336   0.51580   0.58726   0.01267  Uiso   1.00
Cu1    Cu    0.02559   0.64059   0.07157   0.01267  Uiso   1.00
Cu2    Cu    0.35941   0.97441   0.42843   0.01267  Uiso   1.00
Cu3    Cu    0.97441   0.35941   0.92843   0.01267  Uiso   1.00
Cu4    Cu    0.64059   0.02559   0.57157   0.01267  Uiso   1.00
Cu5    Cu    0.72357   0.27643   0.75000   0.01267  Uiso   1.00
Cu6    Cu    0.27643   0.72357   0.25000   0.01267  Uiso   1.00
H1     H     0.17740   0.43020   0.98500   0.01267  Uiso   1.00
H2     H     0.12560   0.51880   0.93020   0.01267  Uiso   1.00
H3     H     0.99060   0.80720   0.94720   0.01267  Uiso   1.00
H4     H     0.90670   0.87470   0.00000   0.01267  Uiso   1.00
H5     H     0.79700   0.77860   0.13840   0.01267  Uiso   1.00
H6     H     0.84890   0.68710   0.18980   0.01267  Uiso   1.00
H7     H     0.13500   0.54900   0.21610   0.01267  Uiso   1.00
H8     H     0.22850   0.49370   0.16570   0.01267  Uiso   1.00
H9     H     0.98420   0.58060   0.88360   0.01267  Uiso   1.00
H10    H     0.01860   0.59900   0.81600   0.01267  Uiso   1.00
H11    H     0.20510   0.79090   0.88440   0.01267  Uiso   1.00
H12    H     0.16870   0.77370   0.95140   0.01267  Uiso   1.00
H13    H     0.91880   0.95140   0.11130   0.01267  Uiso   1.00
H14    H     0.81840   0.04620   0.12320   0.01267  Uiso   1.00
H15    H     0.63070   0.87130   0.04240   0.01267  Uiso   1.00
H16    H     0.72490   0.77410   0.03250   0.01267  Uiso   1.00
H17    H     0.86380   0.52280   0.18960   0.01267  Uiso   1.00
H18    H     0.83620   0.48960   0.25540   0.01267  Uiso   1.00
H19    H     0.04850   0.64450   0.32700   0.01267  Uiso   1.00
H20    H     0.07930   0.67570   0.26040   0.01267  Uiso   1.00
H21    H     0.31650   0.49870   0.05100   0.01267  Uiso   1.00
H22    H     0.41300   0.39880   0.05490   0.01267  Uiso   1.00
H23    H     0.25270   0.25170   0.10460   0.01267  Uiso   1.00
H24    H     0.15650   0.34850   0.09950   0.01267  Uiso   1.00
H25    H     0.90980   0.09880   0.83740   0.01267  Uiso   1.00
H26    H     0.81880   0.15400   0.88840   0.01267  Uiso   1.00
H27    H     0.58420   0.35540   0.88370   0.01267  Uiso   1.00
H28    H     0.52470   0.44250   0.83070   0.01267  Uiso   1.00
H29    H     0.03130   0.14770   0.79240   0.01267  Uiso   1.00
H30    H     0.12560   0.05240   0.79380   0.01267  Uiso   1.00
H31    H     0.58940   0.14100   0.87500   0.01267  Uiso   1.00
H32    H     0.56400   0.12660   0.94570   0.01267  Uiso   1.00
H33    H     0.74210   0.32110   0.00570   0.01267  Uiso   1.00
H34    H     0.77310   0.33490   0.93820   0.01267  Uiso   1.00
H35    H     0.59700   0.58080   0.79230   0.01267  Uiso   1.00
H36    H     0.50130   0.67870   0.79280   0.01267  Uiso   1.00
H37    H     0.56980   0.82260   0.51500   0.01267  Uiso   1.00
H38    H     0.48120   0.87440   0.56980   0.01267  Uiso   1.00
H39    H     0.19280   0.00940   0.55280   0.01267  Uiso   1.00
H40    H     0.12530   0.09330   0.50000   0.01267  Uiso   1.00
H41    H     0.22140   0.20300   0.36160   0.01267  Uiso   1.00
H42    H     0.31290   0.15110   0.31020   0.01267  Uiso   1.00
H43    H     0.45100   0.86500   0.28390   0.01267  Uiso   1.00
H44    H     0.50630   0.77150   0.33430   0.01267  Uiso   1.00
H45    H     0.41940   0.01580   0.61640   0.01267  Uiso   1.00
H46    H     0.40100   0.98140   0.68400   0.01267  Uiso   1.00
H47    H     0.20910   0.79490   0.61560   0.01267  Uiso   1.00
H48    H     0.22630   0.83130   0.54860   0.01267  Uiso   1.00
H49    H     0.04860   0.08120   0.38870   0.01267  Uiso   1.00
H50    H     0.95380   0.18160   0.37680   0.01267  Uiso   1.00
H51    H     0.12870   0.36930   0.45760   0.01267  Uiso   1.00
H52    H     0.22590   0.27510   0.46750   0.01267  Uiso   1.00
H53    H     0.47720   0.13620   0.31040   0.01267  Uiso   1.00
H54    H     0.51040   0.16380   0.24460   0.01267  Uiso   1.00
H55    H     0.35550   0.95150   0.17300   0.01267  Uiso   1.00
H56    H     0.32430   0.92070   0.23960   0.01267  Uiso   1.00
H57    H     0.50130   0.68350   0.44900   0.01267  Uiso   1.00
H58    H     0.60120   0.58700   0.44510   0.01267  Uiso   1.00
H59    H     0.74830   0.74730   0.39540   0.01267  Uiso   1.00
H60    H     0.65150   0.84350   0.40050   0.01267  Uiso   1.00
H61    H     0.90120   0.09020   0.66260   0.01267  Uiso   1.00
H62    H     0.84600   0.18120   0.61160   0.01267  Uiso   1.00
H63    H     0.64460   0.41580   0.61630   0.01267  Uiso   1.00
H64    H     0.55750   0.47530   0.66930   0.01267  Uiso   1.00
H65    H     0.85230   0.96870   0.70760   0.01267  Uiso   1.00
H66    H     0.94760   0.87440   0.70620   0.01267  Uiso   1.00
H67    H     0.85900   0.41060   0.62500   0.01267  Uiso   1.00
H68    H     0.87340   0.43600   0.55430   0.01267  Uiso   1.00
H69    H     0.67890   0.25790   0.49430   0.01267  Uiso   1.00
H70    H     0.66510   0.22690   0.56180   0.01267  Uiso   1.00
H71    H     0.41920   0.40300   0.70770   0.01267  Uiso   1.00
H72    H     0.32130   0.49870   0.70720   0.01267  Uiso   1.00
H73    H     0.82260   0.56980   0.01500   0.01267  Uiso   1.00
H74    H     0.87440   0.48120   0.06980   0.01267  Uiso   1.00
H75    H     0.00940   0.19280   0.05280   0.01267  Uiso   1.00
H76    H     0.09330   0.12530   0.00000   0.01267  Uiso   1.00
H77    H     0.20300   0.22140   0.86160   0.01267  Uiso   1.00
H78    H     0.15110   0.31290   0.81020   0.01267  Uiso   1.00
H79    H     0.86500   0.45100   0.78390   0.01267  Uiso   1.00
H80    H     0.77150   0.50630   0.83430   0.01267  Uiso   1.00
H81    H     0.01580   0.41940   0.11640   0.01267  Uiso   1.00
H82    H     0.98140   0.40100   0.18400   0.01267  Uiso   1.00
H83    H     0.79490   0.20910   0.11560   0.01267  Uiso   1.00
H84    H     0.83130   0.22630   0.04860   0.01267  Uiso   1.00
H85    H     0.08120   0.04860   0.88870   0.01267  Uiso   1.00
H86    H     0.18160   0.95380   0.87680   0.01267  Uiso   1.00
H87    H     0.36930   0.12870   0.95760   0.01267  Uiso   1.00
H88    H     0.27510   0.22590   0.96750   0.01267  Uiso   1.00
H89    H     0.13620   0.47720   0.81040   0.01267  Uiso   1.00
H90    H     0.16380   0.51040   0.74460   0.01267  Uiso   1.00
H91    H     0.95150   0.35550   0.67300   0.01267  Uiso   1.00
H92    H     0.92070   0.32430   0.73960   0.01267  Uiso   1.00
H93    H     0.68350   0.50130   0.94900   0.01267  Uiso   1.00
H94    H     0.58700   0.60120   0.94510   0.01267  Uiso   1.00
H95    H     0.74730   0.74830   0.89540   0.01267  Uiso   1.00
H96    H     0.84350   0.65150   0.90050   0.01267  Uiso   1.00
H97    H     0.09020   0.90120   0.16260   0.01267  Uiso   1.00
H98    H     0.18120   0.84600   0.11160   0.01267  Uiso   1.00
H99    H     0.41580   0.64460   0.11630   0.01267  Uiso   1.00
H100   H     0.47530   0.55750   0.16930   0.01267  Uiso   1.00
H101   H     0.96870   0.85230   0.20760   0.01267  Uiso   1.00
H102   H     0.87440   0.94760   0.20620   0.01267  Uiso   1.00
H103   H     0.41060   0.85900   0.12500   0.01267  Uiso   1.00
H104   H     0.43600   0.87340   0.05430   0.01267  Uiso   1.00
H105   H     0.25790   0.67890   0.99430   0.01267  Uiso   1.00
H106   H     0.22690   0.66510   0.06180   0.01267  Uiso   1.00
H107   H     0.40300   0.41920   0.20770   0.01267  Uiso   1.00
H108   H     0.49870   0.32130   0.20720   0.01267  Uiso   1.00
H109   H     0.43020   0.17740   0.48500   0.01267  Uiso   1.00
H110   H     0.51880   0.12560   0.43020   0.01267  Uiso   1.00
H111   H     0.80720   0.99060   0.44720   0.01267  Uiso   1.00
H112   H     0.87470   0.90670   0.50000   0.01267  Uiso   1.00
H113   H     0.77860   0.79700   0.63840   0.01267  Uiso   1.00
H114   H     0.68710   0.84890   0.68980   0.01267  Uiso   1.00
H115   H     0.54900   0.13500   0.71610   0.01267  Uiso   1.00
H116   H     0.49370   0.22850   0.66570   0.01267  Uiso   1.00
H117   H     0.58060   0.98420   0.38360   0.01267  Uiso   1.00
H118   H     0.59900   0.01860   0.31600   0.01267  Uiso   1.00
H119   H     0.79090   0.20510   0.38440   0.01267  Uiso   1.00
H120   H     0.77370   0.16870   0.45140   0.01267  Uiso   1.00
H121   H     0.95140   0.91880   0.61130   0.01267  Uiso   1.00
H122   H     0.04620   0.81840   0.62320   0.01267  Uiso   1.00
H123   H     0.87130   0.63070   0.54240   0.01267  Uiso   1.00
H124   H     0.77410   0.72490   0.53250   0.01267  Uiso   1.00
H125   H     0.52280   0.86380   0.68960   0.01267  Uiso   1.00
H126   H     0.48960   0.83620   0.75540   0.01267  Uiso   1.00
H127   H     0.64450   0.04850   0.82700   0.01267  Uiso   1.00
H128   H     0.67570   0.07930   0.76040   0.01267  Uiso   1.00
H129   H     0.49870   0.31650   0.55100   0.01267  Uiso   1.00
H130   H     0.39880   0.41300   0.55490   0.01267  Uiso   1.00
H131   H     0.25170   0.25270   0.60460   0.01267  Uiso   1.00
H132   H     0.34850   0.15650   0.59950   0.01267  Uiso   1.00
H133   H     0.09880   0.90980   0.33740   0.01267  Uiso   1.00
H134   H     0.15400   0.81880   0.38840   0.01267  Uiso   1.00
H135   H     0.35540   0.58420   0.38370   0.01267  Uiso   1.00
H136   H     0.44250   0.52470   0.33070   0.01267  Uiso   1.00
H137   H     0.14770   0.03130   0.29240   0.01267  Uiso   1.00
H138   H     0.05240   0.12560   0.29380   0.01267  Uiso   1.00
H139   H     0.14100   0.58940   0.37500   0.01267  Uiso   1.00
H140   H     0.12660   0.56400   0.44570   0.01267  Uiso   1.00
H141   H     0.32110   0.74210   0.50570   0.01267  Uiso   1.00
H142   H     0.33490   0.77310   0.43820   0.01267  Uiso   1.00
H143   H     0.58080   0.59700   0.29230   0.01267  Uiso   1.00
H144   H     0.67870   0.50130   0.29280   0.01267  Uiso   1.00
C1     C     0.13070   0.51690   0.03280   0.01267  Uiso   1.00
C2     C     0.14980   0.47900   0.99080   0.01267  Uiso   1.00
C3     C     0.12060   0.52680   0.96080   0.01267  Uiso   1.00
C4     C     0.08080   0.59180   0.98430   0.01267  Uiso   1.00
C5     C     0.05380   0.66100   0.96700   0.01267  Uiso   1.00
C6     C     0.01380   0.72040   0.99140   0.01267  Uiso   1.00
C7     C     0.98130   0.79010   0.97390   0.01267  Uiso   1.00
C8     C     0.93500   0.82640   0.00230   0.01267  Uiso   1.00
C9     C     0.93730   0.77730   0.03710   0.01267  Uiso   1.00
C10    C     0.89000   0.78680   0.07050   0.01267  Uiso   1.00
C11    C     0.89480   0.73880   0.10340   0.01267  Uiso   1.00
C12    C     0.84230   0.74570   0.13670   0.01267  Uiso   1.00
C13    C     0.87100   0.69660   0.16450   0.01267  Uiso   1.00
C14    C     0.94040   0.66040   0.15000   0.01267  Uiso   1.00
C15    C     0.99550   0.61750   0.17490   0.01267  Uiso   1.00
C16    C     0.06660   0.58860   0.15980   0.01267  Uiso   1.00
C17    C     0.12930   0.55130   0.18530   0.01267  Uiso   1.00
C18    C     0.17950   0.51990   0.15780   0.01267  Uiso   1.00
C19    C     0.14400   0.53420   0.11420   0.01267  Uiso   1.00
C20    C     0.16410   0.49790   0.07400   0.01267  Uiso   1.00
C21    C     0.07300   0.67320   0.92350   0.01267  Uiso   1.00
C22    C     0.02940   0.62320   0.88380   0.01267  Uiso   1.00
C23    C     0.05020   0.63380   0.84360   0.01267  Uiso   1.00
C24    C     0.11740   0.69560   0.84340   0.01267  Uiso   1.00
C25    C     0.16030   0.74750   0.88410   0.01267  Uiso   1.00
C26    C     0.13910   0.73750   0.92380   0.01267  Uiso   1.00
C27    C     0.14200   0.70480   0.80030   0.01267  Uiso   1.00
C28    C     0.83030   0.85150   0.07130   0.01267  Uiso   1.00
C29    C     0.85990   0.93430   0.09810   0.01267  Uiso   1.00
C30    C     0.79980   0.99100   0.10470   0.01267  Uiso   1.00
C31    C     0.71290   0.96650   0.08430   0.01267  Uiso   1.00
C32    C     0.68880   0.88740   0.05740   0.01267  Uiso   1.00
C33    C     0.74500   0.82920   0.05090   0.01267  Uiso   1.00
C34    C     0.65040   0.02480   0.09260   0.01267  Uiso   1.00
C35    C     0.97600   0.60160   0.21830   0.01267  Uiso   1.00
C36    C     0.90260   0.54660   0.21740   0.01267  Uiso   1.00
C37    C     0.88670   0.52670   0.25660   0.01267  Uiso   1.00
C38    C     0.94140   0.55880   0.29740   0.01267  Uiso   1.00
C39    C     0.01230   0.61770   0.29890   0.01267  Uiso   1.00
C40    C     0.02970   0.63730   0.25920   0.01267  Uiso   1.00
C41    C     0.92850   0.53150   0.33840   0.01267  Uiso   1.00
C42    C     0.22720   0.43440   0.07580   0.01267  Uiso   1.00
C43    C     0.30320   0.44880   0.06200   0.01267  Uiso   1.00
C44    C     0.36070   0.38910   0.06420   0.01267  Uiso   1.00
C45    C     0.34130   0.31690   0.07970   0.01267  Uiso   1.00
C46    C     0.26560   0.30140   0.09340   0.01267  Uiso   1.00
C47    C     0.20930   0.35970   0.09080   0.01267  Uiso   1.00
C48    C     0.40260   0.25300   0.08190   0.01267  Uiso   1.00
C49    C     0.84100   0.16220   0.78990   0.01267  Uiso   1.00
C50    C     0.86660   0.13340   0.83120   0.01267  Uiso   1.00
C51    C     0.81810   0.16430   0.85910   0.01267  Uiso   1.00
C52    C     0.76440   0.21600   0.83690   0.01267  Uiso   1.00
C53    C     0.70220   0.25500   0.85540   0.01267  Uiso   1.00
C54    C     0.65430   0.30850   0.83430   0.01267  Uiso   1.00
C55    C     0.59700   0.35660   0.85500   0.01267  Uiso   1.00
C56    C     0.56470   0.40410   0.82630   0.01267  Uiso   1.00
C57    C     0.60200   0.38560   0.78820   0.01267  Uiso   1.00
C58    C     0.01350   0.09130   0.77510   0.01267  Uiso   1.00
C59    C     0.07010   0.03450   0.77550   0.01267  Uiso   1.00
C60    C     0.68680   0.24080   0.89930   0.01267  Uiso   1.00
C61    C     0.62220   0.17820   0.90160   0.01267  Uiso   1.00
C62    C     0.60630   0.17110   0.94460   0.01267  Uiso   1.00
C63    C     0.64760   0.22420   0.98450   0.01267  Uiso   1.00
C64    C     0.70970   0.28310   0.97930   0.01267  Uiso   1.00
C65    C     0.72880   0.29160   0.93860   0.01267  Uiso   1.00
C66    C     0.62850   0.21610   0.02620   0.01267  Uiso   1.00
C67    C     0.54060   0.56400   0.77490   0.01267  Uiso   1.00
C68    C     0.48380   0.62260   0.77530   0.01267  Uiso   1.00
C69    C     0.48310   0.86930   0.46720   0.01267  Uiso   1.00
C70    C     0.52100   0.85020   0.50920   0.01267  Uiso   1.00
C71    C     0.47320   0.87940   0.53920   0.01267  Uiso   1.00
C72    C     0.40820   0.91920   0.51570   0.01267  Uiso   1.00
C73    C     0.33900   0.94620   0.53300   0.01267  Uiso   1.00
C74    C     0.27960   0.98620   0.50860   0.01267  Uiso   1.00
C75    C     0.20990   0.01870   0.52610   0.01267  Uiso   1.00
C76    C     0.17360   0.06500   0.49770   0.01267  Uiso   1.00
C77    C     0.22270   0.06270   0.46290   0.01267  Uiso   1.00
C78    C     0.21320   0.11000   0.42950   0.01267  Uiso   1.00
C79    C     0.26120   0.10520   0.39660   0.01267  Uiso   1.00
C80    C     0.25430   0.15770   0.36330   0.01267  Uiso   1.00
C81    C     0.30340   0.12900   0.33550   0.01267  Uiso   1.00
C82    C     0.33960   0.05960   0.35000   0.01267  Uiso   1.00
C83    C     0.38250   0.00450   0.32510   0.01267  Uiso   1.00
C84    C     0.41140   0.93340   0.34020   0.01267  Uiso   1.00
C85    C     0.44870   0.87070   0.31470   0.01267  Uiso   1.00
C86    C     0.48010   0.82050   0.34220   0.01267  Uiso   1.00
C87    C     0.46580   0.85600   0.38580   0.01267  Uiso   1.00
C88    C     0.50210   0.83590   0.42600   0.01267  Uiso   1.00
C89    C     0.32680   0.92700   0.57650   0.01267  Uiso   1.00
C90    C     0.37680   0.97060   0.61620   0.01267  Uiso   1.00
C91    C     0.36620   0.94980   0.65640   0.01267  Uiso   1.00
C92    C     0.30440   0.88260   0.65660   0.01267  Uiso   1.00
C93    C     0.25250   0.83970   0.61590   0.01267  Uiso   1.00
C94    C     0.26250   0.86090   0.57620   0.01267  Uiso   1.00
C95    C     0.29520   0.85800   0.69970   0.01267  Uiso   1.00
C96    C     0.14850   0.16970   0.42870   0.01267  Uiso   1.00
C97    C     0.06570   0.14010   0.40190   0.01267  Uiso   1.00
C98    C     0.00900   0.20020   0.39530   0.01267  Uiso   1.00
C99    C     0.03350   0.28710   0.41570   0.01267  Uiso   1.00
C100   C     0.11260   0.31120   0.44260   0.01267  Uiso   1.00
C101   C     0.17080   0.25500   0.44910   0.01267  Uiso   1.00
C102   C     0.97520   0.34960   0.40740   0.01267  Uiso   1.00
C103   C     0.39840   0.02400   0.28170   0.01267  Uiso   1.00
C104   C     0.45340   0.09740   0.28260   0.01267  Uiso   1.00
C105   C     0.47330   0.11330   0.24340   0.01267  Uiso   1.00
C106   C     0.44120   0.05860   0.20260   0.01267  Uiso   1.00
C107   C     0.38230   0.98770   0.20110   0.01267  Uiso   1.00
C108   C     0.36270   0.97030   0.24080   0.01267  Uiso   1.00
C109   C     0.46850   0.07150   0.16160   0.01267  Uiso   1.00
C110   C     0.56560   0.77280   0.42420   0.01267  Uiso   1.00
C111   C     0.55120   0.69680   0.43800   0.01267  Uiso   1.00
C112   C     0.61090   0.63930   0.43580   0.01267  Uiso   1.00
C113   C     0.68310   0.65870   0.42030   0.01267  Uiso   1.00
C114   C     0.69860   0.73440   0.40660   0.01267  Uiso   1.00
C115   C     0.64030   0.79070   0.40920   0.01267  Uiso   1.00
C116   C     0.74700   0.59740   0.41810   0.01267  Uiso   1.00
C117   C     0.83780   0.15900   0.71010   0.01267  Uiso   1.00
C118   C     0.86660   0.13340   0.66880   0.01267  Uiso   1.00
C119   C     0.83570   0.18190   0.64090   0.01267  Uiso   1.00
C120   C     0.78400   0.23560   0.66310   0.01267  Uiso   1.00
C121   C     0.74500   0.29780   0.64460   0.01267  Uiso   1.00
C122   C     0.69150   0.34570   0.66570   0.01267  Uiso   1.00
C123   C     0.64340   0.40300   0.64500   0.01267  Uiso   1.00
C124   C     0.59590   0.43530   0.67370   0.01267  Uiso   1.00
C125   C     0.61440   0.39800   0.71180   0.01267  Uiso   1.00
C126   C     0.90870   0.98650   0.72490   0.01267  Uiso   1.00
C127   C     0.96550   0.92990   0.72450   0.01267  Uiso   1.00
C128   C     0.75920   0.31320   0.60070   0.01267  Uiso   1.00
C129   C     0.82180   0.37780   0.59840   0.01267  Uiso   1.00
C130   C     0.82890   0.39370   0.55540   0.01267  Uiso   1.00
C131   C     0.77580   0.35240   0.51550   0.01267  Uiso   1.00
C132   C     0.71690   0.29030   0.52070   0.01267  Uiso   1.00
C133   C     0.70840   0.27120   0.56140   0.01267  Uiso   1.00
C134   C     0.78390   0.37150   0.47380   0.01267  Uiso   1.00
C135   C     0.43600   0.45940   0.72510   0.01267  Uiso   1.00
C136   C     0.37740   0.51620   0.72470   0.01267  Uiso   1.00
C137   C     0.86930   0.48310   0.96720   0.01267  Uiso   1.00
C138   C     0.85020   0.52100   0.00920   0.01267  Uiso   1.00
C139   C     0.87940   0.47320   0.03920   0.01267  Uiso   1.00
C140   C     0.91920   0.40820   0.01570   0.01267  Uiso   1.00
C141   C     0.94620   0.33900   0.03300   0.01267  Uiso   1.00
C142   C     0.98620   0.27960   0.00860   0.01267  Uiso   1.00
C143   C     0.01870   0.20990   0.02610   0.01267  Uiso   1.00
C144   C     0.06500   0.17360   0.99770   0.01267  Uiso   1.00
C145   C     0.06270   0.22270   0.96290   0.01267  Uiso   1.00
C146   C     0.11000   0.21320   0.92950   0.01267  Uiso   1.00
C147   C     0.10520   0.26120   0.89660   0.01267  Uiso   1.00
C148   C     0.15770   0.25430   0.86330   0.01267  Uiso   1.00
C149   C     0.12900   0.30340   0.83550   0.01267  Uiso   1.00
C150   C     0.05960   0.33960   0.85000   0.01267  Uiso   1.00
C151   C     0.00450   0.38250   0.82510   0.01267  Uiso   1.00
C152   C     0.93340   0.41140   0.84020   0.01267  Uiso   1.00
C153   C     0.87070   0.44870   0.81470   0.01267  Uiso   1.00
C154   C     0.82050   0.48010   0.84220   0.01267  Uiso   1.00
C155   C     0.85600   0.46580   0.88580   0.01267  Uiso   1.00
C156   C     0.83590   0.50210   0.92600   0.01267  Uiso   1.00
C157   C     0.92700   0.32680   0.07650   0.01267  Uiso   1.00
C158   C     0.97060   0.37680   0.11620   0.01267  Uiso   1.00
C159   C     0.94980   0.36620   0.15640   0.01267  Uiso   1.00
C160   C     0.88260   0.30440   0.15660   0.01267  Uiso   1.00
C161   C     0.83970   0.25250   0.11590   0.01267  Uiso   1.00
C162   C     0.86090   0.26250   0.07620   0.01267  Uiso   1.00
C163   C     0.85800   0.29520   0.19970   0.01267  Uiso   1.00
C164   C     0.16970   0.14850   0.92870   0.01267  Uiso   1.00
C165   C     0.14010   0.06570   0.90190   0.01267  Uiso   1.00
C166   C     0.20020   0.00900   0.89530   0.01267  Uiso   1.00
C167   C     0.28710   0.03350   0.91570   0.01267  Uiso   1.00
C168   C     0.31120   0.11260   0.94260   0.01267  Uiso   1.00
C169   C     0.25500   0.17080   0.94910   0.01267  Uiso   1.00
C170   C     0.34960   0.97520   0.90740   0.01267  Uiso   1.00
C171   C     0.02400   0.39840   0.78170   0.01267  Uiso   1.00
C172   C     0.09740   0.45340   0.78260   0.01267  Uiso   1.00
C173   C     0.11330   0.47330   0.74340   0.01267  Uiso   1.00
C174   C     0.05860   0.44120   0.70260   0.01267  Uiso   1.00
C175   C     0.98770   0.38230   0.70110   0.01267  Uiso   1.00
C176   C     0.97030   0.36270   0.74080   0.01267  Uiso   1.00
C177   C     0.07150   0.46850   0.66160   0.01267  Uiso   1.00
C178   C     0.77280   0.56560   0.92420   0.01267  Uiso   1.00
C179   C     0.69680   0.55120   0.93800   0.01267  Uiso   1.00
C180   C     0.63930   0.61090   0.93580   0.01267  Uiso   1.00
C181   C     0.65870   0.68310   0.92030   0.01267  Uiso   1.00
C182   C     0.73440   0.69860   0.90660   0.01267  Uiso   1.00
C183   C     0.79070   0.64030   0.90920   0.01267  Uiso   1.00
C184   C     0.59740   0.74700   0.91810   0.01267  Uiso   1.00
C185   C     0.15900   0.83780   0.21010   0.01267  Uiso   1.00
C186   C     0.13340   0.86660   0.16880   0.01267  Uiso   1.00
C187   C     0.18190   0.83570   0.14090   0.01267  Uiso   1.00
C188   C     0.23560   0.78400   0.16310   0.01267  Uiso   1.00
C189   C     0.29780   0.74500   0.14460   0.01267  Uiso   1.00
C190   C     0.34570   0.69150   0.16570   0.01267  Uiso   1.00
C191   C     0.40300   0.64340   0.14500   0.01267  Uiso   1.00
C192   C     0.43530   0.59590   0.17370   0.01267  Uiso   1.00
C193   C     0.39800   0.61440   0.21180   0.01267  Uiso   1.00
C194   C     0.98650   0.90870   0.22490   0.01267  Uiso   1.00
C195   C     0.92990   0.96550   0.22450   0.01267  Uiso   1.00
C196   C     0.31320   0.75920   0.10070   0.01267  Uiso   1.00
C197   C     0.37780   0.82180   0.09840   0.01267  Uiso   1.00
C198   C     0.39370   0.82890   0.05540   0.01267  Uiso   1.00
C199   C     0.35240   0.77580   0.01550   0.01267  Uiso   1.00
C200   C     0.29030   0.71690   0.02070   0.01267  Uiso   1.00
C201   C     0.27120   0.70840   0.06140   0.01267  Uiso   1.00
C202   C     0.37150   0.78390   0.97380   0.01267  Uiso   1.00
C203   C     0.45940   0.43600   0.22510   0.01267  Uiso   1.00
C204   C     0.51620   0.37740   0.22470   0.01267  Uiso   1.00
C205   C     0.51690   0.13070   0.53280   0.01267  Uiso   1.00
C206   C     0.47900   0.14980   0.49080   0.01267  Uiso   1.00
C207   C     0.52680   0.12060   0.46080   0.01267  Uiso   1.00
C208   C     0.59180   0.08080   0.48430   0.01267  Uiso   1.00
C209   C     0.66100   0.05380   0.46700   0.01267  Uiso   1.00
C210   C     0.72040   0.01380   0.49140   0.01267  Uiso   1.00
C211   C     0.79010   0.98130   0.47390   0.01267  Uiso   1.00
C212   C     0.82640   0.93500   0.50230   0.01267  Uiso   1.00
C213   C     0.77730   0.93730   0.53710   0.01267  Uiso   1.00
C214   C     0.78680   0.89000   0.57050   0.01267  Uiso   1.00
C215   C     0.73880   0.89480   0.60340   0.01267  Uiso   1.00
C216   C     0.74570   0.84230   0.63670   0.01267  Uiso   1.00
C217   C     0.69660   0.87100   0.66450   0.01267  Uiso   1.00
C218   C     0.66040   0.94040   0.65000   0.01267  Uiso   1.00
C219   C     0.61750   0.99550   0.67490   0.01267  Uiso   1.00
C220   C     0.58860   0.06660   0.65980   0.01267  Uiso   1.00
C221   C     0.55130   0.12930   0.68530   0.01267  Uiso   1.00
C222   C     0.51990   0.17950   0.65780   0.01267  Uiso   1.00
C223   C     0.53420   0.14400   0.61420   0.01267  Uiso   1.00
C224   C     0.49790   0.16410   0.57400   0.01267  Uiso   1.00
C225   C     0.67320   0.07300   0.42350   0.01267  Uiso   1.00
C226   C     0.62320   0.02940   0.38380   0.01267  Uiso   1.00
C227   C     0.63380   0.05020   0.34360   0.01267  Uiso   1.00
C228   C     0.69560   0.11740   0.34340   0.01267  Uiso   1.00
C229   C     0.74750   0.16030   0.38410   0.01267  Uiso   1.00
C230   C     0.73750   0.13910   0.42380   0.01267  Uiso   1.00
C231   C     0.70480   0.14200   0.30030   0.01267  Uiso   1.00
C232   C     0.85150   0.83030   0.57130   0.01267  Uiso   1.00
C233   C     0.93430   0.85990   0.59810   0.01267  Uiso   1.00
C234   C     0.99100   0.79980   0.60470   0.01267  Uiso   1.00
C235   C     0.96650   0.71290   0.58430   0.01267  Uiso   1.00
C236   C     0.88740   0.68880   0.55740   0.01267  Uiso   1.00
C237   C     0.82920   0.74500   0.55090   0.01267  Uiso   1.00
C238   C     0.02480   0.65040   0.59260   0.01267  Uiso   1.00
C239   C     0.60160   0.97600   0.71830   0.01267  Uiso   1.00
C240   C     0.54660   0.90260   0.71740   0.01267  Uiso   1.00
C241   C     0.52670   0.88670   0.75660   0.01267  Uiso   1.00
C242   C     0.55880   0.94140   0.79740   0.01267  Uiso   1.00
C243   C     0.61770   0.01230   0.79890   0.01267  Uiso   1.00
C244   C     0.63730   0.02970   0.75920   0.01267  Uiso   1.00
C245   C     0.53150   0.92850   0.83840   0.01267  Uiso   1.00
C246   C     0.43440   0.22720   0.57580   0.01267  Uiso   1.00
C247   C     0.44880   0.30320   0.56200   0.01267  Uiso   1.00
C248   C     0.38910   0.36070   0.56420   0.01267  Uiso   1.00
C249   C     0.31690   0.34130   0.57970   0.01267  Uiso   1.00
C250   C     0.30140   0.26560   0.59340   0.01267  Uiso   1.00
C251   C     0.35970   0.20930   0.59080   0.01267  Uiso   1.00
C252   C     0.25300   0.40260   0.58190   0.01267  Uiso   1.00
C253   C     0.16220   0.84100   0.28990   0.01267  Uiso   1.00
C254   C     0.13340   0.86660   0.33120   0.01267  Uiso   1.00
C255   C     0.16430   0.81810   0.35910   0.01267  Uiso   1.00
C256   C     0.21600   0.76440   0.33690   0.01267  Uiso   1.00
C257   C     0.25500   0.70220   0.35540   0.01267  Uiso   1.00
C258   C     0.30850   0.65430   0.33430   0.01267  Uiso   1.00
C259   C     0.35660   0.59700   0.35500   0.01267  Uiso   1.00
C260   C     0.40410   0.56470   0.32630   0.01267  Uiso   1.00
C261   C     0.38560   0.60200   0.28820   0.01267  Uiso   1.00
C262   C     0.09130   0.01350   0.27510   0.01267  Uiso   1.00
C263   C     0.03450   0.07010   0.27550   0.01267  Uiso   1.00
C264   C     0.24080   0.68680   0.39930   0.01267  Uiso   1.00
C265   C     0.17820   0.62220   0.40160   0.01267  Uiso   1.00
C266   C     0.17110   0.60630   0.44460   0.01267  Uiso   1.00
C267   C     0.22420   0.64760   0.48450   0.01267  Uiso   1.00
C268   C     0.28310   0.70970   0.47930   0.01267  Uiso   1.00
C269   C     0.29160   0.72880   0.43860   0.01267  Uiso   1.00
C270   C     0.21610   0.62850   0.52620   0.01267  Uiso   1.00
C271   C     0.56400   0.54060   0.27490   0.01267  Uiso   1.00
C272   C     0.62260   0.48380   0.27530   0.01267  Uiso   1.00
C273   C     0.86730   0.13270   0.75000   0.01267  Uiso   1.00
C274   C     0.57920   0.42080   0.75000   0.01267  Uiso   1.00
C275   C     0.93030   0.06970   0.75000   0.01267  Uiso   1.00
C276   C     0.05010   0.94990   0.75000   0.01267  Uiso   1.00
C277   C     0.10890   0.89110   0.75000   0.01267  Uiso   1.00
C278   C     0.51760   0.48240   0.75000   0.01267  Uiso   1.00
C279   C     0.40080   0.59920   0.75000   0.01267  Uiso   1.00
C280   C     0.33830   0.66170   0.75000   0.01267  Uiso   1.00
C281   C     0.13270   0.86730   0.25000   0.01267  Uiso   1.00
C282   C     0.42080   0.57920   0.25000   0.01267  Uiso   1.00
C283   C     0.06970   0.93030   0.25000   0.01267  Uiso   1.00
C284   C     0.94990   0.05010   0.25000   0.01267  Uiso   1.00
C285   C     0.89110   0.10890   0.25000   0.01267  Uiso   1.00
C286   C     0.48240   0.51760   0.25000   0.01267  Uiso   1.00
C287   C     0.59920   0.40080   0.25000   0.01267  Uiso   1.00
C288   C     0.66170   0.33830   0.25000   0.01267  Uiso   1.00
N1     N     0.08300   0.58260   0.02807   0.01267  Uiso   1.00
N2     N     0.98880   0.71340   0.03050   0.01267  Uiso   1.00
N3     N     0.95220   0.68440   0.11071   0.01267  Uiso   1.00
N4     N     0.07850   0.58350   0.11724   0.01267  Uiso   1.00
N5     N     0.77890   0.21510   0.79428   0.01267  Uiso   1.00
N6     N     0.65660   0.32520   0.79299   0.01267  Uiso   1.00
N7     N     0.41740   0.91700   0.47193   0.01267  Uiso   1.00
N8     N     0.28660   0.01120   0.46950   0.01267  Uiso   1.00
N9     N     0.31560   0.04780   0.38929   0.01267  Uiso   1.00
N10    N     0.41650   0.92150   0.38276   0.01267  Uiso   1.00
N11    N     0.78490   0.22110   0.70572   0.01267  Uiso   1.00
N12    N     0.67480   0.34340   0.70701   0.01267  Uiso   1.00
N13    N     0.91700   0.41740   0.97193   0.01267  Uiso   1.00
N14    N     0.01120   0.28660   0.96950   0.01267  Uiso   1.00
N15    N     0.04780   0.31560   0.88929   0.01267  Uiso   1.00
N16    N     0.92150   0.41650   0.88276   0.01267  Uiso   1.00
N17    N     0.22110   0.78490   0.20572   0.01267  Uiso   1.00
N18    N     0.34340   0.67480   0.20701   0.01267  Uiso   1.00
N19    N     0.58260   0.08300   0.52807   0.01267  Uiso   1.00
N20    N     0.71340   0.98880   0.53050   0.01267  Uiso   1.00
N21    N     0.68440   0.95220   0.61071   0.01267  Uiso   1.00
N22    N     0.58350   0.07850   0.61724   0.01267  Uiso   1.00
N23    N     0.21510   0.77890   0.29428   0.01267  Uiso   1.00
N24    N     0.32520   0.65660   0.29299   0.01267  Uiso   1.00
O1     O     0.09912   0.65828   0.76423   0.01267  Uiso   1.00
O2     O     0.20550   0.75950   0.80117   0.01267  Uiso   1.00
O3     O     0.57481   0.00379   0.07239   0.01267  Uiso   1.00
O4     O     0.67537   0.09523   0.12082   0.01267  Uiso   1.00
O5     O     0.87708   0.46052   0.33337   0.01267  Uiso   1.00
O6     O     0.96366   0.57154   0.37664   0.01267  Uiso   1.00
O7     O     0.40400   0.20660   0.11020   0.01267  Uiso   1.00
O8     O     0.45330   0.24710   0.05440   0.01267  Uiso   1.00
O9     O     0.08663   0.81537   0.72602   0.01267  Uiso   1.00
O10    O     0.65380   0.27920   0.05950   0.01267  Uiso   1.00
O11    O     0.58660   0.15240   0.03130   0.01267  Uiso   1.00
O12    O     0.36287   0.73553   0.77276   0.01267  Uiso   1.00
O13    O     0.34172   0.90088   0.73577   0.01267  Uiso   1.00
O14    O     0.24050   0.79450   0.69883   0.01267  Uiso   1.00
O15    O     0.99621   0.42519   0.42761   0.01267  Uiso   1.00
O16    O     0.90477   0.32463   0.37918   0.01267  Uiso   1.00
O17    O     0.53948   0.12292   0.16663   0.01267  Uiso   1.00
O18    O     0.42846   0.03634   0.12336   0.01267  Uiso   1.00
O19    O     0.79340   0.59600   0.38980   0.01267  Uiso   1.00
O20    O     0.75290   0.54670   0.44560   0.01267  Uiso   1.00
O21    O     0.18463   0.91337   0.77398   0.01267  Uiso   1.00
O22    O     0.72080   0.34620   0.44050   0.01267  Uiso   1.00
O23    O     0.84760   0.41340   0.46870   0.01267  Uiso   1.00
O24    O     0.26447   0.63713   0.72724   0.01267  Uiso   1.00
O25    O     0.90088   0.34172   0.23577   0.01267  Uiso   1.00
O26    O     0.79450   0.24050   0.19883   0.01267  Uiso   1.00
O27    O     0.42519   0.99621   0.92761   0.01267  Uiso   1.00
O28    O     0.32463   0.90477   0.87918   0.01267  Uiso   1.00
O29    O     0.12292   0.53948   0.66663   0.01267  Uiso   1.00
O30    O     0.03634   0.42846   0.62336   0.01267  Uiso   1.00
O31    O     0.59600   0.79340   0.88980   0.01267  Uiso   1.00
O32    O     0.54670   0.75290   0.94560   0.01267  Uiso   1.00
O33    O     0.91337   0.18463   0.27398   0.01267  Uiso   1.00
O34    O     0.34620   0.72080   0.94050   0.01267  Uiso   1.00
O35    O     0.41340   0.84760   0.96870   0.01267  Uiso   1.00
O36    O     0.63713   0.26447   0.22724   0.01267  Uiso   1.00
O37    O     0.65828   0.09912   0.26423   0.01267  Uiso   1.00
O38    O     0.75950   0.20550   0.30117   0.01267  Uiso   1.00
O39    O     0.00379   0.57481   0.57239   0.01267  Uiso   1.00
O40    O     0.09523   0.67537   0.62082   0.01267  Uiso   1.00
O41    O     0.46052   0.87708   0.83337   0.01267  Uiso   1.00
O42    O     0.57154   0.96366   0.87664   0.01267  Uiso   1.00
O43    O     0.20660   0.40400   0.61020   0.01267  Uiso   1.00
O44    O     0.24710   0.45330   0.55440   0.01267  Uiso   1.00
O45    O     0.81537   0.08663   0.22602   0.01267  Uiso   1.00
O46    O     0.27920   0.65380   0.55950   0.01267  Uiso   1.00
O47    O     0.15240   0.58660   0.53130   0.01267  Uiso   1.00
O48    O     0.73553   0.36287   0.27276   0.01267  Uiso   1.00
