data_image0
_cell_length_a       8.5175
_cell_length_b       28.1745
_cell_length_c       21.4217
_cell_angle_alpha    90
_cell_angle_beta     97.1026
_cell_angle_gamma    90

_symmetry_space_group_name_H-M    "P 1"
_symmetry_int_tables_number       1

loop_
  _symmetry_equiv_pos_as_xyz
  'x, y, z'

loop_
  _atom_site_label
  _atom_site_occupancy
  _atom_site_fract_x
  _atom_site_fract_y
  _atom_site_fract_z
  _atom_site_thermal_displace_type
  _atom_site_B_iso_or_equiv
  _atom_site_type_symbol
  Er1      1.0000 0.29497  0.05831  0.00644  Biso   1.000  Er
  C1       1.0000 0.69640  0.94465  0.52510  Biso   1.000  C
  C2       1.0000 0.60970  0.91610  0.56610  Biso   1.000  C
  H1       1.0000 0.58820  0.88300  0.56260  Biso   1.000  H
  C3       1.0000 0.56630  0.94586  0.61020  Biso   1.000  C
  H2       1.0000 0.50710  0.93760  0.64340  Biso   1.000  H
  C4       1.0000 0.62520  0.99228  0.59800  Biso   1.000  C
  C5       1.0000 0.61460  0.03280  0.63660  Biso   1.000  C
  C6       1.0000 0.65620  0.07873  0.62010  Biso   1.000  C
  C7       1.0000 0.65920  0.12053  0.65890  Biso   1.000  C
  H3       1.0000 0.64530  0.12130  0.70220  Biso   1.000  H
  C8       1.0000 0.68500  0.15810  0.62350  Biso   1.000  C
  H4       1.0000 0.69070  0.19030  0.63670  Biso   1.000  H
  C9       1.0000 0.70280  0.14016  0.56070  Biso   1.000  C
  C10      1.0000 0.71910  0.16860  0.50780  Biso   1.000  C
  C11      1.0000 0.75210  0.15069  0.44930  Biso   1.000  C
  C12      1.0000 0.76990  0.17965  0.39470  Biso   1.000  C
  H5       1.0000 0.75230  0.21290  0.39070  Biso   1.000  H
  C13      1.0000 0.81640  0.15038  0.35060  Biso   1.000  C
  H6       1.0000 0.83570  0.15930  0.30950  Biso   1.000  H
  C14      1.0000 0.83150  0.10328  0.37680  Biso   1.000  C
  C15      1.0000 0.88590  0.06300  0.34770  Biso   1.000  C
  C16      1.0000 0.88940  0.01669  0.37300  Biso   1.000  C
  C17      1.0000 0.95980  0.97540  0.34770  Biso   1.000  C
  H7       1.0000 0.01720  0.97500  0.31240  Biso   1.000  H
  C18      1.0000 0.92980  0.93760  0.38300  Biso   1.000  C
  H8       1.0000 0.96250  0.90580  0.37730  Biso   1.000  H
  C19      1.0000 0.83890  0.95458  0.43070  Biso   1.000  C
  C20      1.0000 0.77230  0.92671  0.47520  Biso   1.000  C
  N1       1.0000 0.69710  0.99062  0.54432  Biso   1.000  N
  H9       1.0000 0.73650  0.01490  0.52560  Biso   1.000  H
  N2       1.0000 0.68900  0.09221  0.56132  Biso   1.000  N
  H10      1.0000 0.69920  0.07300  0.52960  Biso   1.000  H
  N3       1.0000 0.78780  0.10481  0.43632  Biso   1.000  N
  H11      1.0000 0.78350  0.08040  0.46170  Biso   1.000  H
  N4       1.0000 0.82120  0.00297  0.42461  Biso   1.000  N
  H12      1.0000 0.77440  0.02170  0.44950  Biso   1.000  H
  C21      1.0000 0.56660  0.02560  0.70050  Biso   1.000  C
  C22      1.0000 0.45270  0.05415  0.72340  Biso   1.000  C
  H13      1.0000 0.39520  0.07630  0.69610  Biso   1.000  H
  C23      1.0000 0.42210  0.05078  0.78510  Biso   1.000  C
  H14      1.0000 0.34730  0.07140  0.80040  Biso   1.000  H
  C24      1.0000 0.50080  0.01714  0.82460  Biso   1.000  C
  C25      1.0000 0.60530  0.98640  0.80120  Biso   1.000  C
  H15      1.0000 0.65330  0.96170  0.82700  Biso   1.000  H
  C26      1.0000 0.64030  0.99150  0.74030  Biso   1.000  C
  H16      1.0000 0.71650  0.97110  0.72540  Biso   1.000  H
  C27      1.0000 0.47610  0.01510  0.89280  Biso   1.000  C
  O1       1.0000 0.39600  0.04689  0.91406  Biso   1.000  O
  O2       1.0000 0.53800  0.98077  0.92567  Biso   1.000  O
  C28      1.0000 0.69590  0.22037  0.51380  Biso   1.000  C
  C29      1.0000 0.55510  0.24110  0.48130  Biso   1.000  C
  H17      1.0000 0.48070  0.22240  0.45540  Biso   1.000  H
  C30      1.0000 0.53080  0.28950  0.48880  Biso   1.000  C
  H18      1.0000 0.43780  0.30390  0.46800  Biso   1.000  H
  C31      1.0000 0.63900  0.31710  0.52600  Biso   1.000  C
  C32      1.0000 0.77410  0.29720  0.55580  Biso   1.000  C
  H19      1.0000 0.85040  0.31650  0.57990  Biso   1.000  H
  C33      1.0000 0.80010  0.24880  0.55080  Biso   1.000  C
  H20      1.0000 0.89180  0.23500  0.57350  Biso   1.000  H
  C34      1.0000 0.60810  0.37000  0.53010  Biso   1.000  C
  O3       1.0000 0.72270  0.39603  0.54980  Biso   1.000  O
  O4       1.0000 0.46900  0.38404  0.51210  Biso   1.000  O
  C35      1.0000 0.93780  0.06925  0.28420  Biso   1.000  C
  C36      1.0000 0.87450  0.04110  0.23440  Biso   1.000  C
  H21      1.0000 0.79380  0.01900  0.24080  Biso   1.000  H
  C37      1.0000 0.92520  0.04415  0.17550  Biso   1.000  C
  H22      1.0000 0.88140  0.02390  0.14250  Biso   1.000  H
  C38      1.0000 0.04140  0.07729  0.16510  Biso   1.000  C
  C39      1.0000 0.10380  0.10708  0.21370  Biso   1.000  C
  H23      1.0000 0.18010  0.13030  0.20630  Biso   1.000  H
  C40      1.0000 0.05440  0.10289  0.27340  Biso   1.000  C
  H24      1.0000 0.09950  0.12270  0.30670  Biso   1.000  H
  C41      1.0000 0.11240  0.07665  0.10440  Biso   1.000  C
  O5       1.0000 0.08490  0.04123  0.06764  Biso   1.000  O
  O6       1.0000 0.21250  0.10733  0.09229  Biso   1.000  O
  C42      1.0000 0.78450  0.87390  0.47030  Biso   1.000  C
  C43      1.0000 0.85340  0.84730  0.52220  Biso   1.000  C
  H25      1.0000 0.89330  0.86300  0.56010  Biso   1.000  H
  C44      1.0000 0.86340  0.79830  0.51830  Biso   1.000  C
  H26      1.0000 0.91070  0.78070  0.55350  Biso   1.000  H
  C45      1.0000 0.80410  0.77460  0.46290  Biso   1.000  C
  C46      1.0000 0.73630  0.80040  0.41190  Biso   1.000  C
  H27      1.0000 0.69640  0.78460  0.37410  Biso   1.000  H
  C47      1.0000 0.72590  0.84960  0.41560  Biso   1.000  C
  H28      1.0000 0.67810  0.86700  0.38020  Biso   1.000  H
  C48      1.0000 0.82120  0.72190  0.46120  Biso   1.000  C
  O7       1.0000 0.87030  0.69841  0.50684  Biso   1.000  O
  O8       1.0000 0.77280  0.70320  0.40494  Biso   1.000  O
  H29      1.0000 0.78740  0.67370  0.40620  Biso   1.000  H
  Er2      1.0000 0.70503  0.55831  0.49356  Biso   1.000  Er
  C49      1.0000 0.30360  0.44465  0.97490  Biso   1.000  C
  C50      1.0000 0.39030  0.41610  0.93390  Biso   1.000  C
  H30      1.0000 0.41180  0.38300  0.93740  Biso   1.000  H
  C51      1.0000 0.43370  0.44586  0.88980  Biso   1.000  C
  H31      1.0000 0.49290  0.43760  0.85660  Biso   1.000  H
  C52      1.0000 0.37480  0.49228  0.90200  Biso   1.000  C
  C53      1.0000 0.38540  0.53280  0.86340  Biso   1.000  C
  C54      1.0000 0.34380  0.57873  0.87990  Biso   1.000  C
  C55      1.0000 0.34080  0.62053  0.84110  Biso   1.000  C
  H32      1.0000 0.35470  0.62130  0.79780  Biso   1.000  H
  C56      1.0000 0.31500  0.65810  0.87650  Biso   1.000  C
  H33      1.0000 0.30930  0.69030  0.86330  Biso   1.000  H
  C57      1.0000 0.29720  0.64016  0.93930  Biso   1.000  C
  C58      1.0000 0.28090  0.66860  0.99220  Biso   1.000  C
  C59      1.0000 0.24790  0.65069  0.05070  Biso   1.000  C
  C60      1.0000 0.23010  0.67965  0.10530  Biso   1.000  C
  H34      1.0000 0.24770  0.71290  0.10930  Biso   1.000  H
  C61      1.0000 0.18360  0.65038  0.14940  Biso   1.000  C
  H35      1.0000 0.16430  0.65930  0.19050  Biso   1.000  H
  C62      1.0000 0.16850  0.60328  0.12320  Biso   1.000  C
  C63      1.0000 0.11410  0.56300  0.15230  Biso   1.000  C
  C64      1.0000 0.11060  0.51669  0.12700  Biso   1.000  C
  C65      1.0000 0.04020  0.47540  0.15230  Biso   1.000  C
  H36      1.0000 0.98280  0.47500  0.18760  Biso   1.000  H
  C66      1.0000 0.07020  0.43760  0.11700  Biso   1.000  C
  H37      1.0000 0.03750  0.40580  0.12270  Biso   1.000  H
  C67      1.0000 0.16110  0.45458  0.06930  Biso   1.000  C
  C68      1.0000 0.22770  0.42671  0.02480  Biso   1.000  C
  N5       1.0000 0.30290  0.49062  0.95568  Biso   1.000  N
  H38      1.0000 0.26350  0.51490  0.97440  Biso   1.000  H
  N6       1.0000 0.31100  0.59221  0.93868  Biso   1.000  N
  H39      1.0000 0.30080  0.57300  0.97040  Biso   1.000  H
  N7       1.0000 0.21220  0.60481  0.06368  Biso   1.000  N
  H40      1.0000 0.21650  0.58040  0.03830  Biso   1.000  H
  N8       1.0000 0.17880  0.50297  0.07539  Biso   1.000  N
  H41      1.0000 0.22560  0.52170  0.05050  Biso   1.000  H
  C69      1.0000 0.43340  0.52560  0.79950  Biso   1.000  C
  C70      1.0000 0.54730  0.55415  0.77660  Biso   1.000  C
  H42      1.0000 0.60480  0.57630  0.80390  Biso   1.000  H
  C71      1.0000 0.57790  0.55078  0.71490  Biso   1.000  C
  H43      1.0000 0.65270  0.57140  0.69960  Biso   1.000  H
  C72      1.0000 0.49920  0.51714  0.67540  Biso   1.000  C
  C73      1.0000 0.39470  0.48640  0.69880  Biso   1.000  C
  H44      1.0000 0.34670  0.46170  0.67300  Biso   1.000  H
  C74      1.0000 0.35970  0.49150  0.75970  Biso   1.000  C
  H45      1.0000 0.28350  0.47110  0.77460  Biso   1.000  H
  C75      1.0000 0.52390  0.51510  0.60720  Biso   1.000  C
  O9       1.0000 0.60400  0.54689  0.58594  Biso   1.000  O
  O10      1.0000 0.46200  0.48077  0.57433  Biso   1.000  O
  C76      1.0000 0.30410  0.72037  0.98620  Biso   1.000  C
  C77      1.0000 0.44490  0.74110  0.01870  Biso   1.000  C
  H46      1.0000 0.51930  0.72240  0.04460  Biso   1.000  H
  C78      1.0000 0.46920  0.78950  0.01120  Biso   1.000  C
  H47      1.0000 0.56220  0.80390  0.03200  Biso   1.000  H
  C79      1.0000 0.36100  0.81710  0.97400  Biso   1.000  C
  C80      1.0000 0.22590  0.79720  0.94420  Biso   1.000  C
  H48      1.0000 0.14960  0.81650  0.92010  Biso   1.000  H
  C81      1.0000 0.19990  0.74880  0.94920  Biso   1.000  C
  H49      1.0000 0.10820  0.73500  0.92650  Biso   1.000  H
  C82      1.0000 0.39190  0.87000  0.96990  Biso   1.000  C
  O11      1.0000 0.27730  0.89603  0.95020  Biso   1.000  O
  O12      1.0000 0.53100  0.88404  0.98790  Biso   1.000  O
  C83      1.0000 0.06220  0.56925  0.21580  Biso   1.000  C
  C84      1.0000 0.12550  0.54110  0.26560  Biso   1.000  C
  H50      1.0000 0.20620  0.51900  0.25920  Biso   1.000  H
  C85      1.0000 0.07480  0.54415  0.32450  Biso   1.000  C
  H51      1.0000 0.11860  0.52390  0.35750  Biso   1.000  H
  C86      1.0000 0.95860  0.57729  0.33490  Biso   1.000  C
  C87      1.0000 0.89620  0.60708  0.28630  Biso   1.000  C
  H52      1.0000 0.81990  0.63030  0.29370  Biso   1.000  H
  C88      1.0000 0.94560  0.60289  0.22660  Biso   1.000  C
  H53      1.0000 0.90050  0.62270  0.19330  Biso   1.000  H
  C89      1.0000 0.88760  0.57665  0.39560  Biso   1.000  C
  O13      1.0000 0.91510  0.54123  0.43236  Biso   1.000  O
  O14      1.0000 0.78750  0.60733  0.40771  Biso   1.000  O
  C90      1.0000 0.21550  0.37390  0.02970  Biso   1.000  C
  C91      1.0000 0.14660  0.34730  0.97780  Biso   1.000  C
  H54      1.0000 0.10670  0.36300  0.93990  Biso   1.000  H
  C92      1.0000 0.13660  0.29830  0.98170  Biso   1.000  C
  H55      1.0000 0.08930  0.28070  0.94650  Biso   1.000  H
  C93      1.0000 0.19590  0.27460  0.03710  Biso   1.000  C
  C94      1.0000 0.26370  0.30040  0.08810  Biso   1.000  C
  H56      1.0000 0.30360  0.28460  0.12590  Biso   1.000  H
  C95      1.0000 0.27410  0.34960  0.08440  Biso   1.000  C
  H57      1.0000 0.32190  0.36700  0.11980  Biso   1.000  H
  C96      1.0000 0.17880  0.22190  0.03880  Biso   1.000  C
  O15      1.0000 0.12970  0.19841  0.99316  Biso   1.000  O
  O16      1.0000 0.22720  0.20320  0.09506  Biso   1.000  O
  H58      1.0000 0.21260  0.17370  0.09380  Biso   1.000  H
  Er3      1.0000 0.70503  0.94169  0.99356  Biso   1.000  Er
  C97      1.0000 0.30360  0.05535  0.47490  Biso   1.000  C
  C98      1.0000 0.39030  0.08390  0.43390  Biso   1.000  C
  H59      1.0000 0.41180  0.11700  0.43740  Biso   1.000  H
  C99      1.0000 0.43370  0.05414  0.38980  Biso   1.000  C
  H60      1.0000 0.49290  0.06240  0.35660  Biso   1.000  H
  C100     1.0000 0.37480  0.00772  0.40200  Biso   1.000  C
  C101     1.0000 0.38540  0.96720  0.36340  Biso   1.000  C
  C102     1.0000 0.34380  0.92127  0.37990  Biso   1.000  C
  C103     1.0000 0.34080  0.87947  0.34110  Biso   1.000  C
  H61      1.0000 0.35470  0.87870  0.29780  Biso   1.000  H
  C104     1.0000 0.31500  0.84190  0.37650  Biso   1.000  C
  H62      1.0000 0.30930  0.80970  0.36330  Biso   1.000  H
  C105     1.0000 0.29720  0.85984  0.43930  Biso   1.000  C
  C106     1.0000 0.28090  0.83140  0.49220  Biso   1.000  C
  C107     1.0000 0.24790  0.84931  0.55070  Biso   1.000  C
  C108     1.0000 0.23010  0.82035  0.60530  Biso   1.000  C
  H63      1.0000 0.24770  0.78710  0.60930  Biso   1.000  H
  C109     1.0000 0.18360  0.84962  0.64940  Biso   1.000  C
  H64      1.0000 0.16430  0.84070  0.69050  Biso   1.000  H
  C110     1.0000 0.16850  0.89672  0.62320  Biso   1.000  C
  C111     1.0000 0.11410  0.93700  0.65230  Biso   1.000  C
  C112     1.0000 0.11060  0.98331  0.62700  Biso   1.000  C
  C113     1.0000 0.04020  0.02460  0.65230  Biso   1.000  C
  H65      1.0000 0.98280  0.02500  0.68760  Biso   1.000  H
  C114     1.0000 0.07020  0.06240  0.61700  Biso   1.000  C
  H66      1.0000 0.03750  0.09420  0.62270  Biso   1.000  H
  C115     1.0000 0.16110  0.04542  0.56930  Biso   1.000  C
  C116     1.0000 0.22770  0.07329  0.52480  Biso   1.000  C
  N9       1.0000 0.30290  0.00938  0.45568  Biso   1.000  N
  H67      1.0000 0.26350  0.98510  0.47440  Biso   1.000  H
  N10      1.0000 0.31100  0.90779  0.43868  Biso   1.000  N
  H68      1.0000 0.30080  0.92700  0.47040  Biso   1.000  H
  N11      1.0000 0.21220  0.89519  0.56368  Biso   1.000  N
  H69      1.0000 0.21650  0.91960  0.53830  Biso   1.000  H
  N12      1.0000 0.17880  0.99703  0.57539  Biso   1.000  N
  H70      1.0000 0.22560  0.97830  0.55050  Biso   1.000  H
  C117     1.0000 0.43340  0.97440  0.29950  Biso   1.000  C
  C118     1.0000 0.54730  0.94585  0.27660  Biso   1.000  C
  H71      1.0000 0.60480  0.92370  0.30390  Biso   1.000  H
  C119     1.0000 0.57790  0.94922  0.21490  Biso   1.000  C
  H72      1.0000 0.65270  0.92860  0.19960  Biso   1.000  H
  C120     1.0000 0.49920  0.98286  0.17540  Biso   1.000  C
  C121     1.0000 0.39470  0.01360  0.19880  Biso   1.000  C
  H73      1.0000 0.34670  0.03830  0.17300  Biso   1.000  H
  C122     1.0000 0.35970  0.00850  0.25970  Biso   1.000  C
  H74      1.0000 0.28350  0.02890  0.27460  Biso   1.000  H
  C123     1.0000 0.52390  0.98490  0.10720  Biso   1.000  C
  O17      1.0000 0.60400  0.95311  0.08594  Biso   1.000  O
  O18      1.0000 0.46200  0.01923  0.07433  Biso   1.000  O
  C124     1.0000 0.30410  0.77963  0.48620  Biso   1.000  C
  C125     1.0000 0.44490  0.75890  0.51870  Biso   1.000  C
  H75      1.0000 0.51930  0.77760  0.54460  Biso   1.000  H
  C126     1.0000 0.46920  0.71050  0.51120  Biso   1.000  C
  H76      1.0000 0.56220  0.69610  0.53200  Biso   1.000  H
  C127     1.0000 0.36100  0.68290  0.47400  Biso   1.000  C
  C128     1.0000 0.22590  0.70280  0.44420  Biso   1.000  C
  H77      1.0000 0.14960  0.68350  0.42010  Biso   1.000  H
  C129     1.0000 0.19990  0.75120  0.44920  Biso   1.000  C
  H78      1.0000 0.10820  0.76500  0.42650  Biso   1.000  H
  C130     1.0000 0.39190  0.63000  0.46990  Biso   1.000  C
  O19      1.0000 0.27730  0.60397  0.45020  Biso   1.000  O
  O20      1.0000 0.53100  0.61596  0.48790  Biso   1.000  O
  C131     1.0000 0.06220  0.93075  0.71580  Biso   1.000  C
  C132     1.0000 0.12550  0.95890  0.76560  Biso   1.000  C
  H79      1.0000 0.20620  0.98100  0.75920  Biso   1.000  H
  C133     1.0000 0.07480  0.95585  0.82450  Biso   1.000  C
  H80      1.0000 0.11860  0.97610  0.85750  Biso   1.000  H
  C134     1.0000 0.95860  0.92271  0.83490  Biso   1.000  C
  C135     1.0000 0.89620  0.89292  0.78630  Biso   1.000  C
  H81      1.0000 0.81990  0.86970  0.79370  Biso   1.000  H
  C136     1.0000 0.94560  0.89711  0.72660  Biso   1.000  C
  H82      1.0000 0.90050  0.87730  0.69330  Biso   1.000  H
  C137     1.0000 0.88760  0.92335  0.89560  Biso   1.000  C
  O21      1.0000 0.91510  0.95877  0.93236  Biso   1.000  O
  O22      1.0000 0.78750  0.89267  0.90771  Biso   1.000  O
  C138     1.0000 0.21550  0.12610  0.52970  Biso   1.000  C
  C139     1.0000 0.14660  0.15270  0.47780  Biso   1.000  C
  H83      1.0000 0.10670  0.13700  0.43990  Biso   1.000  H
  C140     1.0000 0.13660  0.20170  0.48170  Biso   1.000  C
  H84      1.0000 0.08930  0.21930  0.44650  Biso   1.000  H
  C141     1.0000 0.19590  0.22540  0.53710  Biso   1.000  C
  C142     1.0000 0.26370  0.19960  0.58810  Biso   1.000  C
  H85      1.0000 0.30360  0.21540  0.62590  Biso   1.000  H
  C143     1.0000 0.27410  0.15040  0.58440  Biso   1.000  C
  H86      1.0000 0.32190  0.13300  0.61980  Biso   1.000  H
  C144     1.0000 0.17880  0.27810  0.53880  Biso   1.000  C
  O23      1.0000 0.12970  0.30159  0.49316  Biso   1.000  O
  O24      1.0000 0.22720  0.29680  0.59506  Biso   1.000  O
  H87      1.0000 0.21260  0.32630  0.59380  Biso   1.000  H
  Er4      1.0000 0.29497  0.44169  0.50644  Biso   1.000  Er
  C145     1.0000 0.69640  0.55535  0.02510  Biso   1.000  C
  C146     1.0000 0.60970  0.58390  0.06610  Biso   1.000  C
  H88      1.0000 0.58820  0.61700  0.06260  Biso   1.000  H
  C147     1.0000 0.56630  0.55414  0.11020  Biso   1.000  C
  H89      1.0000 0.50710  0.56240  0.14340  Biso   1.000  H
  C148     1.0000 0.62520  0.50772  0.09800  Biso   1.000  C
  C149     1.0000 0.61460  0.46720  0.13660  Biso   1.000  C
  C150     1.0000 0.65620  0.42127  0.12010  Biso   1.000  C
  C151     1.0000 0.65920  0.37947  0.15890  Biso   1.000  C
  H90      1.0000 0.64530  0.37870  0.20220  Biso   1.000  H
  C152     1.0000 0.68500  0.34190  0.12350  Biso   1.000  C
  H91      1.0000 0.69070  0.30970  0.13670  Biso   1.000  H
  C153     1.0000 0.70280  0.35984  0.06070  Biso   1.000  C
  C154     1.0000 0.71910  0.33140  0.00780  Biso   1.000  C
  C155     1.0000 0.75210  0.34931  0.94930  Biso   1.000  C
  C156     1.0000 0.76990  0.32035  0.89470  Biso   1.000  C
  H92      1.0000 0.75230  0.28710  0.89070  Biso   1.000  H
  C157     1.0000 0.81640  0.34962  0.85060  Biso   1.000  C
  H93      1.0000 0.83570  0.34070  0.80950  Biso   1.000  H
  C158     1.0000 0.83150  0.39672  0.87680  Biso   1.000  C
  C159     1.0000 0.88590  0.43700  0.84770  Biso   1.000  C
  C160     1.0000 0.88940  0.48331  0.87300  Biso   1.000  C
  C161     1.0000 0.95980  0.52460  0.84770  Biso   1.000  C
  H94      1.0000 0.01720  0.52500  0.81240  Biso   1.000  H
  C162     1.0000 0.92980  0.56240  0.88300  Biso   1.000  C
  H95      1.0000 0.96250  0.59420  0.87730  Biso   1.000  H
  C163     1.0000 0.83890  0.54542  0.93070  Biso   1.000  C
  C164     1.0000 0.77230  0.57329  0.97520  Biso   1.000  C
  N13      1.0000 0.69710  0.50938  0.04432  Biso   1.000  N
  H96      1.0000 0.73650  0.48510  0.02560  Biso   1.000  H
  N14      1.0000 0.68900  0.40779  0.06132  Biso   1.000  N
  H97      1.0000 0.69920  0.42700  0.02960  Biso   1.000  H
  N15      1.0000 0.78780  0.39519  0.93632  Biso   1.000  N
  H98      1.0000 0.78350  0.41960  0.96170  Biso   1.000  H
  N16      1.0000 0.82120  0.49703  0.92461  Biso   1.000  N
  H99      1.0000 0.77440  0.47830  0.94950  Biso   1.000  H
  C165     1.0000 0.56660  0.47440  0.20050  Biso   1.000  C
  C166     1.0000 0.45270  0.44585  0.22340  Biso   1.000  C
  H100     1.0000 0.39520  0.42370  0.19610  Biso   1.000  H
  C167     1.0000 0.42210  0.44922  0.28510  Biso   1.000  C
  H101     1.0000 0.34730  0.42860  0.30040  Biso   1.000  H
  C168     1.0000 0.50080  0.48286  0.32460  Biso   1.000  C
  C169     1.0000 0.60530  0.51360  0.30120  Biso   1.000  C
  H102     1.0000 0.65330  0.53830  0.32700  Biso   1.000  H
  C170     1.0000 0.64030  0.50850  0.24030  Biso   1.000  C
  H103     1.0000 0.71650  0.52890  0.22540  Biso   1.000  H
  C171     1.0000 0.47610  0.48490  0.39280  Biso   1.000  C
  O25      1.0000 0.39600  0.45311  0.41406  Biso   1.000  O
  O26      1.0000 0.53800  0.51923  0.42567  Biso   1.000  O
  C172     1.0000 0.69590  0.27963  0.01380  Biso   1.000  C
  C173     1.0000 0.55510  0.25890  0.98130  Biso   1.000  C
  H104     1.0000 0.48070  0.27760  0.95540  Biso   1.000  H
  C174     1.0000 0.53080  0.21050  0.98880  Biso   1.000  C
  H105     1.0000 0.43780  0.19610  0.96800  Biso   1.000  H
  C175     1.0000 0.63900  0.18290  0.02600  Biso   1.000  C
  C176     1.0000 0.77410  0.20280  0.05580  Biso   1.000  C
  H106     1.0000 0.85040  0.18350  0.07990  Biso   1.000  H
  C177     1.0000 0.80010  0.25120  0.05080  Biso   1.000  C
  H107     1.0000 0.89180  0.26500  0.07350  Biso   1.000  H
  C178     1.0000 0.60810  0.13000  0.03010  Biso   1.000  C
  O27      1.0000 0.72270  0.10397  0.04980  Biso   1.000  O
  O28      1.0000 0.46900  0.11596  0.01210  Biso   1.000  O
  C179     1.0000 0.93780  0.43075  0.78420  Biso   1.000  C
  C180     1.0000 0.87450  0.45890  0.73440  Biso   1.000  C
  H108     1.0000 0.79380  0.48100  0.74080  Biso   1.000  H
  C181     1.0000 0.92520  0.45585  0.67550  Biso   1.000  C
  H109     1.0000 0.88140  0.47610  0.64250  Biso   1.000  H
  C182     1.0000 0.04140  0.42271  0.66510  Biso   1.000  C
  C183     1.0000 0.10380  0.39292  0.71370  Biso   1.000  C
  H110     1.0000 0.18010  0.36970  0.70630  Biso   1.000  H
  C184     1.0000 0.05440  0.39711  0.77340  Biso   1.000  C
  H111     1.0000 0.09950  0.37730  0.80670  Biso   1.000  H
  C185     1.0000 0.11240  0.42335  0.60440  Biso   1.000  C
  O29      1.0000 0.08490  0.45877  0.56764  Biso   1.000  O
  O30      1.0000 0.21250  0.39267  0.59229  Biso   1.000  O
  C186     1.0000 0.78450  0.62610  0.97030  Biso   1.000  C
  C187     1.0000 0.85340  0.65270  0.02220  Biso   1.000  C
  H112     1.0000 0.89330  0.63700  0.06010  Biso   1.000  H
  C188     1.0000 0.86340  0.70170  0.01830  Biso   1.000  C
  H113     1.0000 0.91070  0.71930  0.05350  Biso   1.000  H
  C189     1.0000 0.80410  0.72540  0.96290  Biso   1.000  C
  C190     1.0000 0.73630  0.69960  0.91190  Biso   1.000  C
  H114     1.0000 0.69640  0.71540  0.87410  Biso   1.000  H
  C191     1.0000 0.72590  0.65040  0.91560  Biso   1.000  C
  H115     1.0000 0.67810  0.63300  0.88020  Biso   1.000  H
  C192     1.0000 0.82120  0.77810  0.96120  Biso   1.000  C
  O31      1.0000 0.87030  0.80159  0.00684  Biso   1.000  O
  O32      1.0000 0.77280  0.79680  0.90494  Biso   1.000  O
  H116     1.0000 0.78740  0.82630  0.90620  Biso   1.000  H
