data_NIMPOQ_clean
_audit_creation_date              2015-10-16
_audit_creation_method            'Materials Studio'
_symmetry_space_group_name_H-M    'P1'
_symmetry_Int_Tables_number       1
_symmetry_cell_setting            triclinic
loop_
_symmetry_equiv_pos_as_xyz
  x,y,z
_cell_length_a                    20.6390
_cell_length_b                    22.9230
_cell_length_c                    23.2470
_cell_angle_alpha                 82.7180
_cell_angle_beta                  71.0610
_cell_angle_gamma                 80.3520
loop_
_atom_site_label
_atom_site_type_symbol
_atom_site_fract_x
_atom_site_fract_y
_atom_site_fract_z
_atom_site_U_iso_or_equiv
_atom_site_adp_type
_atom_site_occupancy
Cu1    Cu    0.04179   0.26287   0.27723   0.01267  Uiso   1.00
Cu2    Cu    0.95821   0.73713   0.72277   0.01267  Uiso   1.00
Cu3    Cu    0.04141   0.76321   0.77723   0.01267  Uiso   1.00
Cu4    Cu    0.95859   0.23679   0.22277   0.01267  Uiso   1.00
Cu5    Cu    0.55545   0.22554   0.26267   0.01267  Uiso   1.00
Cu6    Cu    0.44393   0.27489   0.23729   0.01267  Uiso   1.00
Cu7    Cu    0.55607   0.72511   0.76271   0.01267  Uiso   1.00
Cu8    Cu    0.44455   0.77446   0.73733   0.01267  Uiso   1.00
H1     H     0.67820   0.67050   0.58790   0.01267  Uiso   1.00
H2     H     0.30160   0.23630   0.73580   0.01267  Uiso   1.00
H3     H     0.56270   0.68090   0.26360   0.01267  Uiso   1.00
H4     H     0.64710   0.03520   0.97050   0.01267  Uiso   1.00
H5     H     0.06950   0.06910   0.15650   0.01267  Uiso   1.00
H6     H     0.85620   0.01920   0.86910   0.01267  Uiso   1.00
H7     H     0.70590   0.47350   0.49420   0.01267  Uiso   1.00
H8     H     0.45900   0.95720   0.33290   0.01267  Uiso   1.00
H9     H     0.17540   0.09920   0.26690   0.01267  Uiso   1.00
H10    H     0.94280   0.19560   0.46060   0.01267  Uiso   1.00
H11    H     0.14020   0.47880   0.63400   0.01267  Uiso   1.00
H12    H     0.61660   0.09430   0.73270   0.01267  Uiso   1.00
H13    H     0.32310   0.82930   0.91270   0.01267  Uiso   1.00
H14    H     0.68200   0.26930   0.69220   0.01267  Uiso   1.00
H15    H     0.30290   0.52860   0.57140   0.01267  Uiso   1.00
H16    H     0.82150   0.04080   0.51850   0.01267  Uiso   1.00
H17    H     0.56920   0.23510   0.79830   0.01267  Uiso   1.00
H18    H     0.29410   0.52650   0.50580   0.01267  Uiso   1.00
H19    H     0.55920   0.17580   0.77440   0.01267  Uiso   1.00
H20    H     0.31800   0.73070   0.30780   0.01267  Uiso   1.00
H21    H     0.74960   0.48990   0.25980   0.01267  Uiso   1.00
H22    H     0.79280   0.98790   0.49970   0.01267  Uiso   1.00
H23    H     0.24650   0.90840   0.25780   0.01267  Uiso   1.00
H24    H     0.14380   0.98080   0.13090   0.01267  Uiso   1.00
H25    H     0.49360   0.21870   0.05370   0.01267  Uiso   1.00
H26    H     0.15840   0.46790   0.98930   0.01267  Uiso   1.00
H27    H     0.81750   0.47850   0.06030   0.01267  Uiso   1.00
H28    H     0.82230   0.40070   0.23490   0.01267  Uiso   1.00
H29    H     0.54310   0.18390   0.95650   0.01267  Uiso   1.00
H30    H     0.27010   0.54490   0.84310   0.01267  Uiso   1.00
H31    H     0.69710   0.47140   0.42860   0.01267  Uiso   1.00
H32    H     0.56800   0.23510   0.72980   0.01267  Uiso   1.00
H33    H     0.70380   0.76830   0.19360   0.01267  Uiso   1.00
H34    H     0.35990   0.48930   0.52160   0.01267  Uiso   1.00
H35    H     0.19920   0.32290   0.12030   0.01267  Uiso   1.00
H36    H     0.72810   0.63660   0.49030   0.01267  Uiso   1.00
H37    H     0.49450   0.71650   0.55480   0.01267  Uiso   1.00
H38    H     0.41900   0.26090   0.78100   0.01267  Uiso   1.00
H39    H     0.50520   0.04690   0.30570   0.01267  Uiso   1.00
H40    H     0.53960   0.54530   0.17130   0.01267  Uiso   1.00
H41    H     0.54440   0.68260   0.45720   0.01267  Uiso   1.00
H42    H     0.70270   0.98840   0.99260   0.01267  Uiso   1.00
H43    H     0.80140   0.17820   0.37920   0.01267  Uiso   1.00
H44    H     0.68120   0.26880   0.76140   0.01267  Uiso   1.00
H45    H     0.72990   0.45510   0.15690   0.01267  Uiso   1.00
H46    H     0.20810   0.01080   0.43140   0.01267  Uiso   1.00
H47    H     0.13120   0.33740   0.94500   0.01267  Uiso   1.00
H48    H     0.49480   0.95310   0.69430   0.01267  Uiso   1.00
H49    H     0.69840   0.76370   0.26420   0.01267  Uiso   1.00
H50    H     0.75380   0.59040   0.24330   0.01267  Uiso   1.00
H51    H     0.75040   0.98910   0.75880   0.01267  Uiso   1.00
H52    H     0.27190   0.36340   0.50970   0.01267  Uiso   1.00
H53    H     0.43200   0.76490   0.27020   0.01267  Uiso   1.00
H54    H     0.27150   0.85620   0.52700   0.01267  Uiso   1.00
H55    H     0.24620   0.40960   0.75670   0.01267  Uiso   1.00
H56    H     0.93250   0.43200   0.34110   0.01267  Uiso   1.00
H57    H     0.68450   0.86540   0.68760   0.01267  Uiso   1.00
H58    H     0.81100   0.47940   0.99340   0.01267  Uiso   1.00
H59    H     0.74970   0.70330   0.12440   0.01267  Uiso   1.00
H60    H     0.27260   0.35580   0.02600   0.01267  Uiso   1.00
H61    H     0.24960   0.01090   0.24120   0.01267  Uiso   1.00
H62    H     0.06750   0.56800   0.65890   0.01267  Uiso   1.00
H63    H     0.38340   0.90570   0.26730   0.01267  Uiso   1.00
H64    H     0.94220   0.69550   0.96080   0.01267  Uiso   1.00
H65    H     0.05720   0.80440   0.53940   0.01267  Uiso   1.00
H66    H     0.25040   0.51010   0.74020   0.01267  Uiso   1.00
H67    H     0.30190   0.01160   0.07490   0.01267  Uiso   1.00
H68    H     0.49170   0.45650   0.20120   0.01267  Uiso   1.00
H69    H     0.62060   0.59150   0.23470   0.01267  Uiso   1.00
H70    H     0.19860   0.82180   0.62080   0.01267  Uiso   1.00
H71    H     0.50830   0.54350   0.79880   0.01267  Uiso   1.00
H72    H     0.17850   0.95920   0.48150   0.01267  Uiso   1.00
H73    H     0.32180   0.32950   0.41210   0.01267  Uiso   1.00
H74    H     0.64010   0.51070   0.47840   0.01267  Uiso   1.00
H75    H     0.79190   0.98920   0.56860   0.01267  Uiso   1.00
H76    H     0.84160   0.53210   0.01070   0.01267  Uiso   1.00
H77    H     0.50640   0.78130   0.94630   0.01267  Uiso   1.00
H78    H     0.35290   0.96480   0.02950   0.01267  Uiso   1.00
H79    H     0.25320   0.76360   0.28760   0.01267  Uiso   1.00
H80    H     0.31790   0.63380   0.81320   0.01267  Uiso   1.00
H81    H     0.69810   0.98840   0.92510   0.01267  Uiso   1.00
H82    H     0.76000   0.72440   0.21780   0.01267  Uiso   1.00
H83    H     0.37940   0.40850   0.76530   0.01267  Uiso   1.00
H84    H     0.29620   0.23170   0.80640   0.01267  Uiso   1.00
H85    H     0.75000   0.20320   0.62330   0.01267  Uiso   1.00
H86    H     0.82460   0.90080   0.73310   0.01267  Uiso   1.00
H87    H     0.93050   0.93090   0.84350   0.01267  Uiso   1.00
H88    H     0.46040   0.45470   0.82870   0.01267  Uiso   1.00
H89    H     0.62070   0.70450   0.36130   0.01267  Uiso   1.00
H90    H     0.44080   0.82420   0.22560   0.01267  Uiso   1.00
H91    H     0.37900   0.79420   0.13960   0.01267  Uiso   1.00
H92    H     0.75350   0.09160   0.74220   0.01267  Uiso   1.00
H93    H     0.72630   0.13590   0.99000   0.01267  Uiso   1.00
H94    H     0.50550   0.28350   0.44520   0.01267  Uiso   1.00
H95    H     0.37930   0.29550   0.63870   0.01267  Uiso   1.00
H96    H     0.13010   0.83880   0.44560   0.01267  Uiso   1.00
H97    H     0.18900   0.52060   0.00660   0.01267  Uiso   1.00
H98    H     0.42630   0.26140   0.71030   0.01267  Uiso   1.00
H99    H     0.27370   0.86410   0.01000   0.01267  Uiso   1.00
H100   H     0.05780   0.30450   0.03920   0.01267  Uiso   1.00
H101   H     0.86880   0.66260   0.05500   0.01267  Uiso   1.00
H102   H     0.54100   0.04280   0.66710   0.01267  Uiso   1.00
H103   H     0.74680   0.23640   0.71240   0.01267  Uiso   1.00
H104   H     0.25000   0.79680   0.37670   0.01267  Uiso   1.00
H105   H     0.67690   0.17070   0.08730   0.01267  Uiso   1.00
H106   H     0.31880   0.73120   0.23860   0.01267  Uiso   1.00
H107   H     0.29730   0.01160   0.00740   0.01267  Uiso   1.00
H108   H     0.57370   0.73860   0.28970   0.01267  Uiso   1.00
H109   H     0.72850   0.14380   0.47300   0.01267  Uiso   1.00
H110   H     0.24000   0.27560   0.78220   0.01267  Uiso   1.00
H111   H     0.20720   0.01210   0.50030   0.01267  Uiso   1.00
H112   H     0.26930   0.04480   0.33970   0.01267  Uiso   1.00
H113   H     0.73070   0.95520   0.66030   0.01267  Uiso   1.00
H114   H     0.43730   0.31910   0.73640   0.01267  Uiso   1.00
H115   H     0.17770   0.59930   0.76510   0.01267  Uiso   1.00
H116   H     0.72740   0.64420   0.97400   0.01267  Uiso   1.00
H117   H     0.86990   0.16120   0.55440   0.01267  Uiso   1.00
H118   H     0.45560   0.31740   0.54280   0.01267  Uiso   1.00
H119   H     0.85980   0.52120   0.36600   0.01267  Uiso   1.00
H120   H     0.18250   0.52150   0.93970   0.01267  Uiso   1.00
H121   H     0.31550   0.13460   0.31240   0.01267  Uiso   1.00
H122   H     0.80080   0.67710   0.87970   0.01267  Uiso   1.00
H123   H     0.58100   0.73910   0.21900   0.01267  Uiso   1.00
H124   H     0.68210   0.36620   0.18680   0.01267  Uiso   1.00
H125   H     0.25030   0.29670   0.87560   0.01267  Uiso   1.00
H126   H     0.43080   0.76490   0.20170   0.01267  Uiso   1.00
H127   H     0.62100   0.20580   0.86040   0.01267  Uiso   1.00
H128   H     0.45690   0.81610   0.04350   0.01267  Uiso   1.00
C1     C     0.64970   0.17340   0.06070   0.01267  Uiso   1.00
C2     C     0.92940   0.35170   0.27030   0.01267  Uiso   1.00
C3     C     0.79630   0.01240   0.81640   0.01267  Uiso   1.00
C4     C     0.66760   0.06530   0.64830   0.01267  Uiso   1.00
C5     C     0.45730   0.04650   0.31260   0.01267  Uiso   1.00
C6     C     0.54270   0.95350   0.68740   0.01267  Uiso   1.00
C7     C     0.54190   0.70030   0.54170   0.01267  Uiso   1.00
C8     C     0.58060   0.19800   0.07960   0.01267  Uiso   1.00
C9     C     0.33400   0.80760   0.25990   0.01267  Uiso   1.00
C10    C     0.56850   0.50900   0.17450   0.01267  Uiso   1.00
C11    C     0.17010   0.57480   0.73850   0.01267  Uiso   1.00
C12    C     0.31840   0.54470   0.83410   0.01267  Uiso   1.00
C13    C     0.58530   0.90080   0.69350   0.01267  Uiso   1.00
C14    C     0.41110   0.28530   0.74550   0.01267  Uiso   1.00
C15    C     0.68960   0.49660   0.46190   0.01267  Uiso   1.00
C16    C     0.68050   0.15480   0.68530   0.01267  Uiso   1.00
C17    C     0.93130   0.85190   0.77110   0.01267  Uiso   1.00
C18    C     0.64020   0.00740   0.66110   0.01267  Uiso   1.00
C19    C     0.66960   0.13620   0.90120   0.01267  Uiso   1.00
C20    C     0.10070   0.81490   0.53690   0.01267  Uiso   1.00
C21    C     0.66900   0.56450   0.14900   0.01267  Uiso   1.00
C22    C     0.42840   0.31990   0.51630   0.01267  Uiso   1.00
C23    C     0.34750   0.39850   0.80380   0.01267  Uiso   1.00
C24    C     0.80780   0.50390   0.02610   0.01267  Uiso   1.00
C25    C     0.45990   0.54380   0.80780   0.01267  Uiso   1.00
C26    C     0.73260   0.60190   0.28370   0.01267  Uiso   1.00
C27    C     0.89860   0.68510   0.96340   0.01267  Uiso   1.00
C28    C     0.41470   0.09920   0.30650   0.01267  Uiso   1.00
C29    C     0.34470   0.09860   0.31660   0.01267  Uiso   1.00
C30    C     0.06870   0.14810   0.22890   0.01267  Uiso   1.00
C31    C     0.36060   0.84340   0.03590   0.01267  Uiso   1.00
C32    C     0.85600   0.16460   0.51890   0.01267  Uiso   1.00
C33    C     0.33040   0.86380   0.09880   0.01267  Uiso   1.00
C34    C     0.35900   0.34360   0.53540   0.01267  Uiso   1.00
C35    C     0.27100   0.83190   0.37030   0.01267  Uiso   1.00
C36    C     0.21310   0.02270   0.22400   0.01267  Uiso   1.00
C37    C     0.21340   0.98640   0.46780   0.01267  Uiso   1.00
C38    C     0.11570   0.59200   0.71430   0.01267  Uiso   1.00
C39    C     0.72900   0.16810   0.62970   0.01267  Uiso   1.00
C40    C     0.65310   0.40260   0.18360   0.01267  Uiso   1.00
C41    C     0.87840   0.68940   0.91140   0.01267  Uiso   1.00
C42    C     0.68070   0.65280   0.50340   0.01267  Uiso   1.00
C43    C     0.92510   0.21220   0.34970   0.01267  Uiso   1.00
C44    C     0.28380   0.92140   0.40740   0.01267  Uiso   1.00
C45    C     0.26790   0.89710   0.21730   0.01267  Uiso   1.00
C46    C     0.81460   0.67420   0.91530   0.01267  Uiso   1.00
C47    C     0.58220   0.21150   0.76290   0.01267  Uiso   1.00
C48    C     0.71620   0.07860   0.59260   0.01267  Uiso   1.00
C49    C     0.34900   0.32700   0.43870   0.01267  Uiso   1.00
C50    C     0.78660   0.01360   0.53220   0.01267  Uiso   1.00
C51    C     0.58890   0.71470   0.25450   0.01267  Uiso   1.00
C52    C     0.31720   0.04530   0.33280   0.01267  Uiso   1.00
C53    C     0.66650   0.69180   0.24040   0.01267  Uiso   1.00
C54    C     0.42980   0.81880   0.01700   0.01267  Uiso   1.00
C55    C     0.64100   0.65640   0.46460   0.01267  Uiso   1.00
C56    C     0.89390   0.94270   0.82630   0.01267  Uiso   1.00
C57    C     0.32920   0.36420   0.59800   0.01267  Uiso   1.00
C58    C     0.68450   0.65280   0.29460   0.01267  Uiso   1.00
C59    C     0.73210   0.10290   0.78270   0.01267  Uiso   1.00
C60    C     0.25020   0.43200   0.66810   0.01267  Uiso   1.00
C61    C     0.07060   0.64830   0.72970   0.01267  Uiso   1.00
C62    C     0.68160   0.45530   0.16590   0.01267  Uiso   1.00
C63    C     0.10460   0.55620   0.67540   0.01267  Uiso   1.00
C64    C     0.31930   0.34720   0.49660   0.01267  Uiso   1.00
C65    C     0.22800   0.84570   0.52950   0.01267  Uiso   1.00
C66    C     0.89930   0.18510   0.46310   0.01267  Uiso   1.00
C67    C     0.31750   0.34680   0.81300   0.01267  Uiso   1.00
C68    C     0.33100   0.43550   0.85100   0.01267  Uiso   1.00
C69    C     0.79120   0.65030   0.02340   0.01267  Uiso   1.00
C70    C     0.55170   0.84360   0.71750   0.01267  Uiso   1.00
C71    C     0.16900   0.07520   0.23930   0.01267  Uiso   1.00
C72    C     0.20770   0.85070   0.47750   0.01267  Uiso   1.00
C73    C     0.64980   0.10340   0.69460   0.01267  Uiso   1.00
C74    C     0.85220   0.49670   0.33940   0.01267  Uiso   1.00
C75    C     0.32090   0.84730   0.99700   0.01267  Uiso   1.00
C76    C     0.68470   0.15420   0.79370   0.01267  Uiso   1.00
C77    C     0.28880   0.25850   0.77210   0.01267  Uiso   1.00
C78    C     0.79230   0.14930   0.52250   0.01267  Uiso   1.00
C79    C     0.65530   0.90140   0.68340   0.01267  Uiso   1.00
C80    C     0.68280   0.95470   0.66720   0.01267  Uiso   1.00
C81    C     0.69640   0.24590   0.72540   0.01267  Uiso   1.00
C82    C     0.83100   0.92480   0.76070   0.01267  Uiso   1.00
C83    C     0.20370   0.98760   0.18360   0.01267  Uiso   1.00
C84    C     0.74980   0.56800   0.33190   0.01267  Uiso   1.00
C85    C     0.19220   0.49610   0.97390   0.01267  Uiso   1.00
C86    C     0.35030   0.82660   0.93930   0.01267  Uiso   1.00
C87    C     0.26740   0.39810   0.71630   0.01267  Uiso   1.00
C88    C     0.69390   0.01340   0.95780   0.01267  Uiso   1.00
C89    C     0.44500   0.65800   0.78320   0.01267  Uiso   1.00
C90    C     0.66600   0.19240   0.74010   0.01267  Uiso   1.00
C91    C     0.28110   0.41500   0.60890   0.01267  Uiso   1.00
C92    C     0.07380   0.28780   0.15000   0.01267  Uiso   1.00
C93    C     0.78670   0.47810   0.27630   0.01267  Uiso   1.00
C94    C     0.44960   0.28140   0.35810   0.01267  Uiso   1.00
C95    C     0.21330   0.52190   0.72370   0.01267  Uiso   1.00
C96    C     0.82990   0.42520   0.26150   0.01267  Uiso   1.00
C97    C     0.18540   0.32580   0.08470   0.01267  Uiso   1.00
C98    C     0.31040   0.50340   0.53810   0.01267  Uiso   1.00
C99    C     0.10140   0.31490   0.03660   0.01267  Uiso   1.00
C100   C     0.20880   0.34970   0.97660   0.01267  Uiso   1.00
C101   C     0.25160   0.93170   0.16900   0.01267  Uiso   1.00
C102   C     0.63920   0.50850   0.16130   0.01267  Uiso   1.00
C103   C     0.54920   0.21810   0.14470   0.01267  Uiso   1.00
C104   C     0.28290   0.91510   0.10970   0.01267  Uiso   1.00
C105   C     0.35980   0.99260   0.33890   0.01267  Uiso   1.00
C106   C     0.71560   0.57930   0.09270   0.01267  Uiso   1.00
C107   C     0.28440   0.42070   0.90730   0.01267  Uiso   1.00
C108   C     0.65250   0.60150   0.19620   0.01267  Uiso   1.00
C109   C     0.30360   0.75410   0.27460   0.01267  Uiso   1.00
C110   C     0.74570   0.63100   0.08360   0.01267  Uiso   1.00
C111   C     0.10610   0.05730   0.17370   0.01267  Uiso   1.00
C112   C     0.85500   0.66560   0.01940   0.01267  Uiso   1.00
C113   C     0.77200   0.15430   0.47050   0.01267  Uiso   1.00
C114   C     0.12100   0.80990   0.58890   0.01267  Uiso   1.00
C115   C     0.20220   0.48610   0.68470   0.01267  Uiso   1.00
C116   C     0.31530   0.84580   0.20630   0.01267  Uiso   1.00
C117   C     0.12160   0.31060   0.08860   0.01267  Uiso   1.00
C118   C     0.77100   0.65460   0.97130   0.01267  Uiso   1.00
C119   C     0.14500   0.33440   0.98060   0.01267  Uiso   1.00
C120   C     0.81530   0.17470   0.41470   0.01267  Uiso   1.00
C121   C     0.27090   0.33200   0.86930   0.01267  Uiso   1.00
C122   C     0.78690   0.97730   0.77600   0.01267  Uiso   1.00
C123   C     0.33350   0.30820   0.75960   0.01267  Uiso   1.00
C124   C     0.55500   0.34200   0.21680   0.01267  Uiso   1.00
C125   C     0.71710   0.08490   0.89030   0.01267  Uiso   1.00
C126   C     0.63940   0.15660   0.96410   0.01267  Uiso   1.00
C127   C     0.44830   0.15640   0.28250   0.01267  Uiso   1.00
C128   C     0.58240   0.40300   0.19680   0.01267  Uiso   1.00
C129   C     0.57020   0.18120   0.98300   0.01267  Uiso   1.00
C130   C     0.54090   0.20190   0.04080   0.01267  Uiso   1.00
C131   C     0.41940   0.80200   0.92040   0.01267  Uiso   1.00
C132   C     0.22900   0.34540   0.02870   0.01267  Uiso   1.00
C133   C     0.88450   0.90750   0.78590   0.01267  Uiso   1.00
C134   C     0.42980   0.99320   0.32880   0.01267  Uiso   1.00
C135   C     0.74690   0.13000   0.58330   0.01267  Uiso   1.00
C136   C     0.41780   0.78850   0.23710   0.01267  Uiso   1.00
C137   C     0.15020   0.00480   0.15850   0.01267  Uiso   1.00
C138   C     0.84980   0.99520   0.84150   0.01267  Uiso   1.00
C139   C     0.55040   0.71860   0.64190   0.01267  Uiso   1.00
C140   C     0.87900   0.19010   0.41110   0.01267  Uiso   1.00
C141   C     0.14780   0.50330   0.66060   0.01267  Uiso   1.00
C142   C     0.18470   0.82530   0.58530   0.01267  Uiso   1.00
C143   C     0.67910   0.15270   0.00300   0.01267  Uiso   1.00
C144   C     0.65100   0.67300   0.56130   0.01267  Uiso   1.00
C145   C     0.71120   0.74150   0.22790   0.01267  Uiso   1.00
C146   C     0.41840   0.30330   0.41950   0.01267  Uiso   1.00
C147   C     0.72910   0.66800   0.13070   0.01267  Uiso   1.00
C148   C     0.57020   0.00680   0.67120   0.01267  Uiso   1.00
C149   C     0.07490   0.78780   0.65030   0.01267  Uiso   1.00
C150   C     0.34690   0.59740   0.81640   0.01267  Uiso   1.00
C151   C     0.65340   0.17080   0.85290   0.01267  Uiso   1.00
C152   C     0.45910   0.79810   0.95920   0.01267  Uiso   1.00
C153   C     0.34660   0.82920   0.14710   0.01267  Uiso   1.00
C154   C     0.25430   0.36900   0.91640   0.01267  Uiso   1.00
C155   C     0.31950   0.84520   0.31470   0.01267  Uiso   1.00
C156   C     0.65360   0.66970   0.35380   0.01267  Uiso   1.00
C157   C     0.67080   0.63580   0.40200   0.01267  Uiso   1.00
C158   C     0.92620   0.71220   0.85000   0.01267  Uiso   1.00
C159   C     0.68250   0.65320   0.18700   0.01267  Uiso   1.00
C160   C     0.89540   0.44380   0.32460   0.01267  Uiso   1.00
C161   C     0.41760   0.59700   0.80320   0.01267  Uiso   1.00
C162   C     0.11550   0.09250   0.21410   0.01267  Uiso   1.00
C163   C     0.34640   0.33030   0.64620   0.01267  Uiso   1.00
C164   C     0.43150   0.49100   0.82550   0.01267  Uiso   1.00
C165   C     0.31550   0.34720   0.70540   0.01267  Uiso   1.00
C166   C     0.57160   0.68010   0.48370   0.01267  Uiso   1.00
C167   C     0.45810   0.29970   0.45830   0.01267  Uiso   1.00
C168   C     0.71890   0.58500   0.39110   0.01267  Uiso   1.00
C169   C     0.79780   0.51390   0.31530   0.01267  Uiso   1.00
C170   C     0.14400   0.83540   0.48110   0.01267  Uiso   1.00
C171   C     0.33240   0.93470   0.35170   0.01267  Uiso   1.00
C172   C     0.36080   0.49150   0.83870   0.01267  Uiso   1.00
C173   C     0.45080   0.78190   0.85530   0.01267  Uiso   1.00
C174   C     0.74840   0.06830   0.83100   0.01267  Uiso   1.00
C175   C     0.30610   0.98660   0.04220   0.01267  Uiso   1.00
C176   C     0.58160   0.69670   0.58050   0.01267  Uiso   1.00
C177   C     0.54010   0.45620   0.19220   0.01267  Uiso   1.00
C178   C     0.25310   0.87000   0.41670   0.01267  Uiso   1.00
C179   C     0.35020   0.89660   0.30540   0.01267  Uiso   1.00
C180   C     0.88430   0.40800   0.28570   0.01267  Uiso   1.00
O1     O     0.58760   0.30170   0.23620   0.01267  Uiso   1.00
O2     O     0.91410   0.81760   0.74120   0.01267  Uiso   1.00
O3     O     0.58990   0.80110   0.73340   0.01267  Uiso   1.00
O4     O     0.27350   0.45430   0.56050   0.01267  Uiso   1.00
O5     O     0.90760   0.20860   0.30400   0.01267  Uiso   1.00
O6     O     0.41240   0.69830   0.76380   0.01267  Uiso   1.00
O7     O     0.90750   0.70810   0.80350   0.01267  Uiso   1.00
O8     O     0.51110   0.75350   0.84210   0.01267  Uiso   1.00
O9     O     0.41350   0.29520   0.32220   0.01267  Uiso   1.00
O10    O     0.08690   0.68150   0.75850   0.01267  Uiso   1.00
O11    O     0.50620   0.65520   0.78370   0.01267  Uiso   1.00
O12    O     0.02020   0.26990   0.14940   0.01267  Uiso   1.00
O13    O     0.41010   0.19890   0.26660   0.01267  Uiso   1.00
O14    O     0.26850   0.46030   0.95140   0.01267  Uiso   1.00
O15    O     0.09240   0.79140   0.69600   0.01267  Uiso   1.00
O16    O     0.49380   0.34480   0.21630   0.01267  Uiso   1.00
O17    O     0.97980   0.23020   0.35020   0.01267  Uiso   1.00
O18    O     0.72650   0.54570   0.43950   0.01267  Uiso   1.00
O19    O     0.48890   0.24650   0.15790   0.01267  Uiso   1.00
O20    O     0.01900   0.66030   0.71150   0.01267  Uiso   1.00
O21    O     0.27710   0.95500   0.45430   0.01267  Uiso   1.00
O22    O     0.50970   0.25530   0.34280   0.01267  Uiso   1.00
O23    O     0.01860   0.16100   0.20920   0.01267  Uiso   1.00
O24    O     0.41400   0.79550   0.82200   0.01267  Uiso   1.00
O25    O     0.49760   0.84210   0.70920   0.01267  Uiso   1.00
O26    O     0.08590   0.18240   0.25880   0.01267  Uiso   1.00
O27    O     0.91310   0.31850   0.24150   0.01267  Uiso   1.00
O28    O     0.09250   0.29190   0.19650   0.01267  Uiso   1.00
O29    O     0.98140   0.83900   0.79080   0.01267  Uiso   1.00
O30    O     0.26080   0.94870   0.06240   0.01267  Uiso   1.00
O31    O     0.98100   0.33970   0.28850   0.01267  Uiso   1.00
O32    O     0.50240   0.15790   0.29080   0.01267  Uiso   1.00
O33    O     0.97980   0.73010   0.85060   0.01267  Uiso   1.00
O34    O     0.58650   0.70480   0.67780   0.01267  Uiso   1.00
O35    O     0.49030   0.74470   0.65720   0.01267  Uiso   1.00
O36    O     0.02020   0.76980   0.64980   0.01267  Uiso   1.00
O37    O     0.72290   0.04500   0.54570   0.01267  Uiso   1.00
O38    O     0.73150   0.53970   0.04860   0.01267  Uiso   1.00
O39    O     0.73920   0.05130   0.93760   0.01267  Uiso   1.00
O40    O     0.58600   0.20450   0.17800   0.01267  Uiso   1.00
