data_NIMTEJ_clean
_audit_creation_date              2014-07-02
_audit_creation_method            'Materials Studio'
_symmetry_space_group_name_H-M    'P1'
_symmetry_Int_Tables_number       1
_symmetry_cell_setting            triclinic
loop_
_symmetry_equiv_pos_as_xyz
  x,y,z
_cell_length_a                    9.3410
_cell_length_b                    11.5726
_cell_length_c                    17.3954
_cell_angle_alpha                 105.0190
_cell_angle_beta                  90.0000
_cell_angle_gamma                 113.8020
loop_
_atom_site_label
_atom_site_type_symbol
_atom_site_fract_x
_atom_site_fract_y
_atom_site_fract_z
_atom_site_U_iso_or_equiv
_atom_site_adp_type
_atom_site_occupancy
Ce1    Ce    0.66987   0.97240   0.92695   0.01267  Uiso   1.00
Ce2    Ce    0.69747   0.02760   0.57305   0.01267  Uiso   1.00
Ce3    Ce    0.33013   0.02760   0.07305   0.01267  Uiso   1.00
Ce4    Ce    0.30253   0.97240   0.42695   0.01267  Uiso   1.00
Cu1    Cu    0.09456   0.32992   0.13590   0.01267  Uiso   1.00
Cu2    Cu    0.76464   0.67008   0.36410   0.01267  Uiso   1.00
Cu3    Cu    0.90544   0.67008   0.86410   0.01267  Uiso   1.00
Cu4    Cu    0.23536   0.32992   0.63590   0.01267  Uiso   1.00
H1     H     0.55980   0.19720   0.77960   0.01267  Uiso   1.00
H2     H     0.50050   0.29760   0.69160   0.01267  Uiso   1.00
H3     H     0.09130   0.23080   0.76830   0.01267  Uiso   1.00
H4     H     0.14080   0.13460   0.85660   0.01267  Uiso   1.00
H5     H     0.18490   0.71960   0.05490   0.01267  Uiso   1.00
H6     H     0.08240   0.56380   0.12120   0.01267  Uiso   1.00
H7     H     0.28940   0.35800   0.00230   0.01267  Uiso   1.00
H8     H     0.38980   0.50280   0.92840   0.01267  Uiso   1.00
H9     H     0.36260   0.80280   0.72040   0.01267  Uiso   1.00
H10    H     0.20290   0.70240   0.80840   0.01267  Uiso   1.00
H11    H     0.86050   0.76920   0.73170   0.01267  Uiso   1.00
H12    H     0.00620   0.86540   0.64340   0.01267  Uiso   1.00
H13    H     0.46530   0.28040   0.44510   0.01267  Uiso   1.00
H14    H     0.51860   0.43620   0.37880   0.01267  Uiso   1.00
H15    H     0.93140   0.64200   0.49770   0.01267  Uiso   1.00
H16    H     0.88700   0.49720   0.57160   0.01267  Uiso   1.00
H17    H     0.44020   0.80280   0.22040   0.01267  Uiso   1.00
H18    H     0.49950   0.70240   0.30840   0.01267  Uiso   1.00
H19    H     0.90870   0.76920   0.23170   0.01267  Uiso   1.00
H20    H     0.85920   0.86540   0.14340   0.01267  Uiso   1.00
H21    H     0.81510   0.28040   0.94510   0.01267  Uiso   1.00
H22    H     0.91760   0.43620   0.87880   0.01267  Uiso   1.00
H23    H     0.71060   0.64200   0.99770   0.01267  Uiso   1.00
H24    H     0.61020   0.49720   0.07160   0.01267  Uiso   1.00
H25    H     0.63740   0.19720   0.27960   0.01267  Uiso   1.00
H26    H     0.79710   0.29760   0.19160   0.01267  Uiso   1.00
H27    H     0.13950   0.23080   0.26830   0.01267  Uiso   1.00
H28    H     0.99380   0.13460   0.35660   0.01267  Uiso   1.00
H29    H     0.53470   0.71960   0.55490   0.01267  Uiso   1.00
H30    H     0.48140   0.56380   0.62120   0.01267  Uiso   1.00
H31    H     0.06860   0.35800   0.50230   0.01267  Uiso   1.00
H32    H     0.11300   0.50280   0.42840   0.01267  Uiso   1.00
C1     C     0.39690   0.08180   0.88140   0.01267  Uiso   1.00
C2     C     0.35110   0.14860   0.82630   0.01267  Uiso   1.00
C3     C     0.46270   0.20140   0.77720   0.01267  Uiso   1.00
C4     C     0.42670   0.26140   0.72410   0.01267  Uiso   1.00
C5     C     0.18600   0.22200   0.76970   0.01267  Uiso   1.00
C6     C     0.21510   0.16420   0.82240   0.01267  Uiso   1.00
C7     C     0.39190   0.74380   0.95000   0.01267  Uiso   1.00
C8     C     0.30440   0.63080   0.98600   0.01267  Uiso   1.00
C9     C     0.20840   0.64680   0.04310   0.01267  Uiso   1.00
C10    C     0.14820   0.55240   0.08270   0.01267  Uiso   1.00
C11    C     0.26670   0.43140   0.01340   0.01267  Uiso   1.00
C12    C     0.33060   0.51920   0.96920   0.01267  Uiso   1.00
C13    C     0.98020   0.92860   0.97620   0.01267  Uiso   1.00
C14    C     0.70180   0.91980   0.73060   0.01267  Uiso   1.00
C15    C     0.31510   0.91820   0.61860   0.01267  Uiso   1.00
C16    C     0.20250   0.85140   0.67370   0.01267  Uiso   1.00
C17    C     0.26130   0.79860   0.72280   0.01267  Uiso   1.00
C18    C     0.16530   0.73860   0.77590   0.01267  Uiso   1.00
C19    C     0.96400   0.77800   0.73030   0.01267  Uiso   1.00
C20    C     0.05090   0.83580   0.67760   0.01267  Uiso   1.00
C21    C     0.64810   0.25620   0.55000   0.01267  Uiso   1.00
C22    C     0.67360   0.36920   0.51400   0.01267  Uiso   1.00
C23    C     0.56160   0.35320   0.45690   0.01267  Uiso   1.00
C24    C     0.59580   0.44760   0.41730   0.01267  Uiso   1.00
C25    C     0.83530   0.56860   0.48660   0.01267  Uiso   1.00
C26    C     0.81140   0.48080   0.53080   0.01267  Uiso   1.00
C27    C     0.05160   0.07140   0.52380   0.01267  Uiso   1.00
C28    C     0.78200   0.08020   0.76940   0.01267  Uiso   1.00
C29    C     0.60310   0.91820   0.11860   0.01267  Uiso   1.00
C30    C     0.64890   0.85140   0.17370   0.01267  Uiso   1.00
C31    C     0.53730   0.79860   0.22280   0.01267  Uiso   1.00
C32    C     0.57330   0.73860   0.27590   0.01267  Uiso   1.00
C33    C     0.81400   0.77800   0.23030   0.01267  Uiso   1.00
C34    C     0.78490   0.83580   0.17760   0.01267  Uiso   1.00
C35    C     0.60810   0.25620   0.05000   0.01267  Uiso   1.00
C36    C     0.69560   0.36920   0.01400   0.01267  Uiso   1.00
C37    C     0.79160   0.35320   0.95690   0.01267  Uiso   1.00
C38    C     0.85180   0.44760   0.91730   0.01267  Uiso   1.00
C39    C     0.73330   0.56860   0.98660   0.01267  Uiso   1.00
C40    C     0.66940   0.48080   0.03080   0.01267  Uiso   1.00
C41    C     0.01980   0.07140   0.02380   0.01267  Uiso   1.00
C42    C     0.29820   0.08020   0.26940   0.01267  Uiso   1.00
C43    C     0.68490   0.08180   0.38140   0.01267  Uiso   1.00
C44    C     0.79750   0.14860   0.32630   0.01267  Uiso   1.00
C45    C     0.73870   0.20140   0.27720   0.01267  Uiso   1.00
C46    C     0.83470   0.26140   0.22410   0.01267  Uiso   1.00
C47    C     0.03600   0.22200   0.26970   0.01267  Uiso   1.00
C48    C     0.94910   0.16420   0.32240   0.01267  Uiso   1.00
C49    C     0.35190   0.74380   0.45000   0.01267  Uiso   1.00
C50    C     0.32640   0.63080   0.48600   0.01267  Uiso   1.00
C51    C     0.43840   0.64680   0.54310   0.01267  Uiso   1.00
C52    C     0.40420   0.55240   0.58270   0.01267  Uiso   1.00
C53    C     0.16470   0.43140   0.51340   0.01267  Uiso   1.00
C54    C     0.18860   0.51920   0.46920   0.01267  Uiso   1.00
C55    C     0.94840   0.92860   0.47620   0.01267  Uiso   1.00
C56    C     0.21800   0.91980   0.23060   0.01267  Uiso   1.00
N1     N     0.28840   0.26680   0.71980   0.01267  Uiso   1.00
N2     N     0.17700   0.44400   0.06980   0.01267  Uiso   1.00
N3     N     0.02160   0.73320   0.78020   0.01267  Uiso   1.00
N4     N     0.73300   0.55600   0.43020   0.01267  Uiso   1.00
N5     N     0.71160   0.73320   0.28020   0.01267  Uiso   1.00
N6     N     0.82300   0.55600   0.93020   0.01267  Uiso   1.00
N7     N     0.97840   0.26680   0.21980   0.01267  Uiso   1.00
N8     N     0.26700   0.44400   0.56980   0.01267  Uiso   1.00
O1     O     0.49090   0.03680   0.86490   0.01267  Uiso   1.00
O2     O     0.31690   0.07860   0.94310   0.01267  Uiso   1.00
O3     O     0.48700   0.72800   0.90050   0.01267  Uiso   1.00
O4     O     0.37380   0.84900   0.97220   0.01267  Uiso   1.00
O5     O     0.86240   0.87180   0.92370   0.01267  Uiso   1.00
O6     O     0.06750   0.87720   0.99600   0.01267  Uiso   1.00
O7     O     0.65260   0.85580   0.77970   0.01267  Uiso   1.00
O8     O     0.70760   0.88240   0.65740   0.01267  Uiso   1.00
O9     O     0.45410   0.96320   0.63510   0.01267  Uiso   1.00
O10    O     0.23830   0.92140   0.55690   0.01267  Uiso   1.00
O11    O     0.75900   0.27200   0.59950   0.01267  Uiso   1.00
O12    O     0.52480   0.15100   0.52780   0.01267  Uiso   1.00
O13    O     0.99060   0.12820   0.57630   0.01267  Uiso   1.00
O14    O     0.19030   0.12280   0.50400   0.01267  Uiso   1.00
O15    O     0.79680   0.14420   0.72030   0.01267  Uiso   1.00
O16    O     0.82520   0.11760   0.84260   0.01267  Uiso   1.00
O17    O     0.50910   0.96320   0.13510   0.01267  Uiso   1.00
O18    O     0.68310   0.92140   0.05690   0.01267  Uiso   1.00
O19    O     0.51300   0.27200   0.09950   0.01267  Uiso   1.00
O20    O     0.62620   0.15100   0.02780   0.01267  Uiso   1.00
O21    O     0.13760   0.12820   0.07630   0.01267  Uiso   1.00
O22    O     0.93250   0.12280   0.00400   0.01267  Uiso   1.00
O23    O     0.34740   0.14420   0.22030   0.01267  Uiso   1.00
O24    O     0.29240   0.11760   0.34260   0.01267  Uiso   1.00
O25    O     0.54590   0.03680   0.36490   0.01267  Uiso   1.00
O26    O     0.76170   0.07860   0.44310   0.01267  Uiso   1.00
O27    O     0.24100   0.72800   0.40050   0.01267  Uiso   1.00
O28    O     0.47520   0.84900   0.47220   0.01267  Uiso   1.00
O29    O     0.00940   0.87180   0.42370   0.01267  Uiso   1.00
O30    O     0.80970   0.87720   0.49600   0.01267  Uiso   1.00
O31    O     0.20320   0.85580   0.27970   0.01267  Uiso   1.00
O32    O     0.17480   0.88240   0.15740   0.01267  Uiso   1.00
