data_NIMVIP_clean
_audit_creation_date              2014-07-02
_audit_creation_method            'Materials Studio'
_symmetry_space_group_name_H-M    'P1'
_symmetry_Int_Tables_number       1
_symmetry_cell_setting            triclinic
loop_
_symmetry_equiv_pos_as_xyz
  x,y,z
_cell_length_a                    9.3060
_cell_length_b                    11.5365
_cell_length_c                    17.3480
_cell_angle_alpha                 104.9500
_cell_angle_beta                  90.0000
_cell_angle_gamma                 113.7870
loop_
_atom_site_label
_atom_site_type_symbol
_atom_site_fract_x
_atom_site_fract_y
_atom_site_fract_z
_atom_site_U_iso_or_equiv
_atom_site_adp_type
_atom_site_occupancy
Pr1    Pr    0.67004   0.97253   0.92686   0.01267  Uiso   1.00
Pr2    Pr    0.69751   0.02747   0.57314   0.01267  Uiso   1.00
Pr3    Pr    0.32996   0.02747   0.07314   0.01267  Uiso   1.00
Pr4    Pr    0.30249   0.97253   0.42686   0.01267  Uiso   1.00
Cu1    Cu    0.09435   0.32926   0.13574   0.01267  Uiso   1.00
Cu2    Cu    0.76509   0.67074   0.36426   0.01267  Uiso   1.00
Cu3    Cu    0.90565   0.67074   0.86426   0.01267  Uiso   1.00
Cu4    Cu    0.23491   0.32926   0.63574   0.01267  Uiso   1.00
H1     H     0.56140   0.19640   0.77910   0.01267  Uiso   1.00
H2     H     0.50160   0.29620   0.69280   0.01267  Uiso   1.00
H3     H     0.09160   0.23040   0.76720   0.01267  Uiso   1.00
H4     H     0.14000   0.13180   0.85710   0.01267  Uiso   1.00
H5     H     0.18150   0.71780   0.05380   0.01267  Uiso   1.00
H6     H     0.08220   0.56380   0.12300   0.01267  Uiso   1.00
H7     H     0.27840   0.35020   0.99770   0.01267  Uiso   1.00
H8     H     0.39030   0.50360   0.92730   0.01267  Uiso   1.00
H9     H     0.36500   0.80360   0.72090   0.01267  Uiso   1.00
H10    H     0.20540   0.70380   0.80720   0.01267  Uiso   1.00
H11    H     0.86120   0.76960   0.73280   0.01267  Uiso   1.00
H12    H     0.00820   0.86820   0.64290   0.01267  Uiso   1.00
H13    H     0.46370   0.28220   0.44620   0.01267  Uiso   1.00
H14    H     0.51840   0.43620   0.37700   0.01267  Uiso   1.00
H15    H     0.92820   0.64980   0.50230   0.01267  Uiso   1.00
H16    H     0.88670   0.49640   0.57270   0.01267  Uiso   1.00
H17    H     0.43860   0.80360   0.22090   0.01267  Uiso   1.00
H18    H     0.49840   0.70380   0.30720   0.01267  Uiso   1.00
H19    H     0.90840   0.76960   0.23280   0.01267  Uiso   1.00
H20    H     0.86000   0.86820   0.14290   0.01267  Uiso   1.00
H21    H     0.81850   0.28220   0.94620   0.01267  Uiso   1.00
H22    H     0.91780   0.43620   0.87700   0.01267  Uiso   1.00
H23    H     0.72160   0.64980   0.00230   0.01267  Uiso   1.00
H24    H     0.60970   0.49640   0.07270   0.01267  Uiso   1.00
H25    H     0.63500   0.19640   0.27910   0.01267  Uiso   1.00
H26    H     0.79460   0.29620   0.19280   0.01267  Uiso   1.00
H27    H     0.13880   0.23040   0.26720   0.01267  Uiso   1.00
H28    H     0.99180   0.13180   0.35710   0.01267  Uiso   1.00
H29    H     0.53630   0.71780   0.55380   0.01267  Uiso   1.00
H30    H     0.48160   0.56380   0.62300   0.01267  Uiso   1.00
H31    H     0.07180   0.35020   0.49770   0.01267  Uiso   1.00
H32    H     0.11330   0.50360   0.42730   0.01267  Uiso   1.00
C1     C     0.38875   0.08150   0.88305   0.01267  Uiso   1.00
C2     C     0.35505   0.15070   0.82715   0.01267  Uiso   1.00
C3     C     0.46420   0.20140   0.77750   0.01267  Uiso   1.00
C4     C     0.42650   0.26020   0.72530   0.01267  Uiso   1.00
C5     C     0.18680   0.22220   0.76900   0.01267  Uiso   1.00
C6     C     0.21510   0.16300   0.82340   0.01267  Uiso   1.00
C7     C     0.39315   0.74270   0.94923   0.01267  Uiso   1.00
C8     C     0.30494   0.63188   0.98580   0.01267  Uiso   1.00
C9     C     0.20710   0.64560   0.04270   0.01267  Uiso   1.00
C10    C     0.14680   0.55180   0.08370   0.01267  Uiso   1.00
C11    C     0.26220   0.42720   0.01080   0.01267  Uiso   1.00
C12    C     0.32940   0.51900   0.96780   0.01267  Uiso   1.00
C13    C     0.98042   0.92824   0.97657   0.01267  Uiso   1.00
C14    C     0.70685   0.92510   0.73189   0.01267  Uiso   1.00
C15    C     0.30725   0.91850   0.61695   0.01267  Uiso   1.00
C16    C     0.20435   0.84930   0.67285   0.01267  Uiso   1.00
C17    C     0.26280   0.79860   0.72250   0.01267  Uiso   1.00
C18    C     0.16630   0.73980   0.77470   0.01267  Uiso   1.00
C19    C     0.96460   0.77780   0.73100   0.01267  Uiso   1.00
C20    C     0.05210   0.83700   0.67660   0.01267  Uiso   1.00
C21    C     0.65045   0.25730   0.55077   0.01267  Uiso   1.00
C22    C     0.67306   0.36812   0.51420   0.01267  Uiso   1.00
C23    C     0.56150   0.35440   0.45730   0.01267  Uiso   1.00
C24    C     0.59500   0.44820   0.41630   0.01267  Uiso   1.00
C25    C     0.83500   0.57280   0.48920   0.01267  Uiso   1.00
C26    C     0.81040   0.48100   0.53220   0.01267  Uiso   1.00
C27    C     0.05218   0.07176   0.52343   0.01267  Uiso   1.00
C28    C     0.78175   0.07490   0.76811   0.01267  Uiso   1.00
C29    C     0.61125   0.91850   0.11695   0.01267  Uiso   1.00
C30    C     0.64495   0.84930   0.17285   0.01267  Uiso   1.00
C31    C     0.53580   0.79860   0.22250   0.01267  Uiso   1.00
C32    C     0.57350   0.73980   0.27470   0.01267  Uiso   1.00
C33    C     0.81320   0.77780   0.23100   0.01267  Uiso   1.00
C34    C     0.78490   0.83700   0.17660   0.01267  Uiso   1.00
C35    C     0.60685   0.25730   0.05077   0.01267  Uiso   1.00
C36    C     0.69506   0.36812   0.01420   0.01267  Uiso   1.00
C37    C     0.79290   0.35440   0.95730   0.01267  Uiso   1.00
C38    C     0.85320   0.44820   0.91630   0.01267  Uiso   1.00
C39    C     0.73780   0.57280   0.98920   0.01267  Uiso   1.00
C40    C     0.67060   0.48100   0.03220   0.01267  Uiso   1.00
C41    C     0.01958   0.07176   0.02343   0.01267  Uiso   1.00
C42    C     0.29315   0.07490   0.26811   0.01267  Uiso   1.00
C43    C     0.69275   0.08150   0.38305   0.01267  Uiso   1.00
C44    C     0.79565   0.15070   0.32715   0.01267  Uiso   1.00
C45    C     0.73720   0.20140   0.27750   0.01267  Uiso   1.00
C46    C     0.83370   0.26020   0.22530   0.01267  Uiso   1.00
C47    C     0.03540   0.22220   0.26900   0.01267  Uiso   1.00
C48    C     0.94790   0.16300   0.32340   0.01267  Uiso   1.00
C49    C     0.34955   0.74270   0.44923   0.01267  Uiso   1.00
C50    C     0.32694   0.63188   0.48580   0.01267  Uiso   1.00
C51    C     0.43850   0.64560   0.54270   0.01267  Uiso   1.00
C52    C     0.40500   0.55180   0.58370   0.01267  Uiso   1.00
C53    C     0.16500   0.42720   0.51080   0.01267  Uiso   1.00
C54    C     0.18960   0.51900   0.46780   0.01267  Uiso   1.00
C55    C     0.94782   0.92824   0.47657   0.01267  Uiso   1.00
C56    C     0.21825   0.92510   0.23189   0.01267  Uiso   1.00
N1     N     0.28853   0.26766   0.71920   0.01267  Uiso   1.00
N2     N     0.17611   0.44542   0.06980   0.01267  Uiso   1.00
N3     N     0.02087   0.73234   0.78080   0.01267  Uiso   1.00
N4     N     0.73069   0.55458   0.43020   0.01267  Uiso   1.00
N5     N     0.71147   0.73234   0.28080   0.01267  Uiso   1.00
N6     N     0.82389   0.55458   0.93020   0.01267  Uiso   1.00
N7     N     0.97913   0.26766   0.21920   0.01267  Uiso   1.00
N8     N     0.26931   0.44542   0.56980   0.01267  Uiso   1.00
O1     O     0.49005   0.03650   0.86493   0.01267  Uiso   1.00
O2     O     0.31641   0.07842   0.94361   0.01267  Uiso   1.00
O3     O     0.48744   0.72868   0.90078   0.01267  Uiso   1.00
O4     O     0.37552   0.84904   0.97229   0.01267  Uiso   1.00
O5     O     0.86387   0.87074   0.92319   0.01267  Uiso   1.00
O6     O     0.06626   0.87732   0.99561   0.01267  Uiso   1.00
O7     O     0.65470   0.85680   0.78030   0.01267  Uiso   1.00
O8     O     0.70642   0.88284   0.65794   0.01267  Uiso   1.00
O9     O     0.45355   0.96350   0.63507   0.01267  Uiso   1.00
O10    O     0.23799   0.92158   0.55639   0.01267  Uiso   1.00
O11    O     0.75876   0.27132   0.59922   0.01267  Uiso   1.00
O12    O     0.52648   0.15096   0.52771   0.01267  Uiso   1.00
O13    O     0.99313   0.12926   0.57681   0.01267  Uiso   1.00
O14    O     0.18894   0.12268   0.50439   0.01267  Uiso   1.00
O15    O     0.79790   0.14320   0.71970   0.01267  Uiso   1.00
O16    O     0.82358   0.11716   0.84206   0.01267  Uiso   1.00
O17    O     0.50995   0.96350   0.13507   0.01267  Uiso   1.00
O18    O     0.68359   0.92158   0.05639   0.01267  Uiso   1.00
O19    O     0.51256   0.27132   0.09922   0.01267  Uiso   1.00
O20    O     0.62448   0.15096   0.02771   0.01267  Uiso   1.00
O21    O     0.13613   0.12926   0.07681   0.01267  Uiso   1.00
O22    O     0.93374   0.12268   0.00439   0.01267  Uiso   1.00
O23    O     0.34530   0.14320   0.21970   0.01267  Uiso   1.00
O24    O     0.29358   0.11716   0.34206   0.01267  Uiso   1.00
O25    O     0.54645   0.03650   0.36493   0.01267  Uiso   1.00
O26    O     0.76201   0.07842   0.44361   0.01267  Uiso   1.00
O27    O     0.24124   0.72868   0.40078   0.01267  Uiso   1.00
O28    O     0.47352   0.84904   0.47229   0.01267  Uiso   1.00
O29    O     0.00687   0.87074   0.42319   0.01267  Uiso   1.00
O30    O     0.81106   0.87732   0.49561   0.01267  Uiso   1.00
O31    O     0.20210   0.85680   0.28030   0.01267  Uiso   1.00
O32    O     0.17642   0.88284   0.15794   0.01267  Uiso   1.00
