data_NIMVEL_clean
_audit_creation_date              2014-07-02
_audit_creation_method            'Materials Studio'
_symmetry_space_group_name_H-M    'P1'
_symmetry_Int_Tables_number       1
_symmetry_cell_setting            triclinic
loop_
_symmetry_equiv_pos_as_xyz
  x,y,z
_cell_length_a                    9.3939
_cell_length_b                    11.5186
_cell_length_c                    17.5535
_cell_angle_alpha                 105.2890
_cell_angle_beta                  90.0000
_cell_angle_gamma                 114.0650
loop_
_atom_site_label
_atom_site_type_symbol
_atom_site_fract_x
_atom_site_fract_y
_atom_site_fract_z
_atom_site_U_iso_or_equiv
_atom_site_adp_type
_atom_site_occupancy
La1    La    0.66858   0.97134   0.92668   0.01267  Uiso   1.00
La2    La    0.69724   0.02866   0.57332   0.01267  Uiso   1.00
La3    La    0.33142   0.02866   0.07332   0.01267  Uiso   1.00
La4    La    0.30276   0.97134   0.42668   0.01267  Uiso   1.00
Cu1    Cu    0.09512   0.33006   0.13784   0.01267  Uiso   1.00
Cu2    Cu    0.76506   0.66994   0.36216   0.01267  Uiso   1.00
Cu3    Cu    0.90488   0.66994   0.86216   0.01267  Uiso   1.00
Cu4    Cu    0.23494   0.33006   0.63784   0.01267  Uiso   1.00
H1     H     0.55710   0.19520   0.77850   0.01267  Uiso   1.00
H2     H     0.49810   0.29300   0.69230   0.01267  Uiso   1.00
H3     H     0.09290   0.23160   0.76820   0.01267  Uiso   1.00
H4     H     0.14300   0.13660   0.85890   0.01267  Uiso   1.00
H5     H     0.17820   0.71520   0.05150   0.01267  Uiso   1.00
H6     H     0.08270   0.56520   0.12300   0.01267  Uiso   1.00
H7     H     0.27930   0.34960   0.00230   0.01267  Uiso   1.00
H8     H     0.38710   0.49800   0.92990   0.01267  Uiso   1.00
H9     H     0.36190   0.80480   0.72150   0.01267  Uiso   1.00
H10    H     0.20510   0.70700   0.80770   0.01267  Uiso   1.00
H11    H     0.86130   0.76840   0.73180   0.01267  Uiso   1.00
H12    H     0.00640   0.86340   0.64110   0.01267  Uiso   1.00
H13    H     0.46300   0.28480   0.44850   0.01267  Uiso   1.00
H14    H     0.51750   0.43480   0.37700   0.01267  Uiso   1.00
H15    H     0.92970   0.65040   0.49770   0.01267  Uiso   1.00
H16    H     0.88910   0.50200   0.57010   0.01267  Uiso   1.00
H17    H     0.44290   0.80480   0.22150   0.01267  Uiso   1.00
H18    H     0.50190   0.70700   0.30770   0.01267  Uiso   1.00
H19    H     0.90710   0.76840   0.23180   0.01267  Uiso   1.00
H20    H     0.85700   0.86340   0.14110   0.01267  Uiso   1.00
H21    H     0.82180   0.28480   0.94850   0.01267  Uiso   1.00
H22    H     0.91730   0.43480   0.87700   0.01267  Uiso   1.00
H23    H     0.72070   0.65040   0.99770   0.01267  Uiso   1.00
H24    H     0.61290   0.50200   0.07010   0.01267  Uiso   1.00
H25    H     0.63810   0.19520   0.27850   0.01267  Uiso   1.00
H26    H     0.79490   0.29300   0.19230   0.01267  Uiso   1.00
H27    H     0.13870   0.23160   0.26820   0.01267  Uiso   1.00
H28    H     0.99360   0.13660   0.35890   0.01267  Uiso   1.00
H29    H     0.53700   0.71520   0.55150   0.01267  Uiso   1.00
H30    H     0.48250   0.56520   0.62300   0.01267  Uiso   1.00
H31    H     0.07030   0.34960   0.50230   0.01267  Uiso   1.00
H32    H     0.11090   0.49800   0.42990   0.01267  Uiso   1.00
C1     C     0.38939   0.08558   0.88368   0.01267  Uiso   1.00
C2     C     0.35456   0.15212   0.82739   0.01267  Uiso   1.00
C3     C     0.46120   0.20100   0.77730   0.01267  Uiso   1.00
C4     C     0.42430   0.25860   0.72520   0.01267  Uiso   1.00
C5     C     0.18720   0.22340   0.76990   0.01267  Uiso   1.00
C6     C     0.21610   0.16560   0.82460   0.01267  Uiso   1.00
C7     C     0.39009   0.73778   0.94854   0.01267  Uiso   1.00
C8     C     0.30368   0.62896   0.98639   0.01267  Uiso   1.00
C9     C     0.20511   0.64382   0.04220   0.01267  Uiso   1.00
C10    C     0.14630   0.55200   0.08410   0.01267  Uiso   1.00
C11    C     0.26210   0.42600   0.01390   0.01267  Uiso   1.00
C12    C     0.32759   0.51518   0.97010   0.01267  Uiso   1.00
C13    C     0.98029   0.92698   0.97621   0.01267  Uiso   1.00
C14    C     0.70600   0.92400   0.73177   0.01267  Uiso   1.00
C15    C     0.30381   0.91442   0.61632   0.01267  Uiso   1.00
C16    C     0.20244   0.84788   0.67261   0.01267  Uiso   1.00
C17    C     0.26020   0.79900   0.72270   0.01267  Uiso   1.00
C18    C     0.16570   0.74140   0.77480   0.01267  Uiso   1.00
C19    C     0.96380   0.77660   0.73010   0.01267  Uiso   1.00
C20    C     0.05050   0.83440   0.67540   0.01267  Uiso   1.00
C21    C     0.65231   0.26222   0.55146   0.01267  Uiso   1.00
C22    C     0.67472   0.37104   0.51361   0.01267  Uiso   1.00
C23    C     0.56129   0.35618   0.45780   0.01267  Uiso   1.00
C24    C     0.59430   0.44800   0.41590   0.01267  Uiso   1.00
C25    C     0.83610   0.57400   0.48610   0.01267  Uiso   1.00
C26    C     0.81241   0.48482   0.52990   0.01267  Uiso   1.00
C27    C     0.05331   0.07302   0.52379   0.01267  Uiso   1.00
C28    C     0.78200   0.07600   0.76823   0.01267  Uiso   1.00
C29    C     0.61061   0.91442   0.11632   0.01267  Uiso   1.00
C30    C     0.64544   0.84788   0.17261   0.01267  Uiso   1.00
C31    C     0.53880   0.79900   0.22270   0.01267  Uiso   1.00
C32    C     0.57570   0.74140   0.27480   0.01267  Uiso   1.00
C33    C     0.81280   0.77660   0.23010   0.01267  Uiso   1.00
C34    C     0.78390   0.83440   0.17540   0.01267  Uiso   1.00
C35    C     0.60991   0.26222   0.05146   0.01267  Uiso   1.00
C36    C     0.69632   0.37104   0.01361   0.01267  Uiso   1.00
C37    C     0.79489   0.35618   0.95780   0.01267  Uiso   1.00
C38    C     0.85370   0.44800   0.91590   0.01267  Uiso   1.00
C39    C     0.73790   0.57400   0.98610   0.01267  Uiso   1.00
C40    C     0.67241   0.48482   0.02990   0.01267  Uiso   1.00
C41    C     0.01971   0.07302   0.02379   0.01267  Uiso   1.00
C42    C     0.29400   0.07600   0.26823   0.01267  Uiso   1.00
C43    C     0.69619   0.08558   0.38368   0.01267  Uiso   1.00
C44    C     0.79756   0.15212   0.32739   0.01267  Uiso   1.00
C45    C     0.73980   0.20100   0.27730   0.01267  Uiso   1.00
C46    C     0.83430   0.25860   0.22520   0.01267  Uiso   1.00
C47    C     0.03620   0.22340   0.26990   0.01267  Uiso   1.00
C48    C     0.94950   0.16560   0.32460   0.01267  Uiso   1.00
C49    C     0.34769   0.73778   0.44854   0.01267  Uiso   1.00
C50    C     0.32528   0.62896   0.48639   0.01267  Uiso   1.00
C51    C     0.43871   0.64382   0.54220   0.01267  Uiso   1.00
C52    C     0.40570   0.55200   0.58410   0.01267  Uiso   1.00
C53    C     0.16390   0.42600   0.51390   0.01267  Uiso   1.00
C54    C     0.18759   0.51518   0.47010   0.01267  Uiso   1.00
C55    C     0.94669   0.92698   0.47621   0.01267  Uiso   1.00
C56    C     0.21800   0.92400   0.23177   0.01267  Uiso   1.00
N1     N     0.28773   0.26746   0.71982   0.01267  Uiso   1.00
N2     N     0.17592   0.44524   0.07185   0.01267  Uiso   1.00
N3     N     0.02027   0.73254   0.78018   0.01267  Uiso   1.00
N4     N     0.73068   0.55476   0.42815   0.01267  Uiso   1.00
N5     N     0.71227   0.73254   0.28018   0.01267  Uiso   1.00
N6     N     0.82408   0.55476   0.92815   0.01267  Uiso   1.00
N7     N     0.97973   0.26746   0.21982   0.01267  Uiso   1.00
N8     N     0.26932   0.44524   0.57185   0.01267  Uiso   1.00
O1     O     0.48925   0.03970   0.86598   0.01267  Uiso   1.00
O2     O     0.31772   0.08264   0.94366   0.01267  Uiso   1.00
O3     O     0.48219   0.72158   0.89999   0.01267  Uiso   1.00
O4     O     0.37424   0.84548   0.97092   0.01267  Uiso   1.00
O5     O     0.86530   0.86960   0.92299   0.01267  Uiso   1.00
O6     O     0.06556   0.87692   0.99512   0.01267  Uiso   1.00
O7     O     0.65377   0.85574   0.77914   0.01267  Uiso   1.00
O8     O     0.70607   0.88174   0.65847   0.01267  Uiso   1.00
O9     O     0.44955   0.96030   0.63402   0.01267  Uiso   1.00
O10    O     0.23508   0.91736   0.55634   0.01267  Uiso   1.00
O11    O     0.76061   0.27842   0.60001   0.01267  Uiso   1.00
O12    O     0.52876   0.15452   0.52908   0.01267  Uiso   1.00
O13    O     0.99570   0.13040   0.57701   0.01267  Uiso   1.00
O14    O     0.18864   0.12308   0.50488   0.01267  Uiso   1.00
O15    O     0.79803   0.14426   0.72086   0.01267  Uiso   1.00
O16    O     0.82433   0.11826   0.84153   0.01267  Uiso   1.00
O17    O     0.51075   0.96030   0.13402   0.01267  Uiso   1.00
O18    O     0.68228   0.91736   0.05634   0.01267  Uiso   1.00
O19    O     0.51781   0.27842   0.10001   0.01267  Uiso   1.00
O20    O     0.62576   0.15452   0.02908   0.01267  Uiso   1.00
O21    O     0.13470   0.13040   0.07701   0.01267  Uiso   1.00
O22    O     0.93444   0.12308   0.00488   0.01267  Uiso   1.00
O23    O     0.34623   0.14426   0.22086   0.01267  Uiso   1.00
O24    O     0.29393   0.11826   0.34153   0.01267  Uiso   1.00
O25    O     0.55045   0.03970   0.36598   0.01267  Uiso   1.00
O26    O     0.76492   0.08264   0.44366   0.01267  Uiso   1.00
O27    O     0.23939   0.72158   0.39999   0.01267  Uiso   1.00
O28    O     0.47124   0.84548   0.47092   0.01267  Uiso   1.00
O29    O     0.00430   0.86960   0.42299   0.01267  Uiso   1.00
O30    O     0.81136   0.87692   0.49512   0.01267  Uiso   1.00
O31    O     0.20197   0.85574   0.27914   0.01267  Uiso   1.00
O32    O     0.17567   0.88174   0.15847   0.01267  Uiso   1.00
