data_NIMXIS_clean
_audit_creation_date              2015-10-29
_audit_creation_method            'Materials Studio'
_symmetry_space_group_name_H-M    'P1'
_symmetry_Int_Tables_number       1
_symmetry_cell_setting            triclinic
loop_
_symmetry_equiv_pos_as_xyz
  x,y,z
_cell_length_a                    12.9376
_cell_length_b                    12.9376
_cell_length_c                    14.1621
_cell_angle_alpha                 85.0581
_cell_angle_beta                  85.0581
_cell_angle_gamma                 89.5963
loop_
_atom_site_label
_atom_site_type_symbol
_atom_site_fract_x
_atom_site_fract_y
_atom_site_fract_z
_atom_site_U_iso_or_equiv
_atom_site_adp_type
_atom_site_occupancy
Zn1    Zn    0.01724   0.18736   0.33517   0.01267  Uiso   1.00
Zn2    Zn    0.16584   0.16584   0.50514   0.01267  Uiso   1.00
Zn3    Zn    0.98276   0.81264   0.66483   0.01267  Uiso   1.00
Zn4    Zn    0.18736   0.01724   0.33517   0.01267  Uiso   1.00
Zn5    Zn    0.83416   0.83416   0.49486   0.01267  Uiso   1.00
Zn6    Zn    0.00000   0.00000   0.50000   0.01267  Uiso   1.00
Zn7    Zn    0.81264   0.98276   0.66483   0.01267  Uiso   1.00
C8     C     0.54290   0.06790   0.32060   0.01267  Uiso   1.00
C9     C     0.06790   0.54290   0.32060   0.01267  Uiso   1.00
C10    C     0.89740   0.29780   0.60840   0.01267  Uiso   1.00
C11    C     0.64220   0.13960   0.46690   0.01267  Uiso   1.00
C12    C     0.91590   0.04750   0.95980   0.01267  Uiso   1.00
C13    C     0.63110   0.90010   0.59690   0.01267  Uiso   1.00
C14    C     0.09990   0.36890   0.40310   0.01267  Uiso   1.00
C15    C     0.53560   0.14200   0.47080   0.01267  Uiso   1.00
C16    C     0.89620   0.51540   0.60220   0.01267  Uiso   1.00
C17    C     0.14200   0.53560   0.47080   0.01267  Uiso   1.00
C18    C     0.81820   0.10180   0.39240   0.01267  Uiso   1.00
C19    C     0.93070   0.35170   0.68200   0.01267  Uiso   1.00
C20    C     0.70220   0.10260   0.39160   0.01267  Uiso   1.00
C21    C     0.85800   0.46440   0.52920   0.01267  Uiso   1.00
C22    C     0.06980   0.06980   0.17100   0.01267  Uiso   1.00
C23    C     0.13960   0.64220   0.46690   0.01267  Uiso   1.00
C24    C     0.06930   0.64830   0.31800   0.01267  Uiso   1.00
C25    C     0.18180   0.89820   0.60760   0.01267  Uiso   1.00
C26    C     0.35780   0.86040   0.53310   0.01267  Uiso   1.00
C27    C     0.10260   0.70220   0.39160   0.01267  Uiso   1.00
C28    C     0.46440   0.85800   0.52920   0.01267  Uiso   1.00
C29    C     0.86040   0.35780   0.53310   0.01267  Uiso   1.00
C30    C     0.93210   0.45710   0.67940   0.01267  Uiso   1.00
C31    C     0.03740   0.03740   0.08040   0.01267  Uiso   1.00
C32    C     0.10380   0.48460   0.39780   0.01267  Uiso   1.00
C33    C     0.51540   0.89620   0.60220   0.01267  Uiso   1.00
C34    C     0.64830   0.06930   0.31800   0.01267  Uiso   1.00
C35    C     0.35170   0.93070   0.68200   0.01267  Uiso   1.00
C36    C     0.95250   0.08410   0.04020   0.01267  Uiso   1.00
C37    C     0.90010   0.63110   0.59690   0.01267  Uiso   1.00
C38    C     0.93020   0.93020   0.82900   0.01267  Uiso   1.00
C39    C     0.89820   0.18180   0.60760   0.01267  Uiso   1.00
C40    C     0.36890   0.09990   0.40310   0.01267  Uiso   1.00
C41    C     0.45710   0.93210   0.67940   0.01267  Uiso   1.00
C42    C     0.48460   0.10380   0.39780   0.01267  Uiso   1.00
C43    C     0.10180   0.81820   0.39240   0.01267  Uiso   1.00
C44    C     0.96260   0.96260   0.91960   0.01267  Uiso   1.00
C45    C     0.04750   0.91590   0.95980   0.01267  Uiso   1.00
C46    C     0.08410   0.95250   0.04020   0.01267  Uiso   1.00
C47    C     0.29780   0.89740   0.60840   0.01267  Uiso   1.00
N48    N     0.70680   0.03500   0.23440   0.01267  Uiso   1.00
N49    N     0.29320   0.96500   0.76560   0.01267  Uiso   1.00
N50    N     0.96500   0.29320   0.76560   0.01267  Uiso   1.00
N51    N     0.03500   0.70680   0.23440   0.01267  Uiso   1.00
O52    O     0.85913   0.02093   0.42380   0.01267  Uiso   1.00
O53    O     0.13603   0.81351   0.63420   0.01267  Uiso   1.00
O54    O     0.97960   0.85460   0.79370   0.01267  Uiso   1.00
O55    O     0.09276   0.09276   0.41630   0.01267  Uiso   1.00
O56    O     0.18649   0.86397   0.36580   0.01267  Uiso   1.00
O57    O     0.85297   0.68101   0.53480   0.01267  Uiso   1.00
O58    O     0.31899   0.14703   0.46520   0.01267  Uiso   1.00
O59    O     0.81351   0.13603   0.63420   0.01267  Uiso   1.00
O60    O     0.20190   0.96290   0.77430   0.01267  Uiso   1.00
O61    O     0.97907   0.14087   0.57620   0.01267  Uiso   1.00
O62    O     0.02040   0.14540   0.20630   0.01267  Uiso   1.00
O63    O     0.95294   0.66792   0.65880   0.01267  Uiso   1.00
O64    O     0.66000   0.00960   0.17100   0.01267  Uiso   1.00
O65    O     0.68101   0.85297   0.53480   0.01267  Uiso   1.00
O66    O     0.33208   0.04706   0.34120   0.01267  Uiso   1.00
O67    O     0.66792   0.95294   0.65880   0.01267  Uiso   1.00
O68    O     0.04706   0.33208   0.34120   0.01267  Uiso   1.00
O69    O     0.85460   0.97960   0.79370   0.01267  Uiso   1.00
O70    O     0.00960   0.66000   0.17100   0.01267  Uiso   1.00
O71    O     0.14087   0.97907   0.57620   0.01267  Uiso   1.00
O72    O     0.14540   0.02040   0.20630   0.01267  Uiso   1.00
O73    O     0.34000   0.99040   0.82900   0.01267  Uiso   1.00
O74    O     0.96290   0.20190   0.77430   0.01267  Uiso   1.00
O75    O     0.86397   0.18649   0.36580   0.01267  Uiso   1.00
O76    O     0.79810   0.03710   0.22570   0.01267  Uiso   1.00
O77    O     0.02093   0.85913   0.42380   0.01267  Uiso   1.00
O78    O     0.90724   0.90724   0.58370   0.01267  Uiso   1.00
O79    O     0.14703   0.31899   0.46520   0.01267  Uiso   1.00
O80    O     0.03710   0.79810   0.22570   0.01267  Uiso   1.00
O81    O     0.99040   0.34000   0.82900   0.01267  Uiso   1.00
H82    H     0.50341   0.03740   0.25964   0.00000  Uiso   1.00
H83    H     0.03740   0.50341   0.25964   0.00000  Uiso   1.00
H84    H     0.68394   0.16878   0.52714   0.00000  Uiso   1.00
H85    H     0.84722   0.08712   0.92644   0.00000  Uiso   1.00
H86    H     0.48908   0.17503   0.53336   0.00000  Uiso   1.00
H87    H     0.17503   0.48908   0.53336   0.00000  Uiso   1.00
H88    H     0.82502   0.51118   0.46675   0.00000  Uiso   1.00
H89    H     0.16878   0.68394   0.52714   0.00000  Uiso   1.00
H90    H     0.31606   0.83122   0.47286   0.00000  Uiso   1.00
H91    H     0.51092   0.82497   0.46664   0.00000  Uiso   1.00
H92    H     0.83049   0.31915   0.47140   0.00000  Uiso   1.00
H93    H     0.96242   0.49747   0.73993   0.00000  Uiso   1.00
H94    H     0.91288   0.15278   0.07356   0.00000  Uiso   1.00
H95    H     0.49659   0.96260   0.74036   0.00000  Uiso   1.00
H96    H     0.08752   0.84719   0.92684   0.00000  Uiso   1.00
H97    H     0.15281   0.91248   0.07316   0.00000  Uiso   1.00
loop_
_geom_bond_atom_site_label_1
_geom_bond_atom_site_label_2
_geom_bond_distance
_geom_bond_site_symmetry_2
_ccdc_geom_bond_type
Zn1    O55     1.925   .     S
Zn1    O62     1.945   .     S
Zn1    O68     1.925   .     S
Zn1    O75     1.993   1_455 S
Zn2    O55     1.948   .     S
Zn2    O58     2.032   .     S
Zn2    O79     2.032   .     S
Zn3    O53     1.993   1_655 S
Zn3    O54     1.945   .     S
Zn3    O63     1.925   .     S
Zn3    O78     1.925   .     S
Zn4    O55     1.925   .     S
Zn4    O56     1.993   1_545 S
Zn4    O66     1.925   .     S
Zn4    O72     1.945   .     S
Zn5    O57     2.032   .     S
Zn5    O65     2.032   .     S
Zn5    O78     1.948   .     S
Zn6    O52     2.200   1_455 S
Zn6    O55     1.953   .     S
Zn6    O61     2.200   1_455 S
Zn6    O71     2.200   1_545 S
Zn6    O77     2.200   1_545 S
Zn6    O78     1.953   1_445 S
Zn7    O59     1.993   1_565 S
Zn7    O67     1.925   .     S
Zn7    O69     1.945   .     S
Zn7    O78     1.925   .     S
C8     C34     1.361   .     A
C8     C42     1.386   .     A
C8     H82     1.140   .     S
C9     C24     1.361   .     A
C9     C32     1.386   .     A
C9     H83     1.140   .     S
C10    C19     1.402   .     A
C10    C29     1.382   .     A
C10    C39     1.502   .     S
C11    C15     1.376   .     A
C11    C20     1.382   .     A
C11    H84     1.140   .     S
C12    C36     1.391   1_556 A
C12    C44     1.391   1_545 A
C12    H85     1.140   .     S
C13    C33     1.493   .     S
C13    O65     1.245   .     A
C13    O67     1.282   .     A
C14    C32     1.493   .     S
C14    O68     1.282   .     A
C14    O79     1.245   .     A
C15    C42     1.399   .     A
C15    H86     1.140   .     S
C16    C21     1.399   .     A
C16    C30     1.386   .     A
C16    C37     1.493   .     S
C17    C23     1.376   .     A
C17    C32     1.399   .     A
C17    H87     1.140   .     S
C18    C20     1.502   .     S
C18    O52     1.235   .     A
C18    O75     1.262   .     A
C19    C30     1.361   .     A
C19    N50     1.450   .     S
C20    C34     1.402   .     A
C21    C29     1.376   .     A
C21    H88     1.140   .     S
C22    C31     1.478   .     S
C22    O62     1.279   .     A
C22    O72     1.279   .     A
C23    C27     1.382   .     A
C23    H89     1.140   .     S
C24    C27     1.402   .     A
C24    N51     1.450   .     S
C25    C47     1.502   .     S
C25    O53     1.262   .     A
C25    O71     1.235   .     A
C26    C28     1.376   .     A
C26    C47     1.382   .     A
C26    H90     1.140   .     S
C27    C43     1.502   .     S
C28    C33     1.399   .     A
C28    H91     1.140   .     S
C29    H92     1.140   .     S
C30    H93     1.140   .     S
C31    C36     1.391   1_455 A
C31    C46     1.391   1_545 A
C33    C41     1.386   .     A
C34    N48     1.450   .     S
C35    C41     1.361   .     A
C35    C47     1.402   .     A
C35    N49     1.450   .     S
C36    C12     1.391   1_554 A
C36    C31     1.391   1_655 A
C36    H94     1.140   .     S
C37    O57     1.245   .     A
C37    O63     1.282   .     A
C38    C44     1.478   .     S
C38    O54     1.279   .     A
C38    O69     1.279   .     A
C39    O59     1.262   .     A
C39    O61     1.235   .     A
C40    C42     1.493   .     S
C40    O58     1.245   .     A
C40    O66     1.282   .     A
C41    H95     1.140   .     S
C43    O56     1.262   .     A
C43    O77     1.235   .     A
C44    C12     1.391   1_565 A
C44    C45     1.391   1_655 A
C45    C44     1.391   1_455 A
C45    C46     1.391   1_556 A
C45    H96     1.140   .     S
C46    C31     1.391   1_565 A
C46    C45     1.391   1_554 A
C46    H97     1.140   .     S
N48    O64     1.195   .     A
N48    O76     1.177   .     A
N49    O60     1.177   .     A
N49    O73     1.195   .     A
N50    O74     1.177   .     A
N50    O81     1.195   .     A
N51    O70     1.195   .     A
N51    O80     1.177   .     A
O52    Zn6     2.200   1_655 S
O53    Zn3     1.993   1_455 S
O56    Zn4     1.993   1_565 S
O59    Zn7     1.993   1_545 S
O61    Zn6     2.200   1_655 S
O71    Zn6     2.200   1_565 S
O75    Zn1     1.993   1_655 S
O77    Zn6     2.200   1_565 S
O78    Zn6     1.953   1_665 S
