data_image0
_cell_length_a       18.7028
_cell_length_b       18.7028
_cell_length_c       18.2028
_cell_angle_alpha    90
_cell_angle_beta     90
_cell_angle_gamma    90

_symmetry_space_group_name_H-M    "P 1"
_symmetry_int_tables_number       1

loop_
  _symmetry_equiv_pos_as_xyz
  'x, y, z'

loop_
  _atom_site_label
  _atom_site_occupancy
  _atom_site_fract_x
  _atom_site_fract_y
  _atom_site_fract_z
  _atom_site_thermal_displace_type
  _atom_site_B_iso_or_equiv
  _atom_site_type_symbol
  O1       1.0000 0.22590  0.14420  0.42680  Biso   1.000  O
  C1       1.0000 0.19291  0.28122  0.28426  Biso   1.000  C
  N1       1.0000 0.13742  0.31587  0.31910  Biso   1.000  N
  H1       1.0000 0.15308  0.30609  0.30927  Biso   1.000  H
  O2       1.0000 0.72590  0.64420  0.92680  Biso   1.000  O
  C2       1.0000 0.69291  0.78122  0.78426  Biso   1.000  C
  N2       1.0000 0.63742  0.81587  0.81910  Biso   1.000  N
  H2       1.0000 0.65308  0.80609  0.80927  Biso   1.000  H
  O3       1.0000 0.77410  0.85580  0.42680  Biso   1.000  O
  C3       1.0000 0.80709  0.71878  0.28426  Biso   1.000  C
  N3       1.0000 0.86258  0.68413  0.31910  Biso   1.000  N
  H3       1.0000 0.84692  0.69391  0.30927  Biso   1.000  H
  O4       1.0000 0.27410  0.35580  0.92680  Biso   1.000  O
  C4       1.0000 0.30709  0.21878  0.78426  Biso   1.000  C
  N4       1.0000 0.36258  0.18413  0.81910  Biso   1.000  N
  H4       1.0000 0.34692  0.19391  0.80927  Biso   1.000  H
  O5       1.0000 0.85580  0.22590  0.42680  Biso   1.000  O
  C5       1.0000 0.71878  0.19291  0.28426  Biso   1.000  C
  N5       1.0000 0.68413  0.13742  0.31910  Biso   1.000  N
  H5       1.0000 0.69391  0.15308  0.30927  Biso   1.000  H
  O6       1.0000 0.35580  0.72590  0.92680  Biso   1.000  O
  C6       1.0000 0.21878  0.69291  0.78426  Biso   1.000  C
  N6       1.0000 0.18413  0.63742  0.81910  Biso   1.000  N
  H6       1.0000 0.19391  0.65308  0.80927  Biso   1.000  H
  O7       1.0000 0.14420  0.77410  0.42680  Biso   1.000  O
  C7       1.0000 0.28122  0.80709  0.28426  Biso   1.000  C
  N7       1.0000 0.31587  0.86258  0.31910  Biso   1.000  N
  H7       1.0000 0.30609  0.84692  0.30927  Biso   1.000  H
  O8       1.0000 0.64420  0.27410  0.92680  Biso   1.000  O
  C8       1.0000 0.78122  0.30709  0.78426  Biso   1.000  C
  N8       1.0000 0.81587  0.36258  0.81910  Biso   1.000  N
  H8       1.0000 0.80609  0.34692  0.80927  Biso   1.000  H
  O9       1.0000 0.77410  0.14420  0.57320  Biso   1.000  O
  C9       1.0000 0.80709  0.28122  0.71574  Biso   1.000  C
  N9       1.0000 0.86258  0.31587  0.68090  Biso   1.000  N
  H9       1.0000 0.84692  0.30609  0.69073  Biso   1.000  H
  O10      1.0000 0.27410  0.64420  0.07320  Biso   1.000  O
  C10      1.0000 0.30709  0.78122  0.21574  Biso   1.000  C
  N10      1.0000 0.36258  0.81587  0.18090  Biso   1.000  N
  H10      1.0000 0.34692  0.80609  0.19073  Biso   1.000  H
  O11      1.0000 0.22590  0.85580  0.57320  Biso   1.000  O
  C11      1.0000 0.19291  0.71878  0.71574  Biso   1.000  C
  N11      1.0000 0.13742  0.68413  0.68090  Biso   1.000  N
  H11      1.0000 0.15308  0.69391  0.69073  Biso   1.000  H
  O12      1.0000 0.72590  0.35580  0.07320  Biso   1.000  O
  C12      1.0000 0.69291  0.21878  0.21574  Biso   1.000  C
  N12      1.0000 0.63742  0.18413  0.18090  Biso   1.000  N
  H12      1.0000 0.65308  0.19391  0.19073  Biso   1.000  H
  O13      1.0000 0.14420  0.22590  0.57320  Biso   1.000  O
  C13      1.0000 0.28122  0.19291  0.71574  Biso   1.000  C
  N13      1.0000 0.31587  0.13742  0.68090  Biso   1.000  N
  H13      1.0000 0.30609  0.15308  0.69073  Biso   1.000  H
  O14      1.0000 0.64420  0.72590  0.07320  Biso   1.000  O
  C14      1.0000 0.78122  0.69291  0.21574  Biso   1.000  C
  N14      1.0000 0.81587  0.63742  0.18090  Biso   1.000  N
  H14      1.0000 0.80609  0.65308  0.19073  Biso   1.000  H
  O15      1.0000 0.85580  0.77410  0.57320  Biso   1.000  O
  C15      1.0000 0.71878  0.80709  0.71574  Biso   1.000  C
  N15      1.0000 0.68413  0.86258  0.68090  Biso   1.000  N
  H15      1.0000 0.69391  0.84692  0.69073  Biso   1.000  H
  O16      1.0000 0.35580  0.27410  0.07320  Biso   1.000  O
  C16      1.0000 0.21878  0.30709  0.21574  Biso   1.000  C
  N16      1.0000 0.18413  0.36258  0.18090  Biso   1.000  N
  H16      1.0000 0.19391  0.34692  0.19073  Biso   1.000  H
  O17      1.0000 0.77410  0.85580  0.57320  Biso   1.000  O
  C17      1.0000 0.80709  0.71878  0.71574  Biso   1.000  C
  N17      1.0000 0.86258  0.68413  0.68090  Biso   1.000  N
  H17      1.0000 0.84692  0.69391  0.69073  Biso   1.000  H
  O18      1.0000 0.27410  0.35580  0.07320  Biso   1.000  O
  C18      1.0000 0.30709  0.21878  0.21574  Biso   1.000  C
  N18      1.0000 0.36258  0.18413  0.18090  Biso   1.000  N
  H18      1.0000 0.34692  0.19391  0.19073  Biso   1.000  H
  O19      1.0000 0.22590  0.14420  0.57320  Biso   1.000  O
  C19      1.0000 0.19291  0.28122  0.71574  Biso   1.000  C
  N19      1.0000 0.13742  0.31587  0.68090  Biso   1.000  N
  H19      1.0000 0.15308  0.30609  0.69073  Biso   1.000  H
  O20      1.0000 0.72590  0.64420  0.07320  Biso   1.000  O
  C20      1.0000 0.69291  0.78122  0.21574  Biso   1.000  C
  N20      1.0000 0.63742  0.81587  0.18090  Biso   1.000  N
  H20      1.0000 0.65308  0.80609  0.19073  Biso   1.000  H
  O21      1.0000 0.14420  0.77410  0.57320  Biso   1.000  O
  C21      1.0000 0.28122  0.80709  0.71574  Biso   1.000  C
  N21      1.0000 0.31587  0.86258  0.68090  Biso   1.000  N
  H21      1.0000 0.30609  0.84692  0.69073  Biso   1.000  H
  O22      1.0000 0.64420  0.27410  0.07320  Biso   1.000  O
  C22      1.0000 0.78122  0.30709  0.21574  Biso   1.000  C
  N22      1.0000 0.81587  0.36258  0.18090  Biso   1.000  N
  H22      1.0000 0.80609  0.34692  0.19073  Biso   1.000  H
  O23      1.0000 0.85580  0.22590  0.57320  Biso   1.000  O
  C23      1.0000 0.71878  0.19291  0.71574  Biso   1.000  C
  N23      1.0000 0.68413  0.13742  0.68090  Biso   1.000  N
  H23      1.0000 0.69391  0.15308  0.69073  Biso   1.000  H
  O24      1.0000 0.35580  0.72590  0.07320  Biso   1.000  O
  C24      1.0000 0.21878  0.69291  0.21574  Biso   1.000  C
  N24      1.0000 0.18413  0.63742  0.18090  Biso   1.000  N
  H24      1.0000 0.19391  0.65308  0.19073  Biso   1.000  H
  O25      1.0000 0.22590  0.85580  0.42680  Biso   1.000  O
  C25      1.0000 0.19291  0.71878  0.28426  Biso   1.000  C
  N25      1.0000 0.13742  0.68413  0.31910  Biso   1.000  N
  H25      1.0000 0.15308  0.69391  0.30927  Biso   1.000  H
  O26      1.0000 0.72590  0.35580  0.92680  Biso   1.000  O
  C26      1.0000 0.69291  0.21878  0.78426  Biso   1.000  C
  N26      1.0000 0.63742  0.18413  0.81910  Biso   1.000  N
  H26      1.0000 0.65308  0.19391  0.80927  Biso   1.000  H
  O27      1.0000 0.77410  0.14420  0.42680  Biso   1.000  O
  C27      1.0000 0.80709  0.28122  0.28426  Biso   1.000  C
  N27      1.0000 0.86258  0.31587  0.31910  Biso   1.000  N
  H27      1.0000 0.84692  0.30609  0.30927  Biso   1.000  H
  O28      1.0000 0.27410  0.64420  0.92680  Biso   1.000  O
  C28      1.0000 0.30709  0.78122  0.78426  Biso   1.000  C
  N28      1.0000 0.36258  0.81587  0.81910  Biso   1.000  N
  H28      1.0000 0.34692  0.80609  0.80927  Biso   1.000  H
  O29      1.0000 0.85580  0.77410  0.42680  Biso   1.000  O
  C29      1.0000 0.71878  0.80709  0.28426  Biso   1.000  C
  N29      1.0000 0.68413  0.86258  0.31910  Biso   1.000  N
  H29      1.0000 0.69391  0.84692  0.30927  Biso   1.000  H
  O30      1.0000 0.35580  0.27410  0.92680  Biso   1.000  O
  C30      1.0000 0.21878  0.30709  0.78426  Biso   1.000  C
  N30      1.0000 0.18413  0.36258  0.81910  Biso   1.000  N
  H30      1.0000 0.19391  0.34692  0.80927  Biso   1.000  H
  O31      1.0000 0.14420  0.22590  0.42680  Biso   1.000  O
  C31      1.0000 0.28122  0.19291  0.28426  Biso   1.000  C
  N31      1.0000 0.31587  0.13742  0.31910  Biso   1.000  N
  H31      1.0000 0.30609  0.15308  0.30927  Biso   1.000  H
  O32      1.0000 0.64420  0.72590  0.92680  Biso   1.000  O
  C32      1.0000 0.78122  0.69291  0.78426  Biso   1.000  C
  N32      1.0000 0.81587  0.63742  0.81910  Biso   1.000  N
  H32      1.0000 0.80609  0.65308  0.80927  Biso   1.000  H
  Ti1      1.0000 0.20830  0.07400  0.50000  Biso   1.000  Ti
  O33      1.0000 0.31110  0.05800  0.50000  Biso   1.000  O
  C33      1.0000 0.46333  0.06514  0.50000  Biso   1.000  C
  N33      1.0000 0.42348  0.12294  0.50000  Biso   1.000  N
  H33      1.0000 0.43430  0.10725  0.50000  Biso   1.000  H
  Ti2      1.0000 0.70830  0.57400  0.00000  Biso   1.000  Ti
  O34      1.0000 0.81110  0.55800  0.00000  Biso   1.000  O
  C34      1.0000 0.96333  0.56514  0.00000  Biso   1.000  C
  N34      1.0000 0.92348  0.62294  0.00000  Biso   1.000  N
  H34      1.0000 0.93430  0.60725  0.00000  Biso   1.000  H
  Ti3      1.0000 0.79170  0.92600  0.50000  Biso   1.000  Ti
  O35      1.0000 0.68890  0.94200  0.50000  Biso   1.000  O
  C35      1.0000 0.53667  0.93486  0.50000  Biso   1.000  C
  N35      1.0000 0.57652  0.87706  0.50000  Biso   1.000  N
  H35      1.0000 0.56570  0.89275  0.50000  Biso   1.000  H
  Ti4      1.0000 0.29170  0.42600  0.00000  Biso   1.000  Ti
  O36      1.0000 0.18890  0.44200  0.00000  Biso   1.000  O
  C36      1.0000 0.03667  0.43486  0.00000  Biso   1.000  C
  N36      1.0000 0.07652  0.37706  0.00000  Biso   1.000  N
  H36      1.0000 0.06570  0.39275  0.00000  Biso   1.000  H
  Ti5      1.0000 0.92600  0.20830  0.50000  Biso   1.000  Ti
  O37      1.0000 0.94200  0.31110  0.50000  Biso   1.000  O
  C37      1.0000 0.93486  0.46333  0.50000  Biso   1.000  C
  N37      1.0000 0.87706  0.42348  0.50000  Biso   1.000  N
  H37      1.0000 0.89275  0.43430  0.50000  Biso   1.000  H
  Ti6      1.0000 0.42600  0.70830  0.00000  Biso   1.000  Ti
  O38      1.0000 0.44200  0.81110  0.00000  Biso   1.000  O
  C38      1.0000 0.43486  0.96333  0.00000  Biso   1.000  C
  N38      1.0000 0.37706  0.92348  0.00000  Biso   1.000  N
  H38      1.0000 0.39275  0.93430  0.00000  Biso   1.000  H
  Ti7      1.0000 0.07400  0.79170  0.50000  Biso   1.000  Ti
  O39      1.0000 0.05800  0.68890  0.50000  Biso   1.000  O
  C39      1.0000 0.06514  0.53667  0.50000  Biso   1.000  C
  N39      1.0000 0.12294  0.57652  0.50000  Biso   1.000  N
  H39      1.0000 0.10725  0.56570  0.50000  Biso   1.000  H
  Ti8      1.0000 0.57400  0.29170  0.00000  Biso   1.000  Ti
  O40      1.0000 0.55800  0.18890  0.00000  Biso   1.000  O
  C40      1.0000 0.56514  0.03667  0.00000  Biso   1.000  C
  N40      1.0000 0.62294  0.07652  0.00000  Biso   1.000  N
  H40      1.0000 0.60725  0.06570  0.00000  Biso   1.000  H
  Ti9      1.0000 0.79170  0.07400  0.50000  Biso   1.000  Ti
  O41      1.0000 0.68890  0.05800  0.50000  Biso   1.000  O
  C41      1.0000 0.53667  0.06514  0.50000  Biso   1.000  C
  N41      1.0000 0.57652  0.12294  0.50000  Biso   1.000  N
  H41      1.0000 0.56570  0.10725  0.50000  Biso   1.000  H
  Ti10     1.0000 0.29170  0.57400  0.00000  Biso   1.000  Ti
  O42      1.0000 0.18890  0.55800  0.00000  Biso   1.000  O
  C42      1.0000 0.03667  0.56514  0.00000  Biso   1.000  C
  N42      1.0000 0.07652  0.62294  0.00000  Biso   1.000  N
  H42      1.0000 0.06570  0.60725  0.00000  Biso   1.000  H
  Ti11     1.0000 0.20830  0.92600  0.50000  Biso   1.000  Ti
  O43      1.0000 0.31110  0.94200  0.50000  Biso   1.000  O
  C43      1.0000 0.46333  0.93486  0.50000  Biso   1.000  C
  N43      1.0000 0.42348  0.87706  0.50000  Biso   1.000  N
  H43      1.0000 0.43430  0.89275  0.50000  Biso   1.000  H
  Ti12     1.0000 0.70830  0.42600  0.00000  Biso   1.000  Ti
  O44      1.0000 0.81110  0.44200  0.00000  Biso   1.000  O
  C44      1.0000 0.96333  0.43486  0.00000  Biso   1.000  C
  N44      1.0000 0.92348  0.37706  0.00000  Biso   1.000  N
  H44      1.0000 0.93430  0.39275  0.00000  Biso   1.000  H
  Ti13     1.0000 0.07400  0.20830  0.50000  Biso   1.000  Ti
  O45      1.0000 0.05800  0.31110  0.50000  Biso   1.000  O
  C45      1.0000 0.06514  0.46333  0.50000  Biso   1.000  C
  N45      1.0000 0.12294  0.42348  0.50000  Biso   1.000  N
  H45      1.0000 0.10725  0.43430  0.50000  Biso   1.000  H
  Ti14     1.0000 0.57400  0.70830  0.00000  Biso   1.000  Ti
  O46      1.0000 0.55800  0.81110  0.00000  Biso   1.000  O
  C46      1.0000 0.56514  0.96333  0.00000  Biso   1.000  C
  N46      1.0000 0.62294  0.92348  0.00000  Biso   1.000  N
  H46      1.0000 0.60725  0.93430  0.00000  Biso   1.000  H
  Ti15     1.0000 0.92600  0.79170  0.50000  Biso   1.000  Ti
  O47      1.0000 0.94200  0.68890  0.50000  Biso   1.000  O
  C47      1.0000 0.93486  0.53667  0.50000  Biso   1.000  C
  N47      1.0000 0.87706  0.57652  0.50000  Biso   1.000  N
  H47      1.0000 0.89275  0.56570  0.50000  Biso   1.000  H
  Ti16     1.0000 0.42600  0.29170  0.00000  Biso   1.000  Ti
  O48      1.0000 0.44200  0.18890  0.00000  Biso   1.000  O
  C48      1.0000 0.43486  0.03667  0.00000  Biso   1.000  C
  N48      1.0000 0.37706  0.07652  0.00000  Biso   1.000  N
  H48      1.0000 0.39275  0.06570  0.00000  Biso   1.000  H
  O49      1.0000 0.18190  0.00000  0.42650  Biso   1.000  O
  O50      1.0000 0.68190  0.50000  0.92650  Biso   1.000  O
  O51      1.0000 0.81810  0.00000  0.42650  Biso   1.000  O
  O52      1.0000 0.31810  0.50000  0.92650  Biso   1.000  O
  O53      1.0000 0.00000  0.18190  0.42650  Biso   1.000  O
  O54      1.0000 0.50000  0.68190  0.92650  Biso   1.000  O
  O55      1.0000 0.00000  0.81810  0.42650  Biso   1.000  O
  O56      1.0000 0.50000  0.31810  0.92650  Biso   1.000  O
  O57      1.0000 0.81810  0.00000  0.57350  Biso   1.000  O
  O58      1.0000 0.31810  0.50000  0.07350  Biso   1.000  O
  O59      1.0000 0.18190  0.00000  0.57350  Biso   1.000  O
  O60      1.0000 0.68190  0.50000  0.07350  Biso   1.000  O
  O61      1.0000 0.00000  0.18190  0.57350  Biso   1.000  O
  O62      1.0000 0.50000  0.68190  0.07350  Biso   1.000  O
  O63      1.0000 0.00000  0.81810  0.57350  Biso   1.000  O
  O64      1.0000 0.50000  0.31810  0.07350  Biso   1.000  O
  C49      1.0000 0.19400  0.19400  0.40230  Biso   1.000  C
  C50      1.0000 0.22250  0.22250  0.32090  Biso   1.000  C
  C51      1.0000 0.69400  0.69400  0.90230  Biso   1.000  C
  C52      1.0000 0.72250  0.72250  0.82090  Biso   1.000  C
  C53      1.0000 0.80600  0.80600  0.40230  Biso   1.000  C
  C54      1.0000 0.77750  0.77750  0.32090  Biso   1.000  C
  C55      1.0000 0.30600  0.30600  0.90230  Biso   1.000  C
  C56      1.0000 0.27750  0.27750  0.82090  Biso   1.000  C
  C57      1.0000 0.80600  0.19400  0.40230  Biso   1.000  C
  C58      1.0000 0.77750  0.22250  0.32090  Biso   1.000  C
  C59      1.0000 0.30600  0.69400  0.90230  Biso   1.000  C
  C60      1.0000 0.27750  0.72250  0.82090  Biso   1.000  C
  C61      1.0000 0.19400  0.80600  0.40230  Biso   1.000  C
  C62      1.0000 0.22250  0.77750  0.32090  Biso   1.000  C
  C63      1.0000 0.69400  0.30600  0.90230  Biso   1.000  C
  C64      1.0000 0.72250  0.27750  0.82090  Biso   1.000  C
  C65      1.0000 0.80600  0.19400  0.59770  Biso   1.000  C
  C66      1.0000 0.77750  0.22250  0.67910  Biso   1.000  C
  C67      1.0000 0.30600  0.69400  0.09770  Biso   1.000  C
  C68      1.0000 0.27750  0.72250  0.17910  Biso   1.000  C
  C69      1.0000 0.19400  0.80600  0.59770  Biso   1.000  C
  C70      1.0000 0.22250  0.77750  0.67910  Biso   1.000  C
  C71      1.0000 0.69400  0.30600  0.09770  Biso   1.000  C
  C72      1.0000 0.72250  0.27750  0.17910  Biso   1.000  C
  C73      1.0000 0.19400  0.19400  0.59770  Biso   1.000  C
  C74      1.0000 0.22250  0.22250  0.67910  Biso   1.000  C
  C75      1.0000 0.69400  0.69400  0.09770  Biso   1.000  C
  C76      1.0000 0.72250  0.72250  0.17910  Biso   1.000  C
  C77      1.0000 0.80600  0.80600  0.59770  Biso   1.000  C
  C78      1.0000 0.77750  0.77750  0.67910  Biso   1.000  C
  C79      1.0000 0.30600  0.30600  0.09770  Biso   1.000  C
  C80      1.0000 0.27750  0.27750  0.17910  Biso   1.000  C
  C81      1.0000 0.42650  0.00000  0.50000  Biso   1.000  C
  C82      1.0000 0.35070  0.00000  0.50000  Biso   1.000  C
  C83      1.0000 0.92650  0.50000  0.00000  Biso   1.000  C
  C84      1.0000 0.85070  0.50000  0.00000  Biso   1.000  C
  C85      1.0000 0.57350  0.00000  0.50000  Biso   1.000  C
  C86      1.0000 0.64930  0.00000  0.50000  Biso   1.000  C
  C87      1.0000 0.07350  0.50000  0.00000  Biso   1.000  C
  C88      1.0000 0.14930  0.50000  0.00000  Biso   1.000  C
  C89      1.0000 0.00000  0.42650  0.50000  Biso   1.000  C
  C90      1.0000 0.00000  0.35070  0.50000  Biso   1.000  C
  C91      1.0000 0.50000  0.92650  0.00000  Biso   1.000  C
  C92      1.0000 0.50000  0.85070  0.00000  Biso   1.000  C
  C93      1.0000 0.00000  0.57350  0.50000  Biso   1.000  C
  C94      1.0000 0.00000  0.64930  0.50000  Biso   1.000  C
  C95      1.0000 0.50000  0.07350  0.00000  Biso   1.000  C
  C96      1.0000 0.50000  0.14930  0.00000  Biso   1.000  C
  O65      1.0000 0.10740  0.10740  0.50000  Biso   1.000  O
  O66      1.0000 0.60740  0.60740  0.00000  Biso   1.000  O
  O67      1.0000 0.89260  0.89260  0.50000  Biso   1.000  O
  O68      1.0000 0.39260  0.39260  0.00000  Biso   1.000  O
  O69      1.0000 0.89260  0.10740  0.50000  Biso   1.000  O
  O70      1.0000 0.39260  0.60740  0.00000  Biso   1.000  O
  O71      1.0000 0.10740  0.89260  0.50000  Biso   1.000  O
  O72      1.0000 0.60740  0.39260  0.00000  Biso   1.000  O
