data_NINHOH_clean
_audit_creation_date              2014-07-02
_audit_creation_method            'Materials Studio'
_symmetry_space_group_name_H-M    'P1'
_symmetry_Int_Tables_number       1
_symmetry_cell_setting            triclinic
loop_
_symmetry_equiv_pos_as_xyz
  x,y,z
_cell_length_a                    8.2728
_cell_length_b                    8.2728
_cell_length_c                    15.2490
_cell_angle_alpha                 88.8199
_cell_angle_beta                  88.8199
_cell_angle_gamma                 86.4734
loop_
_atom_site_label
_atom_site_type_symbol
_atom_site_fract_x
_atom_site_fract_y
_atom_site_fract_z
_atom_site_U_iso_or_equiv
_atom_site_adp_type
_atom_site_occupancy
Cd1    Cd    0.50000   0.00000   0.50000   0.01267  Uiso   1.00
Cd2    Cd    0.00000   0.50000   0.00000   0.01267  Uiso   1.00
Cd3    Cd    0.48895   0.51105   0.25000   0.01267  Uiso   1.00
Cd4    Cd    0.51105   0.48895   0.75000   0.01267  Uiso   1.00
C1     C     0.48000   0.71820   0.33900   0.01267  Uiso   1.00
C2     C     0.49480   0.29920   0.34120   0.01267  Uiso   1.00
C3     C     0.28180   0.52000   0.16100   0.01267  Uiso   1.00
C4     C     0.70080   0.50520   0.15880   0.01267  Uiso   1.00
C5     C     0.52000   0.28180   0.66100   0.01267  Uiso   1.00
C6     C     0.50520   0.70080   0.65880   0.01267  Uiso   1.00
C7     C     0.71820   0.48000   0.83900   0.01267  Uiso   1.00
C8     C     0.29920   0.49480   0.84120   0.01267  Uiso   1.00
N1     N     0.47570   0.81210   0.39200   0.01267  Uiso   1.00
N2     N     0.50030   0.19990   0.39260   0.01267  Uiso   1.00
N3     N     0.18790   0.52430   0.10800   0.01267  Uiso   1.00
N4     N     0.80010   0.49970   0.10740   0.01267  Uiso   1.00
N5     N     0.52430   0.18790   0.60800   0.01267  Uiso   1.00
N6     N     0.49970   0.80010   0.60740   0.01267  Uiso   1.00
N7     N     0.81210   0.47570   0.89200   0.01267  Uiso   1.00
N8     N     0.19990   0.50030   0.89260   0.01267  Uiso   1.00
