data_NIRDEX_clean
_audit_creation_date              2014-07-02
_audit_creation_method            'Materials Studio'
_symmetry_space_group_name_H-M    'P1'
_symmetry_Int_Tables_number       1
_symmetry_cell_setting            triclinic
loop_
_symmetry_equiv_pos_as_xyz
  x,y,z
_cell_length_a                    8.4747
_cell_length_b                    8.9873
_cell_length_c                    8.9873
_cell_angle_alpha                 77.1537
_cell_angle_beta                  61.8695
_cell_angle_gamma                 61.8695
loop_
_atom_site_label
_atom_site_type_symbol
_atom_site_fract_x
_atom_site_fract_y
_atom_site_fract_z
_atom_site_U_iso_or_equiv
_atom_site_adp_type
_atom_site_occupancy
Zr1    Zr    0.32770   0.50000   0.50000   0.01267  Uiso   1.00
Cd1    Cd    0.57664   0.00000   0.00000   0.01267  Uiso   1.00
Cd2    Cd    0.07520   0.00000   0.00000   0.01267  Uiso   1.00
C1     C     0.58220   0.22880   0.22880   0.01267  Uiso   1.00
C2     C     0.36430   0.27070   0.27070   0.01267  Uiso   1.00
C3     C     0.03980   0.77120   0.77120   0.01267  Uiso   1.00
C4     C     0.90570   0.72930   0.72930   0.01267  Uiso   1.00
C5     C     0.34600   0.77130   0.22870   0.01267  Uiso   1.00
C6     C     0.52300   0.72980   0.27020   0.01267  Uiso   1.00
C7     C     0.34600   0.22870   0.77130   0.01267  Uiso   1.00
C8     C     0.52300   0.27020   0.72980   0.01267  Uiso   1.00
O1     O     0.72120   0.12180   0.12180   0.01267  Uiso   1.00
O2     O     0.31580   0.19820   0.19820   0.01267  Uiso   1.00
O3     O     0.23440   0.38480   0.38480   0.01267  Uiso   1.00
O4     O     0.59270   0.31390   0.31390   0.01267  Uiso   1.00
O5     O     0.96480   0.87820   0.87820   0.01267  Uiso   1.00
O6     O     0.71220   0.80180   0.80180   0.01267  Uiso   1.00
O7     O     0.00400   0.61520   0.61520   0.01267  Uiso   1.00
O8     O     0.22050   0.68610   0.68610   0.01267  Uiso   1.00
O9     O     0.32100   0.87850   0.12150   0.01267  Uiso   1.00
O10    O     0.64800   0.80330   0.19670   0.01267  Uiso   1.00
O11    O     0.25400   0.68640   0.31360   0.01267  Uiso   1.00
O12    O     0.53840   0.61360   0.38640   0.01267  Uiso   1.00
O13    O     0.32100   0.12150   0.87850   0.01267  Uiso   1.00
O14    O     0.64800   0.19670   0.80330   0.01267  Uiso   1.00
O15    O     0.25400   0.31360   0.68640   0.01267  Uiso   1.00
O16    O     0.53840   0.38640   0.61360   0.01267  Uiso   1.00
