data_image0
_cell_length_a       10.043
_cell_length_b       10.043
_cell_length_c       13.828
_cell_angle_alpha    90
_cell_angle_beta     90
_cell_angle_gamma    90

_symmetry_space_group_name_H-M    "P 1"
_symmetry_int_tables_number       1

loop_
  _symmetry_equiv_pos_as_xyz
  'x, y, z'

loop_
  _atom_site_label
  _atom_site_occupancy
  _atom_site_fract_x
  _atom_site_fract_y
  _atom_site_fract_z
  _atom_site_thermal_displace_type
  _atom_site_B_iso_or_equiv
  _atom_site_type_symbol
  O1       1.0000 0.06010  0.23660  0.75700  Biso   1.000  O
  O2       1.0000 0.16360  0.98930  0.07610  Biso   1.000  O
  O3       1.0000 0.43990  0.26340  0.75700  Biso   1.000  O
  O4       1.0000 0.33640  0.51070  0.07610  Biso   1.000  O
  O5       1.0000 0.26340  0.06010  0.25700  Biso   1.000  O
  O6       1.0000 0.51070  0.16360  0.57610  Biso   1.000  O
  O7       1.0000 0.23660  0.43990  0.25700  Biso   1.000  O
  O8       1.0000 0.98930  0.33640  0.57610  Biso   1.000  O
  O9       1.0000 0.93990  0.73660  0.74300  Biso   1.000  O
  O10      1.0000 0.83640  0.48930  0.42390  Biso   1.000  O
  O11      1.0000 0.56010  0.76340  0.74300  Biso   1.000  O
  O12      1.0000 0.66360  0.01070  0.42390  Biso   1.000  O
  O13      1.0000 0.73660  0.56010  0.24300  Biso   1.000  O
  O14      1.0000 0.48930  0.66360  0.92390  Biso   1.000  O
  O15      1.0000 0.76340  0.93990  0.24300  Biso   1.000  O
  O16      1.0000 0.01070  0.83640  0.92390  Biso   1.000  O
  O17      1.0000 0.93990  0.76340  0.24300  Biso   1.000  O
  O18      1.0000 0.83640  0.01070  0.92390  Biso   1.000  O
  O19      1.0000 0.56010  0.73660  0.24300  Biso   1.000  O
  O20      1.0000 0.66360  0.48930  0.92390  Biso   1.000  O
  O21      1.0000 0.73660  0.93990  0.74300  Biso   1.000  O
  O22      1.0000 0.48930  0.83640  0.42390  Biso   1.000  O
  O23      1.0000 0.76340  0.56010  0.74300  Biso   1.000  O
  O24      1.0000 0.01070  0.66360  0.42390  Biso   1.000  O
  O25      1.0000 0.06010  0.26340  0.25700  Biso   1.000  O
  O26      1.0000 0.16360  0.51070  0.57610  Biso   1.000  O
  O27      1.0000 0.43990  0.23660  0.25700  Biso   1.000  O
  O28      1.0000 0.33640  0.98930  0.57610  Biso   1.000  O
  O29      1.0000 0.26340  0.43990  0.75700  Biso   1.000  O
  O30      1.0000 0.51070  0.33640  0.07610  Biso   1.000  O
  O31      1.0000 0.23660  0.06010  0.75700  Biso   1.000  O
  O32      1.0000 0.98930  0.16360  0.07610  Biso   1.000  O
  Ga1      1.0000 0.00000  0.00000  0.00000  Biso   1.000  Ga
  Ga2      1.0000 0.50000  0.50000  0.00000  Biso   1.000  Ga
  Ga3      1.0000 0.50000  0.00000  0.50000  Biso   1.000  Ga
  Ga4      1.0000 0.00000  0.50000  0.50000  Biso   1.000  Ga
  Ga5      1.0000 0.87640  0.87640  0.82208  Biso   1.000  Ga
  P1       1.0000 0.09760  0.09760  0.79170  Biso   1.000  P
  O33      1.0000 0.09990  0.09990  0.90430  Biso   1.000  O
  O34      1.0000 0.99670  0.99670  0.75550  Biso   1.000  O
  Ga6      1.0000 0.62360  0.62360  0.82208  Biso   1.000  Ga
  P2       1.0000 0.40240  0.40240  0.79170  Biso   1.000  P
  O35      1.0000 0.40010  0.40010  0.90430  Biso   1.000  O
  O36      1.0000 0.50330  0.50330  0.75550  Biso   1.000  O
  Ga7      1.0000 0.62360  0.87640  0.32208  Biso   1.000  Ga
  P3       1.0000 0.40240  0.09760  0.29170  Biso   1.000  P
  O37      1.0000 0.40010  0.09990  0.40430  Biso   1.000  O
  O38      1.0000 0.50330  0.99670  0.25550  Biso   1.000  O
  Ga8      1.0000 0.87640  0.62360  0.32208  Biso   1.000  Ga
  P4       1.0000 0.09760  0.40240  0.29170  Biso   1.000  P
  O39      1.0000 0.09990  0.40010  0.40430  Biso   1.000  O
  O40      1.0000 0.99670  0.50330  0.25550  Biso   1.000  O
  Ga9      1.0000 0.12360  0.37640  0.67792  Biso   1.000  Ga
  P5       1.0000 0.90240  0.59760  0.70830  Biso   1.000  P
  O41      1.0000 0.90010  0.59990  0.59570  Biso   1.000  O
  O42      1.0000 0.00330  0.49670  0.74450  Biso   1.000  O
  Ga10     1.0000 0.37640  0.12360  0.67792  Biso   1.000  Ga
  P6       1.0000 0.59760  0.90240  0.70830  Biso   1.000  P
  O43      1.0000 0.59990  0.90010  0.59570  Biso   1.000  O
  O44      1.0000 0.49670  0.00330  0.74450  Biso   1.000  O
  Ga11     1.0000 0.37640  0.37640  0.17792  Biso   1.000  Ga
  P7       1.0000 0.59760  0.59760  0.20830  Biso   1.000  P
  O45      1.0000 0.59990  0.59990  0.09570  Biso   1.000  O
  O46      1.0000 0.49670  0.49670  0.24450  Biso   1.000  O
  Ga12     1.0000 0.12360  0.12360  0.17792  Biso   1.000  Ga
  P8       1.0000 0.90240  0.90240  0.20830  Biso   1.000  P
  O47      1.0000 0.90010  0.90010  0.09570  Biso   1.000  O
  O48      1.0000 0.00330  0.00330  0.24450  Biso   1.000  O
  F1       1.0000 0.75000  0.75000  0.88720  Biso   1.000  F
  F2       1.0000 0.75000  0.75000  0.38720  Biso   1.000  F
  F3       1.0000 0.25000  0.25000  0.61280  Biso   1.000  F
  F4       1.0000 0.25000  0.25000  0.11280  Biso   1.000  F
