data_NIRGAY_clean
_audit_creation_date              2015-10-16
_audit_creation_method            'Materials Studio'
_symmetry_space_group_name_H-M    'P1'
_symmetry_Int_Tables_number       1
_symmetry_cell_setting            triclinic
loop_
_symmetry_equiv_pos_as_xyz
  x,y,z
_cell_length_a                    16.1796
_cell_length_b                    19.1505
_cell_length_c                    19.5848
_cell_angle_alpha                 112.4510
_cell_angle_beta                  93.5480
_cell_angle_gamma                 104.2150
loop_
_atom_site_label
_atom_site_type_symbol
_atom_site_fract_x
_atom_site_fract_y
_atom_site_fract_z
_atom_site_U_iso_or_equiv
_atom_site_adp_type
_atom_site_occupancy
Mn1    Mn    0.42687   0.17709   0.82601   0.01267  Uiso   1.00
Mn2    Mn    0.78585   0.11855   0.90655   0.01267  Uiso   1.00
Mn3    Mn    0.61404   0.11289   0.78311   0.01267  Uiso   1.00
H1     H     0.68830   0.51280   0.59780   0.01267  Uiso   1.00
H2     H     0.69190   0.64100   0.36890   0.01267  Uiso   1.00
H3     H     0.98110   0.28720   0.43540   0.01267  Uiso   1.00
H4     H     0.51090   0.30800   0.30760   0.01267  Uiso   1.00
H5     H     0.77050   0.66530   0.45950   0.01267  Uiso   1.00
H6     H     0.16630   0.51440   0.40360   0.01267  Uiso   1.00
H7     H     0.05460   0.16980   0.12010   0.01267  Uiso   1.00
H8     H     0.73090   0.59880   0.60510   0.01267  Uiso   1.00
H9     H     0.91840   0.33520   0.27590   0.01267  Uiso   1.00
H10    H     0.94340   0.30580   0.51010   0.01267  Uiso   1.00
H11    H     0.48480   0.31120   0.38420   0.01267  Uiso   1.00
H12    H     0.12100   0.24980   0.23990   0.01267  Uiso   1.00
H13    H     0.07390   0.33580   0.62790   0.01267  Uiso   1.00
H14    H     0.04810   0.33020   0.74810   0.01267  Uiso   1.00
H15    H     0.27960   0.62640   0.64930   0.01267  Uiso   1.00
H16    H     0.86580   0.27050   0.14890   0.01267  Uiso   1.00
H17    H     0.25640   0.94300   0.71220   0.01267  Uiso   1.00
H18    H     0.61950   0.92090   0.64800   0.01267  Uiso   1.00
H19    H     0.48540   0.38500   0.49890   0.01267  Uiso   1.00
H20    H     0.51720   0.28290   0.99560   0.01267  Uiso   1.00
H21    H     0.27710   0.62110   0.56710   0.01267  Uiso   1.00
H22    H     0.46320   0.86400   0.69130   0.01267  Uiso   1.00
H23    H     0.22350   0.53290   0.72390   0.01267  Uiso   1.00
H24    H     0.46100   0.28640   0.67920   0.01267  Uiso   1.00
H25    H     0.82040   0.78020   0.62030   0.01267  Uiso   1.00
H26    H     0.63510   0.57400   0.61740   0.01267  Uiso   1.00
H27    H     0.72560   0.57240   0.31690   0.01267  Uiso   1.00
H28    H     0.96520   0.36480   0.39300   0.01267  Uiso   1.00
H29    H     0.64980   0.19390   0.60580   0.01267  Uiso   1.00
H30    H     0.20450   0.60790   0.72030   0.01267  Uiso   1.00
H31    H     0.68140   0.25700   0.18040   0.01267  Uiso   1.00
H32    H     0.63080   0.57340   0.29660   0.01267  Uiso   1.00
H33    H     0.20310   0.59500   0.47380   0.01267  Uiso   1.00
H34    H     0.47820   0.35710   0.60490   0.01267  Uiso   1.00
H35    H     0.49770   0.39730   0.24820   0.01267  Uiso   1.00
H36    H     0.02440   0.27400   0.50150   0.01267  Uiso   1.00
H37    H     0.16630   0.81130   0.66150   0.01267  Uiso   1.00
H38    H     0.68330   0.18350   0.05750   0.01267  Uiso   1.00
H39    H     0.59260   0.79920   0.54770   0.01267  Uiso   1.00
H40    H     0.11050   0.41780   0.69730   0.01267  Uiso   1.00
H41    H     0.10510   0.56600   0.43730   0.01267  Uiso   1.00
H42    H     0.66820   0.26150   0.52450   0.01267  Uiso   1.00
H43    H     0.84730   0.90190   0.72070   0.01267  Uiso   1.00
H44    H     0.02090   0.43580   0.37820   0.01267  Uiso   1.00
H45    H     0.82670   0.35640   0.67290   0.01267  Uiso   1.00
H46    H     0.77500   0.66310   0.53940   0.01267  Uiso   1.00
H47    H     0.51420   0.35500   0.12080   0.01267  Uiso   1.00
H48    H     0.43440   0.34160   0.33590   0.01267  Uiso   1.00
H49    H     0.13300   0.54670   0.73590   0.01267  Uiso   1.00
H50    H     0.97260   0.26720   0.81510   0.01267  Uiso   1.00
H51    H     0.37470   0.73410   0.64180   0.01267  Uiso   1.00
H52    H     0.57860   0.45770   0.24030   0.01267  Uiso   1.00
H53    H     0.75320   0.29310   0.73990   0.01267  Uiso   1.00
H54    H     0.55170   0.45180   0.56930   0.01267  Uiso   1.00
C1     C     0.91330   0.17030   0.03670   0.01267  Uiso   1.00
C2     C     0.70385   0.77761   0.57405   0.01267  Uiso   1.00
C3     C     0.22620   0.82178   0.66920   0.01267  Uiso   1.00
C4     C     0.13190   0.50704   0.50060   0.01267  Uiso   1.00
C5     C     0.65975   0.89270   0.64245   0.01267  Uiso   1.00
C6     C     0.56000   0.42042   0.26262   0.01267  Uiso   1.00
C7     C     0.02980   0.20710   0.15000   0.01267  Uiso   1.00
C8     C     0.58690   0.46093   0.34876   0.01267  Uiso   1.00
C9     C     0.60430   0.18018   0.93276   0.01267  Uiso   1.00
C10    C     0.64365   0.81976   0.58234   0.01267  Uiso   1.00
C11    C     0.55310   0.41981   0.39134   0.01267  Uiso   1.00
C12    C     0.99540   0.30677   0.48894   0.01267  Uiso   1.00
C13    C     0.64510   0.52910   0.50349   0.01267  Uiso   1.00
C14    C     0.98890   0.32330   0.74621   0.01267  Uiso   1.00
C15    C     0.61520   0.22580   0.60480   0.01267  Uiso   1.00
C16    C     0.55050   0.23320   0.65034   0.01267  Uiso   1.00
C17    C     0.07030   0.38950   0.65014   0.01267  Uiso   1.00
C18    C     0.67540   0.57070   0.46058   0.01267  Uiso   1.00
C19    C     0.85670   0.33850   0.70174   0.01267  Uiso   1.00
C20    C     0.59980   0.31600   0.16344   0.01267  Uiso   1.00
C21    C     0.78015   0.80840   0.62587   0.01267  Uiso   1.00
C22    C     0.73605   0.92348   0.69427   0.01267  Uiso   1.00
C23    C     0.09310   0.43061   0.59669   0.01267  Uiso   1.00
C24    C     0.40350   0.85400   0.68690   0.01267  Uiso   1.00
C25    C     0.91640   0.26420   0.16756   0.01267  Uiso   1.00
C26    C     0.58290   0.45514   0.46929   0.01267  Uiso   1.00
C27    C     0.54940   0.32180   0.10814   0.01267  Uiso   1.00
C28    C     0.26240   0.76090   0.65176   0.01267  Uiso   1.00
C29    C     0.24230   0.62070   0.60561   0.01267  Uiso   1.00
C30    C     0.67610   0.58560   0.33699   0.01267  Uiso   1.00
C31    C     0.85560   0.27317   0.78538   0.01267  Uiso   1.00
C32    C     0.64380   0.53698   0.38320   0.01267  Uiso   1.00
C33    C     0.81240   0.30050   0.74199   0.01267  Uiso   1.00
C34    C     0.94910   0.30550   0.24398   0.01267  Uiso   1.00
C35    C     0.62790   0.26800   0.55650   0.01267  Uiso   1.00
C36    C     0.17180   0.54422   0.57755   0.01267  Uiso   1.00
C37    C     0.64890   0.26260   0.14299   0.01267  Uiso   1.00
C38    C     0.15360   0.54955   0.44903   0.01267  Uiso   1.00
C39    C     0.14690   0.50780   0.62592   0.01267  Uiso   1.00
C40    C     0.80490   0.22794   0.82604   0.01267  Uiso   1.00
C41    C     0.51310   0.32500   0.60462   0.01267  Uiso   1.00
C42    C     0.57830   0.31790   0.55970   0.01267  Uiso   1.00
C43    C     0.55070   0.27800   0.03293   0.01267  Uiso   1.00
C44    C     0.02740   0.30190   0.27167   0.01267  Uiso   1.00
C45    C     0.05480   0.39132   0.52046   0.01267  Uiso   1.00
C46    C     0.54610   0.41370   0.51815   0.01267  Uiso   1.00
C47    C     0.73630   0.65469   0.49530   0.01267  Uiso   1.00
C48    C     0.35040   0.77565   0.65739   0.01267  Uiso   1.00
C49    C     0.06730   0.25220   0.22260   0.01267  Uiso   1.00
C50    C     0.54020   0.19100   0.70160   0.01267  Uiso   1.00
C51    C     0.36920   0.91610   0.70927   0.01267  Uiso   1.00
C52    C     0.60200   0.22690   0.01320   0.01267  Uiso   1.00
C53    C     0.02380   0.39450   0.39472   0.01267  Uiso   1.00
C54    C     0.18000   0.55290   0.70906   0.01267  Uiso   1.00
C55    C     0.67810   0.55630   0.58927   0.01267  Uiso   1.00
C56    C     0.49000   0.33760   0.35110   0.01267  Uiso   1.00
C57    C     0.95410   0.21550   0.11905   0.01267  Uiso   1.00
C58    C     0.74890   0.00070   0.76083   0.01267  Uiso   1.00
C59    C     0.65030   0.21870   0.06978   0.01267  Uiso   1.00
C60    C     0.28060   0.90140   0.69940   0.01267  Uiso   1.00
C61    C     0.42760   0.99941   0.74244   0.01267  Uiso   1.00
C62    C     0.07330   0.43056   0.47339   0.01267  Uiso   1.00
C63    C     0.94550   0.35040   0.70377   0.01267  Uiso   1.00
C64    C     0.79625   0.88134   0.68598   0.01267  Uiso   1.00
C65    C     0.50310   0.28150   0.64889   0.01267  Uiso   1.00
C66    C     0.94280   0.28520   0.78640   0.01267  Uiso   1.00
O1     O     0.20481   0.68656   0.62541   0.01267  Uiso   1.00
O2     O     0.94540   0.12368   0.99336   0.01267  Uiso   1.00
O3     O     0.60484   0.35876   0.23960   0.01267  Uiso   1.00
O4     O     0.06802   0.34205   0.34539   0.01267  Uiso   1.00
O5     O     0.59665   0.35913   0.51567   0.01267  Uiso   1.00
O6     O     0.69871   0.04052   0.76280   0.01267  Uiso   1.00
O7     O     0.67942   0.70468   0.51529   0.01267  Uiso   1.00
O8     O     0.50874   0.00986   0.75041   0.01267  Uiso   1.00
O9     O     0.65584   0.13871   0.91574   0.01267  Uiso   1.00
O10    O     0.57993   0.14288   0.69396   0.01267  Uiso   1.00
O11    O     0.81264   0.02375   0.81222   0.01267  Uiso   1.00
O12    O     0.72357   0.21810   0.81817   0.01267  Uiso   1.00
O13    O     0.39299   0.05383   0.76061   0.01267  Uiso   1.00
O14    O     0.98272   0.38918   0.66282   0.01267  Uiso   1.00
O15    O     0.84771   0.18335   0.01727   0.01267  Uiso   1.00
O16    O     0.48937   0.20999   0.74903   0.01267  Uiso   1.00
O17    O     0.84562   0.20254   0.86305   0.01267  Uiso   1.00
O18    O     0.55536   0.18275   0.88222   0.01267  Uiso   1.00
Mn4    Mn    0.57313   0.82291   0.17399   0.01267  Uiso   1.00
Mn5    Mn    0.38596   0.88711   0.21689   0.01267  Uiso   1.00
Mn6    Mn    0.21415   0.88145   0.09345   0.01267  Uiso   1.00
H55    H     0.94540   0.83020   0.87990   0.01267  Uiso   1.00
H56    H     0.50230   0.60270   0.75180   0.01267  Uiso   1.00
H57    H     0.74360   0.05700   0.28780   0.01267  Uiso   1.00
H58    H     0.36490   0.42600   0.38260   0.01267  Uiso   1.00
H59    H     0.89490   0.43400   0.56270   0.01267  Uiso   1.00
H60    H     0.97560   0.72600   0.49850   0.01267  Uiso   1.00
H61    H     0.31860   0.74300   0.81960   0.01267  Uiso   1.00
H62    H     0.27440   0.42760   0.68310   0.01267  Uiso   1.00
H63    H     0.36920   0.42660   0.70340   0.01267  Uiso   1.00
H64    H     0.48280   0.71710   0.00440   0.01267  Uiso   1.00
H65    H     0.53680   0.13600   0.30870   0.01267  Uiso   1.00
H66    H     0.02740   0.73280   0.18490   0.01267  Uiso   1.00
H67    H     0.15270   0.09810   0.27930   0.01267  Uiso   1.00
H68    H     0.42140   0.54230   0.75970   0.01267  Uiso   1.00
H69    H     0.01890   0.71280   0.56460   0.01267  Uiso   1.00
H70    H     0.48580   0.64500   0.87920   0.01267  Uiso   1.00
H71    H     0.05660   0.69420   0.48990   0.01267  Uiso   1.00
H72    H     0.92610   0.66420   0.37210   0.01267  Uiso   1.00
H73    H     0.87900   0.75020   0.76010   0.01267  Uiso   1.00
H74    H     0.97910   0.56420   0.62180   0.01267  Uiso   1.00
H75    H     0.26910   0.40120   0.39490   0.01267  Uiso   1.00
H76    H     0.77650   0.46710   0.27610   0.01267  Uiso   1.00
H77    H     0.83370   0.48560   0.59640   0.01267  Uiso   1.00
H78    H     0.44830   0.54820   0.43070   0.01267  Uiso   1.00
H79    H     0.53900   0.71360   0.32080   0.01267  Uiso   1.00
H80    H     0.13420   0.72950   0.85110   0.01267  Uiso   1.00
H81    H     0.52180   0.64290   0.39510   0.01267  Uiso   1.00
H82    H     0.79690   0.40500   0.52620   0.01267  Uiso   1.00
H83    H     0.56560   0.65840   0.66410   0.01267  Uiso   1.00
H84    H     0.72040   0.37360   0.35070   0.01267  Uiso   1.00
H85    H     0.35020   0.80610   0.39420   0.01267  Uiso   1.00
H86    H     0.22500   0.33690   0.46060   0.01267  Uiso   1.00
H87    H     0.40740   0.20080   0.45230   0.01267  Uiso   1.00
H88    H     0.17960   0.21980   0.37970   0.01267  Uiso   1.00
H89    H     0.38050   0.07910   0.35200   0.01267  Uiso   1.00
H90    H     0.22950   0.33470   0.54050   0.01267  Uiso   1.00
H91    H     0.51520   0.68880   0.61580   0.01267  Uiso   1.00
H92    H     0.30810   0.35900   0.63110   0.01267  Uiso   1.00
H93    H     0.62530   0.26590   0.35820   0.01267  Uiso   1.00
H94    H     0.86700   0.45330   0.26410   0.01267  Uiso   1.00
H95    H     0.48910   0.69200   0.69240   0.01267  Uiso   1.00
H96    H     0.31170   0.48720   0.40220   0.01267  Uiso   1.00
H97    H     0.72290   0.37890   0.43290   0.01267  Uiso   1.00
H98    H     0.51460   0.61500   0.50110   0.01267  Uiso   1.00
H99    H     0.17330   0.64360   0.32710   0.01267  Uiso   1.00
H100   H     0.88950   0.58220   0.30270   0.01267  Uiso   1.00
H101   H     0.03480   0.63520   0.60700   0.01267  Uiso   1.00
H102   H     0.08160   0.66480   0.72410   0.01267  Uiso   1.00
H103   H     0.31670   0.81650   0.94250   0.01267  Uiso   1.00
H104   H     0.33180   0.73850   0.47550   0.01267  Uiso   1.00
H105   H     0.24680   0.70690   0.26010   0.01267  Uiso   1.00
H106   H     0.95190   0.66980   0.25190   0.01267  Uiso   1.00
H107   H     0.83370   0.18870   0.33850   0.01267  Uiso   1.00
H108   H     0.79550   0.39210   0.27970   0.01267  Uiso   1.00
C67    C     0.51000   0.66240   0.64890   0.01267  Uiso   1.00
C68    C     0.39570   0.81982   0.06724   0.01267  Uiso   1.00
C69    C     0.05720   0.71480   0.21360   0.01267  Uiso   1.00
C70    C     0.73760   0.23910   0.34824   0.01267  Uiso   1.00
C71    C     0.45390   0.58630   0.48185   0.01267  Uiso   1.00
C72    C     0.59650   0.14600   0.31310   0.01267  Uiso   1.00
C73    C     0.34970   0.78130   0.93022   0.01267  Uiso   1.00
C74    C     0.00460   0.69323   0.51106   0.01267  Uiso   1.00
C75    C     0.93270   0.74780   0.77740   0.01267  Uiso   1.00
C76    C     0.32190   0.44370   0.41073   0.01267  Uiso   1.00
C77    C     0.85310   0.49220   0.37408   0.01267  Uiso   1.00
C78    C     0.04590   0.78450   0.88095   0.01267  Uiso   1.00
C79    C     0.48690   0.67500   0.39538   0.01267  Uiso   1.00
C80    C     0.39800   0.77310   0.98680   0.01267  Uiso   1.00
C81    C     0.40020   0.68400   0.83656   0.01267  Uiso   1.00
C82    C     0.49690   0.71850   0.35111   0.01267  Uiso   1.00
C83    C     0.08360   0.73580   0.83244   0.01267  Uiso   1.00
C84    C     0.82000   0.44710   0.29094   0.01267  Uiso   1.00
C85    C     0.71940   0.09860   0.30060   0.01267  Uiso   1.00
C86    C     0.44950   0.76680   0.34966   0.01267  Uiso   1.00
C87    C     0.75770   0.37930   0.39439   0.01267  Uiso   1.00
C88    C     0.84640   0.45045   0.55097   0.01267  Uiso   1.00
C89    C     0.25110   0.99930   0.23917   0.01267  Uiso   1.00
C90    C     0.32460   0.42930   0.53942   0.01267  Uiso   1.00
C91    C     0.38480   0.77420   0.39520   0.01267  Uiso   1.00
C92    C     0.21985   0.19160   0.37413   0.01267  Uiso   1.00
C93    C     0.64960   0.22435   0.34261   0.01267  Uiso   1.00
C94    C     0.05450   0.64960   0.29623   0.01267  Uiso   1.00
C95    C     0.05090   0.69450   0.75602   0.01267  Uiso   1.00
C96    C     0.26370   0.34531   0.50470   0.01267  Uiso   1.00
C97    C     0.19510   0.77206   0.17396   0.01267  Uiso   1.00
C98    C     0.26395   0.07652   0.30573   0.01267  Uiso   1.00
C99    C     0.32390   0.41440   0.66301   0.01267  Uiso   1.00
C100   C     0.41310   0.53907   0.65124   0.01267  Uiso   1.00
C101   C     0.35620   0.46302   0.61680   0.01267  Uiso   1.00
C102   C     0.97260   0.69810   0.72833   0.01267  Uiso   1.00
C103   C     0.18760   0.69950   0.25801   0.01267  Uiso   1.00
C104   C     0.97020   0.79290   0.85000   0.01267  Uiso   1.00
C105   C     0.08670   0.82970   0.96330   0.01267  Uiso   1.00
C106   C     0.35635   0.18024   0.41766   0.01267  Uiso   1.00
C107   C     0.57240   0.00059   0.25756   0.01267  Uiso   1.00
C108   C     0.35110   0.73740   0.85701   0.01267  Uiso   1.00
C109   C     0.29615   0.22239   0.42595   0.01267  Uiso   1.00
C110   C     0.44000   0.57958   0.73738   0.01267  Uiso   1.00
C111   C     0.82820   0.45578   0.42245   0.01267  Uiso   1.00
C112   C     0.44930   0.72200   0.96707   0.01267  Uiso   1.00
C113   C     0.97620   0.60550   0.60528   0.01267  Uiso   1.00
C114   C     0.86810   0.49296   0.49940   0.01267  Uiso   1.00
C115   C     0.20375   0.11866   0.31402   0.01267  Uiso   1.00
C116   C     0.92970   0.61050   0.34986   0.01267  Uiso   1.00
C117   C     0.94520   0.60868   0.47954   0.01267  Uiso   1.00
C118   C     0.01110   0.67670   0.25379   0.01267  Uiso   1.00
C119   C     0.35490   0.47090   0.49651   0.01267  Uiso   1.00
C120   C     0.45980   0.80900   0.29840   0.01267  Uiso   1.00
C121   C     0.90690   0.56939   0.40331   0.01267  Uiso   1.00
C122   C     0.41710   0.54486   0.53071   0.01267  Uiso   1.00
C123   C     0.44690   0.58019   0.60866   0.01267  Uiso   1.00
C124   C     0.37210   0.73200   0.44350   0.01267  Uiso   1.00
C125   C     0.34025   0.10730   0.35755   0.01267  Uiso   1.00
C126   C     0.77380   0.17822   0.33080   0.01267  Uiso   1.00
C127   C     0.45060   0.67820   0.89186   0.01267  Uiso   1.00
C128   C     0.14440   0.72683   0.21462   0.01267  Uiso   1.00
C129   C     0.63080   0.08390   0.29073   0.01267  Uiso   1.00
C130   C     0.92670   0.56944   0.52661   0.01267  Uiso   1.00
C131   C     0.14330   0.66150   0.29826   0.01267  Uiso   1.00
C132   C     0.42170   0.68210   0.44030   0.01267  Uiso   1.00
O19    O     0.01728   0.61082   0.33718   0.01267  Uiso   1.00
O20    O     0.49126   0.99014   0.24959   0.01267  Uiso   1.00
O21    O     0.40335   0.64087   0.48433   0.01267  Uiso   1.00
O22    O     0.42007   0.85712   0.30604   0.01267  Uiso   1.00
O23    O     0.05460   0.87632   0.00664   0.01267  Uiso   1.00
O24    O     0.44464   0.81725   0.11778   0.01267  Uiso   1.00
O25    O     0.93198   0.65795   0.65461   0.01267  Uiso   1.00
O26    O     0.60701   0.94617   0.23939   0.01267  Uiso   1.00
O27    O     0.79519   0.31344   0.37459   0.01267  Uiso   1.00
O28    O     0.15438   0.79746   0.13695   0.01267  Uiso   1.00
O29    O     0.34416   0.86129   0.08426   0.01267  Uiso   1.00
O30    O     0.32058   0.29532   0.48471   0.01267  Uiso   1.00
O31    O     0.18736   0.97625   0.18778   0.01267  Uiso   1.00
O32    O     0.51063   0.79001   0.25097   0.01267  Uiso   1.00
O33    O     0.39516   0.64124   0.76040   0.01267  Uiso   1.00
O34    O     0.15229   0.81665   0.98273   0.01267  Uiso   1.00
O35    O     0.27643   0.78190   0.18183   0.01267  Uiso   1.00
O36    O     0.30129   0.95948   0.23720   0.01267  Uiso   1.00
