data_NIRMUW01_clean
_audit_creation_date              2015-10-16
_audit_creation_method            'Materials Studio'
_symmetry_space_group_name_H-M    'P1'
_symmetry_Int_Tables_number       1
_symmetry_cell_setting            triclinic
loop_
_symmetry_equiv_pos_as_xyz
  x,y,z
_cell_length_a                    9.1625
_cell_length_b                    11.0890
_cell_length_c                    12.9065
_cell_angle_alpha                 115.3710
_cell_angle_beta                  96.5930
_cell_angle_gamma                 95.1770
loop_
_atom_site_label
_atom_site_type_symbol
_atom_site_fract_x
_atom_site_fract_y
_atom_site_fract_z
_atom_site_U_iso_or_equiv
_atom_site_adp_type
_atom_site_occupancy
Ba1    Ba    0.37211   0.37248   0.81297   0.01267  Uiso   1.00
Ba2    Ba    0.12786   0.62750   0.68713   0.01267  Uiso   1.00
Ba3    Ba    0.87214   0.37250   0.31287   0.01267  Uiso   1.00
Ba4    Ba    0.62789   0.62752   0.18703   0.01267  Uiso   1.00
H1     H     0.58780   0.80120   0.52810   0.01267  Uiso   1.00
H2     H     0.80060   0.18960   0.69960   0.01267  Uiso   1.00
H3     H     0.91480   0.19880   0.97410   0.01267  Uiso   1.00
H4     H     0.46010   0.12190   0.91720   0.01267  Uiso   1.00
H5     H     0.41220   0.19880   0.47190   0.01267  Uiso   1.00
H6     H     0.83270   0.02100   0.13920   0.01267  Uiso   1.00
H7     H     0.08520   0.80120   0.02590   0.01267  Uiso   1.00
H8     H     0.16730   0.97900   0.86080   0.01267  Uiso   1.00
H9     H     0.69880   0.81170   0.80210   0.01267  Uiso   1.00
H10    H     0.96290   0.12120   0.41700   0.01267  Uiso   1.00
H11    H     0.33420   0.01680   0.63960   0.01267  Uiso   1.00
H12    H     0.53990   0.87810   0.08280   0.01267  Uiso   1.00
H13    H     0.30120   0.18830   0.19790   0.01267  Uiso   1.00
H14    H     0.66580   0.98320   0.36040   0.01267  Uiso   1.00
H15    H     0.19940   0.81040   0.30040   0.01267  Uiso   1.00
H16    H     0.03710   0.87880   0.58300   0.01267  Uiso   1.00
C1     C     0.53540   0.05970   0.64340   0.01267  Uiso   1.00
C2     C     0.44620   0.91080   0.08940   0.01267  Uiso   1.00
C3     C     0.08050   0.15090   0.69140   0.01267  Uiso   1.00
C4     C     0.82370   0.13600   0.94210   0.01267  Uiso   1.00
C5     C     0.80330   0.09430   0.66130   0.01267  Uiso   1.00
C6     C     0.96730   0.94230   0.85740   0.01267  Uiso   1.00
C7     C     0.94360   0.91170   0.59010   0.01267  Uiso   1.00
C8     C     0.44180   0.04820   0.14410   0.01267  Uiso   1.00
C9     C     0.91950   0.84910   0.30860   0.01267  Uiso   1.00
C10    C     0.32220   0.13460   0.44090   0.01267  Uiso   1.00
C11    C     0.18860   0.18000   0.45540   0.01267  Uiso   1.00
C12    C     0.06170   0.95070   0.35530   0.01267  Uiso   1.00
C13    C     0.69520   0.90660   0.84270   0.01267  Uiso   1.00
C14    C     0.46460   0.94030   0.35660   0.01267  Uiso   1.00
C15    C     0.41770   0.84860   0.80880   0.01267  Uiso   1.00
C16    C     0.32700   0.99690   0.38130   0.01267  Uiso   1.00
C17    C     0.30480   0.09340   0.15730   0.01267  Uiso   1.00
C18    C     0.03270   0.05770   0.14260   0.01267  Uiso   1.00
C19    C     0.17250   0.00210   0.11850   0.01267  Uiso   1.00
C20    C     0.31570   0.66920   0.97750   0.01267  Uiso   1.00
C21    C     0.31270   0.81920   0.04350   0.01267  Uiso   1.00
C22    C     0.68730   0.18080   0.95650   0.01267  Uiso   1.00
C23    C     0.55820   0.95180   0.85590   0.01267  Uiso   1.00
C24    C     0.55380   0.08920   0.91060   0.01267  Uiso   1.00
C25    C     0.81140   0.82000   0.54460   0.01267  Uiso   1.00
C26    C     0.82750   0.99790   0.88150   0.01267  Uiso   1.00
C27    C     0.17630   0.86400   0.05790   0.01267  Uiso   1.00
C28    C     0.58230   0.15140   0.19120   0.01267  Uiso   1.00
C29    C     0.19670   0.90570   0.33870   0.01267  Uiso   1.00
C30    C     0.67780   0.86540   0.55910   0.01267  Uiso   1.00
C31    C     0.68430   0.33080   0.02250   0.01267  Uiso   1.00
C32    C     0.18180   0.32920   0.52190   0.01267  Uiso   1.00
C33    C     0.67300   0.00310   0.61870   0.01267  Uiso   1.00
C34    C     0.93830   0.04930   0.64470   0.01267  Uiso   1.00
C35    C     0.81820   0.67080   0.47810   0.01267  Uiso   1.00
C36    C     0.05640   0.08830   0.40990   0.01267  Uiso   1.00
O1     O     0.58740   0.03100   0.38590   0.01267  Uiso   1.00
O2     O     0.91300   0.97000   0.11440   0.01267  Uiso   1.00
O3     O     0.43130   0.72710   0.77250   0.01267  Uiso   1.00
O4     O     0.56870   0.27290   0.22750   0.01267  Uiso   1.00
O5     O     0.46760   0.81920   0.31200   0.01267  Uiso   1.00
O6     O     0.03040   0.17980   0.18700   0.01267  Uiso   1.00
O7     O     0.92130   0.62340   0.51320   0.01267  Uiso   1.00
O8     O     0.70540   0.11010   0.19330   0.01267  Uiso   1.00
O9     O     0.42030   0.62330   0.01290   0.01267  Uiso   1.00
O10    O     0.41260   0.96900   0.61410   0.01267  Uiso   1.00
O11    O     0.20380   0.11000   0.69190   0.01267  Uiso   1.00
O12    O     0.79620   0.89000   0.30810   0.01267  Uiso   1.00
O13    O     0.96960   0.82020   0.81300   0.01267  Uiso   1.00
O14    O     0.28230   0.39920   0.60930   0.01267  Uiso   1.00
O15    O     0.29460   0.88990   0.80670   0.01267  Uiso   1.00
O16    O     0.08700   0.03000   0.88560   0.01267  Uiso   1.00
O17    O     0.93140   0.72680   0.27140   0.01267  Uiso   1.00
O18    O     0.57970   0.37670   0.98710   0.01267  Uiso   1.00
O19    O     0.07870   0.37660   0.48680   0.01267  Uiso   1.00
O20    O     0.06860   0.27320   0.72860   0.01267  Uiso   1.00
O21    O     0.21720   0.60090   0.89060   0.01267  Uiso   1.00
O22    O     0.53240   0.18080   0.68800   0.01267  Uiso   1.00
O23    O     0.78280   0.39910   0.10940   0.01267  Uiso   1.00
O24    O     0.71770   0.60080   0.39070   0.01267  Uiso   1.00
