data_NIRMUW_clean
_audit_creation_date              2014-07-02
_audit_creation_method            'Materials Studio'
_symmetry_space_group_name_H-M    'P1'
_symmetry_Int_Tables_number       1
_symmetry_cell_setting            triclinic
loop_
_symmetry_equiv_pos_as_xyz
  x,y,z
_cell_length_a                    7.4810
_cell_length_b                    8.3360
_cell_length_c                    10.4200
_cell_angle_alpha                 93.5600
_cell_angle_beta                  105.3900
_cell_angle_gamma                 109.3500
loop_
_atom_site_label
_atom_site_type_symbol
_atom_site_fract_x
_atom_site_fract_y
_atom_site_fract_z
_atom_site_U_iso_or_equiv
_atom_site_adp_type
_atom_site_occupancy
Ba1    Ba    0.31265   0.55941   0.62745   0.01267  Uiso   1.00
Ba2    Ba    0.68735   0.44059   0.37255   0.01267  Uiso   1.00
H1     H     0.81410   0.05960   0.19650   0.01267  Uiso   1.00
H2     H     0.81210   0.10350   0.81360   0.01267  Uiso   1.00
H3     H     0.23850   0.45230   0.11990   0.01267  Uiso   1.00
H4     H     0.46890   0.70660   0.99190   0.01267  Uiso   1.00
H5     H     0.18590   0.94040   0.80350   0.01267  Uiso   1.00
H6     H     0.18790   0.89650   0.18640   0.01267  Uiso   1.00
H7     H     0.76150   0.54770   0.88010   0.01267  Uiso   1.00
H8     H     0.53110   0.29340   0.00810   0.01267  Uiso   1.00
C1     C     0.03760   0.26890   0.18070   0.01267  Uiso   1.00
C2     C     0.87050   0.11740   0.13520   0.01267  Uiso   1.00
C3     C     0.78850   0.05320   0.99740   0.01267  Uiso   1.00
C4     C     0.86990   0.14420   0.90570   0.01267  Uiso   1.00
C5     C     0.03670   0.29540   0.95100   0.01267  Uiso   1.00
C6     C     0.12310   0.35480   0.08880   0.01267  Uiso   1.00
C7     C     0.12410   0.33910   0.33020   0.01267  Uiso   1.00
C8     C     0.61770   0.88920   0.94130   0.01267  Uiso   1.00
C9     C     0.12090   0.38890   0.84900   0.01267  Uiso   1.00
C10    C     0.96240   0.73110   0.81930   0.01267  Uiso   1.00
C11    C     0.12950   0.88260   0.86480   0.01267  Uiso   1.00
C12    C     0.21150   0.94680   0.00260   0.01267  Uiso   1.00
C13    C     0.13010   0.85580   0.09430   0.01267  Uiso   1.00
C14    C     0.96330   0.70460   0.04900   0.01267  Uiso   1.00
C15    C     0.87690   0.64520   0.91120   0.01267  Uiso   1.00
C16    C     0.87590   0.66090   0.66980   0.01267  Uiso   1.00
C17    C     0.38230   0.11080   0.05870   0.01267  Uiso   1.00
C18    C     0.87910   0.61110   0.15100   0.01267  Uiso   1.00
O1     O     0.31100   0.40720   0.37700   0.01267  Uiso   1.00
O2     O     0.00740   0.32590   0.39940   0.01267  Uiso   1.00
O3     O     0.55840   0.79800   0.03090   0.01267  Uiso   1.00
O4     O     0.53790   0.84290   0.81930   0.01267  Uiso   1.00
O5     O     0.02380   0.34020   0.72720   0.01267  Uiso   1.00
O6     O     0.28670   0.51110   0.89010   0.01267  Uiso   1.00
O7     O     0.68900   0.59280   0.62300   0.01267  Uiso   1.00
O8     O     0.99260   0.67410   0.60060   0.01267  Uiso   1.00
O9     O     0.44160   0.20200   0.96910   0.01267  Uiso   1.00
O10    O     0.46210   0.15710   0.18070   0.01267  Uiso   1.00
O11    O     0.97620   0.65980   0.27280   0.01267  Uiso   1.00
O12    O     0.71330   0.48890   0.10990   0.01267  Uiso   1.00
