data_NISBEX_clean
_audit_creation_date              2014-07-02
_audit_creation_method            'Materials Studio'
_symmetry_space_group_name_H-M    'P1'
_symmetry_Int_Tables_number       1
_symmetry_cell_setting            triclinic
loop_
_symmetry_equiv_pos_as_xyz
  x,y,z
_cell_length_a                    8.7794
_cell_length_b                    12.4011
_cell_length_c                    24.8971
_cell_angle_alpha                 90.0000
_cell_angle_beta                  90.0000
_cell_angle_gamma                 92.2620
loop_
_atom_site_label
_atom_site_type_symbol
_atom_site_fract_x
_atom_site_fract_y
_atom_site_fract_z
_atom_site_U_iso_or_equiv
_atom_site_adp_type
_atom_site_occupancy
La1    La    0.24525   0.99796   0.99154   0.01267  Uiso   1.00
La2    La    0.25475   0.00204   0.49154   0.01267  Uiso   1.00
La3    La    0.75475   0.00204   0.00846   0.01267  Uiso   1.00
La4    La    0.74525   0.99796   0.50846   0.01267  Uiso   1.00
H1     H     0.41050   0.84560   0.82340   0.01267  Uiso   1.00
H2     H     0.33110   0.94550   0.79790   0.01267  Uiso   1.00
H3     H     0.09720   0.71450   0.85330   0.01267  Uiso   1.00
H4     H     0.90290   0.56680   0.69400   0.01267  Uiso   1.00
H5     H     0.54810   0.27520   0.70560   0.01267  Uiso   1.00
H6     H     0.62720   0.36990   0.78370   0.01267  Uiso   1.00
H7     H     0.89750   0.59790   0.85560   0.01267  Uiso   1.00
H8     H     0.51810   0.32750   0.86820   0.01267  Uiso   1.00
H9     H     0.37500   0.27790   0.96140   0.01267  Uiso   1.00
H10    H     0.44520   0.33530   0.01320   0.01267  Uiso   1.00
H11    H     0.39740   0.27310   0.56840   0.01267  Uiso   1.00
H12    H     0.38300   0.20080   0.62080   0.01267  Uiso   1.00
H13    H     0.08950   0.15440   0.32340   0.01267  Uiso   1.00
H14    H     0.16890   0.05450   0.29790   0.01267  Uiso   1.00
H15    H     0.40280   0.28550   0.35330   0.01267  Uiso   1.00
H16    H     0.59710   0.43320   0.19400   0.01267  Uiso   1.00
H17    H     0.95190   0.72480   0.20560   0.01267  Uiso   1.00
H18    H     0.87280   0.63010   0.28370   0.01267  Uiso   1.00
H19    H     0.60250   0.40210   0.35560   0.01267  Uiso   1.00
H20    H     0.98190   0.67250   0.36820   0.01267  Uiso   1.00
H21    H     0.12500   0.72210   0.46140   0.01267  Uiso   1.00
H22    H     0.05480   0.66470   0.51320   0.01267  Uiso   1.00
H23    H     0.10260   0.72690   0.06840   0.01267  Uiso   1.00
H24    H     0.11700   0.79920   0.12080   0.01267  Uiso   1.00
H25    H     0.58950   0.15440   0.17660   0.01267  Uiso   1.00
H26    H     0.66890   0.05450   0.20210   0.01267  Uiso   1.00
H27    H     0.90280   0.28550   0.14670   0.01267  Uiso   1.00
H28    H     0.09710   0.43320   0.30600   0.01267  Uiso   1.00
H29    H     0.45190   0.72480   0.29440   0.01267  Uiso   1.00
H30    H     0.37280   0.63010   0.21630   0.01267  Uiso   1.00
H31    H     0.10250   0.40210   0.14440   0.01267  Uiso   1.00
H32    H     0.48190   0.67250   0.13180   0.01267  Uiso   1.00
H33    H     0.62500   0.72210   0.03860   0.01267  Uiso   1.00
H34    H     0.55480   0.66470   0.98680   0.01267  Uiso   1.00
H35    H     0.60260   0.72690   0.43160   0.01267  Uiso   1.00
H36    H     0.61700   0.79920   0.37920   0.01267  Uiso   1.00
H37    H     0.91050   0.84560   0.67660   0.01267  Uiso   1.00
H38    H     0.83110   0.94550   0.70210   0.01267  Uiso   1.00
H39    H     0.59720   0.71450   0.64670   0.01267  Uiso   1.00
H40    H     0.40290   0.56680   0.80600   0.01267  Uiso   1.00
H41    H     0.04810   0.27520   0.79440   0.01267  Uiso   1.00
H42    H     0.12720   0.36990   0.71630   0.01267  Uiso   1.00
H43    H     0.39750   0.59790   0.64440   0.01267  Uiso   1.00
H44    H     0.01810   0.32750   0.63180   0.01267  Uiso   1.00
H45    H     0.87500   0.27790   0.53860   0.01267  Uiso   1.00
H46    H     0.94520   0.33530   0.48680   0.01267  Uiso   1.00
H47    H     0.89740   0.27310   0.93160   0.01267  Uiso   1.00
H48    H     0.88300   0.20080   0.87920   0.01267  Uiso   1.00
C1     C     0.27280   0.92090   0.87642   0.01267  Uiso   1.00
C2     C     0.31390   0.88230   0.82100   0.01267  Uiso   1.00
C3     C     0.03510   0.68290   0.77360   0.01267  Uiso   1.00
C4     C     0.10900   0.73170   0.81670   0.01267  Uiso   1.00
C5     C     0.91870   0.59460   0.77480   0.01267  Uiso   1.00
C6     C     0.86460   0.54450   0.72760   0.01267  Uiso   1.00
C7     C     0.75210   0.46050   0.73120   0.01267  Uiso   1.00
C8     C     0.68360   0.41060   0.68260   0.01267  Uiso   1.00
C9     C     0.58370   0.32160   0.67800   0.01267  Uiso   1.00
C10    C     0.69940   0.42770   0.78140   0.01267  Uiso   1.00
C11    C     0.75100   0.47860   0.82850   0.01267  Uiso   1.00
C12    C     0.86160   0.56270   0.82440   0.01267  Uiso   1.00
C13    C     0.68960   0.44600   0.88050   0.01267  Uiso   1.00
C14    C     0.57500   0.37080   0.89250   0.01267  Uiso   1.00
C15    C     0.55960   0.19910   0.99185   0.01267  Uiso   1.00
C16    C     0.47050   0.29900   0.97960   0.01267  Uiso   1.00
C17    C     0.55230   0.15290   0.57000   0.01267  Uiso   1.00
C18    C     0.45570   0.23660   0.59610   0.01267  Uiso   1.00
C19    C     0.22720   0.07910   0.37642   0.01267  Uiso   1.00
C20    C     0.18610   0.11770   0.32100   0.01267  Uiso   1.00
C21    C     0.46490   0.31710   0.27360   0.01267  Uiso   1.00
C22    C     0.39100   0.26830   0.31670   0.01267  Uiso   1.00
C23    C     0.58130   0.40540   0.27480   0.01267  Uiso   1.00
C24    C     0.63540   0.45550   0.22760   0.01267  Uiso   1.00
C25    C     0.74790   0.53950   0.23120   0.01267  Uiso   1.00
C26    C     0.81640   0.58940   0.18260   0.01267  Uiso   1.00
C27    C     0.91630   0.67840   0.17800   0.01267  Uiso   1.00
C28    C     0.80060   0.57230   0.28140   0.01267  Uiso   1.00
C29    C     0.74900   0.52140   0.32850   0.01267  Uiso   1.00
C30    C     0.63840   0.43730   0.32440   0.01267  Uiso   1.00
C31    C     0.81040   0.55400   0.38050   0.01267  Uiso   1.00
C32    C     0.92500   0.62920   0.39250   0.01267  Uiso   1.00
C33    C     0.94040   0.80090   0.49185   0.01267  Uiso   1.00
C34    C     0.02950   0.70100   0.47960   0.01267  Uiso   1.00
C35    C     0.94770   0.84710   0.07000   0.01267  Uiso   1.00
C36    C     0.04430   0.76340   0.09610   0.01267  Uiso   1.00
C37    C     0.72720   0.07910   0.12358   0.01267  Uiso   1.00
C38    C     0.68610   0.11770   0.17900   0.01267  Uiso   1.00
C39    C     0.96490   0.31710   0.22640   0.01267  Uiso   1.00
C40    C     0.89100   0.26830   0.18330   0.01267  Uiso   1.00
C41    C     0.08130   0.40540   0.22520   0.01267  Uiso   1.00
C42    C     0.13540   0.45550   0.27240   0.01267  Uiso   1.00
C43    C     0.24790   0.53950   0.26880   0.01267  Uiso   1.00
C44    C     0.31640   0.58940   0.31740   0.01267  Uiso   1.00
C45    C     0.41630   0.67840   0.32200   0.01267  Uiso   1.00
C46    C     0.30060   0.57230   0.21860   0.01267  Uiso   1.00
C47    C     0.24900   0.52140   0.17150   0.01267  Uiso   1.00
C48    C     0.13840   0.43730   0.17560   0.01267  Uiso   1.00
C49    C     0.31040   0.55400   0.11950   0.01267  Uiso   1.00
C50    C     0.42500   0.62920   0.10750   0.01267  Uiso   1.00
C51    C     0.44040   0.80090   0.00815   0.01267  Uiso   1.00
C52    C     0.52950   0.70100   0.02040   0.01267  Uiso   1.00
C53    C     0.44770   0.84710   0.43000   0.01267  Uiso   1.00
C54    C     0.54430   0.76340   0.40390   0.01267  Uiso   1.00
C55    C     0.77280   0.92090   0.62358   0.01267  Uiso   1.00
C56    C     0.81390   0.88230   0.67900   0.01267  Uiso   1.00
C57    C     0.53510   0.68290   0.72640   0.01267  Uiso   1.00
C58    C     0.60900   0.73170   0.68330   0.01267  Uiso   1.00
C59    C     0.41870   0.59460   0.72520   0.01267  Uiso   1.00
C60    C     0.36460   0.54450   0.77240   0.01267  Uiso   1.00
C61    C     0.25210   0.46050   0.76880   0.01267  Uiso   1.00
C62    C     0.18360   0.41060   0.81740   0.01267  Uiso   1.00
C63    C     0.08370   0.32160   0.82200   0.01267  Uiso   1.00
C64    C     0.19940   0.42770   0.71860   0.01267  Uiso   1.00
C65    C     0.25100   0.47860   0.67150   0.01267  Uiso   1.00
C66    C     0.36160   0.56270   0.67560   0.01267  Uiso   1.00
C67    C     0.18960   0.44600   0.61950   0.01267  Uiso   1.00
C68    C     0.07500   0.37080   0.60750   0.01267  Uiso   1.00
C69    C     0.05960   0.19910   0.50815   0.01267  Uiso   1.00
C70    C     0.97050   0.29900   0.52040   0.01267  Uiso   1.00
C71    C     0.05230   0.15290   0.93000   0.01267  Uiso   1.00
C72    C     0.95570   0.23660   0.90390   0.01267  Uiso   1.00
N1     N     0.20190   0.80940   0.79500   0.01267  Uiso   1.00
N2     N     0.19030   0.80880   0.74145   0.01267  Uiso   1.00
N3     N     0.08890   0.73230   0.72837   0.01267  Uiso   1.00
N4     N     0.70490   0.45300   0.63293   0.01267  Uiso   1.00
N5     N     0.62270   0.39480   0.59802   0.01267  Uiso   1.00
N6     N     0.54940   0.31660   0.62563   0.01267  Uiso   1.00
N7     N     0.56140   0.37240   0.94556   0.01267  Uiso   1.00
N8     N     0.66190   0.44440   0.96805   0.01267  Uiso   1.00
N9     N     0.73910   0.48990   0.92794   0.01267  Uiso   1.00
N10    N     0.29810   0.19060   0.29500   0.01267  Uiso   1.00
N11    N     0.30970   0.19120   0.24145   0.01267  Uiso   1.00
N12    N     0.41110   0.26770   0.22837   0.01267  Uiso   1.00
N13    N     0.79510   0.54700   0.13293   0.01267  Uiso   1.00
N14    N     0.87730   0.60520   0.09802   0.01267  Uiso   1.00
N15    N     0.95060   0.68340   0.12563   0.01267  Uiso   1.00
N16    N     0.93860   0.62760   0.44556   0.01267  Uiso   1.00
N17    N     0.83810   0.55560   0.46805   0.01267  Uiso   1.00
N18    N     0.76090   0.51010   0.42794   0.01267  Uiso   1.00
N19    N     0.79810   0.19060   0.20500   0.01267  Uiso   1.00
N20    N     0.80970   0.19120   0.25855   0.01267  Uiso   1.00
N21    N     0.91110   0.26770   0.27163   0.01267  Uiso   1.00
N22    N     0.29510   0.54700   0.36707   0.01267  Uiso   1.00
N23    N     0.37730   0.60520   0.40198   0.01267  Uiso   1.00
N24    N     0.45060   0.68340   0.37437   0.01267  Uiso   1.00
N25    N     0.43860   0.62760   0.05444   0.01267  Uiso   1.00
N26    N     0.33810   0.55560   0.03195   0.01267  Uiso   1.00
N27    N     0.26090   0.51010   0.07206   0.01267  Uiso   1.00
N28    N     0.70190   0.80940   0.70500   0.01267  Uiso   1.00
N29    N     0.69030   0.80880   0.75855   0.01267  Uiso   1.00
N30    N     0.58890   0.73230   0.77163   0.01267  Uiso   1.00
N31    N     0.20490   0.45300   0.86707   0.01267  Uiso   1.00
N32    N     0.12270   0.39480   0.90198   0.01267  Uiso   1.00
N33    N     0.04940   0.31660   0.87437   0.01267  Uiso   1.00
N34    N     0.06140   0.37240   0.55444   0.01267  Uiso   1.00
N35    N     0.16190   0.44440   0.53195   0.01267  Uiso   1.00
N36    N     0.23910   0.48990   0.57206   0.01267  Uiso   1.00
O1     O     0.38100   0.96890   0.90138   0.01267  Uiso   1.00
O2     O     0.14270   0.90820   0.89650   0.01267  Uiso   1.00
O3     O     0.70110   0.20620   0.99758   0.01267  Uiso   1.00
O4     O     0.48630   0.10910   0.99636   0.01267  Uiso   1.00
O5     O     0.69170   0.15160   0.57794   0.01267  Uiso   1.00
O6     O     0.48360   0.08380   0.53884   0.01267  Uiso   1.00
O7     O     0.11900   0.03110   0.40138   0.01267  Uiso   1.00
O8     O     0.35730   0.09180   0.39650   0.01267  Uiso   1.00
O9     O     0.79890   0.79380   0.49758   0.01267  Uiso   1.00
O10    O     0.01370   0.89090   0.49636   0.01267  Uiso   1.00
O11    O     0.80830   0.84840   0.07794   0.01267  Uiso   1.00
O12    O     0.01640   0.91620   0.03884   0.01267  Uiso   1.00
O13    O     0.61900   0.03110   0.09862   0.01267  Uiso   1.00
O14    O     0.85730   0.09180   0.10350   0.01267  Uiso   1.00
O15    O     0.29890   0.79380   0.00242   0.01267  Uiso   1.00
O16    O     0.51370   0.89090   0.00364   0.01267  Uiso   1.00
O17    O     0.30830   0.84840   0.42206   0.01267  Uiso   1.00
O18    O     0.51640   0.91620   0.46116   0.01267  Uiso   1.00
O19    O     0.88100   0.96890   0.59862   0.01267  Uiso   1.00
O20    O     0.64270   0.90820   0.60350   0.01267  Uiso   1.00
O21    O     0.20110   0.20620   0.50242   0.01267  Uiso   1.00
O22    O     0.98630   0.10910   0.50364   0.01267  Uiso   1.00
O23    O     0.19170   0.15160   0.92206   0.01267  Uiso   1.00
O24    O     0.98360   0.08380   0.96116   0.01267  Uiso   1.00
