data_NISPEL_charged
_audit_creation_date              2014-07-02
_audit_creation_method            'Materials Studio'
_symmetry_space_group_name_H-M    'P1'
_symmetry_Int_Tables_number       1
_symmetry_cell_setting            triclinic
loop_
_symmetry_equiv_pos_as_xyz
  x,y,z
_cell_length_a                    8.5770
_cell_length_b                    13.6877
_cell_length_c                    25.8220
_cell_angle_alpha                 92.3019
_cell_angle_beta                  90.0000
_cell_angle_gamma                 108.2590
loop_
_atom_site_label
_atom_site_type_symbol
_atom_site_fract_x
_atom_site_fract_y
_atom_site_fract_z
_atom_site_U_iso_or_equiv
_atom_site_adp_type
_atom_site_occupancy
Zn1    Zn    0.31573   0.71756   0.89172   0.01267  Uiso   1.00
Zn2    Zn    0.76362   0.54118   0.00162   0.01267  Uiso   1.00
Zn3    Zn    0.59817   0.28244   0.60828   0.01267  Uiso   1.00
Zn4    Zn    0.22244   0.45882   0.49838   0.01267  Uiso   1.00
Zn5    Zn    0.68427   0.28244   0.10828   0.01267  Uiso   1.00
Zn6    Zn    0.23638   0.45882   0.99838   0.01267  Uiso   1.00
Zn7    Zn    0.40183   0.71756   0.39172   0.01267  Uiso   1.00
Zn8    Zn    0.77756   0.54118   0.50162   0.01267  Uiso   1.00
P1     P     0.13271   0.66568   0.00085   0.01267  Uiso   1.00
P2     P     0.51160   0.54948   0.91203   0.01267  Uiso   1.00
P3     P     0.46703   0.33432   0.49915   0.01267  Uiso   1.00
P4     P     0.96212   0.45052   0.58797   0.01267  Uiso   1.00
P5     P     0.86729   0.33432   0.99915   0.01267  Uiso   1.00
P6     P     0.48840   0.45052   0.08797   0.01267  Uiso   1.00
P7     P     0.53297   0.66568   0.50085   0.01267  Uiso   1.00
P8     P     0.03788   0.54948   0.41203   0.01267  Uiso   1.00
H1     H     0.11040   0.85700   0.04440   0.01267  Uiso   1.00
H2     H     0.29150   0.00720   0.07870   0.01267  Uiso   1.00
H3     H     0.65940   0.89400   0.05400   0.01267  Uiso   1.00
H4     H     0.47360   0.73880   0.02470   0.01267  Uiso   1.00
H5     H     0.63370   0.38540   0.88480   0.01267  Uiso   1.00
H6     H     0.63960   0.28700   0.81030   0.01267  Uiso   1.00
H7     H     0.45580   0.46200   0.72970   0.01267  Uiso   1.00
H8     H     0.44990   0.56200   0.80430   0.01267  Uiso   1.00
H9     H     0.25340   0.14300   0.45560   0.01267  Uiso   1.00
H10    H     0.28430   0.99280   0.42130   0.01267  Uiso   1.00
H11    H     0.76540   0.10600   0.44600   0.01267  Uiso   1.00
H12    H     0.73480   0.26120   0.47530   0.01267  Uiso   1.00
H13    H     0.24830   0.61460   0.61520   0.01267  Uiso   1.00
H14    H     0.35260   0.71300   0.68970   0.01267  Uiso   1.00
H15    H     0.99380   0.53800   0.77030   0.01267  Uiso   1.00
H16    H     0.88790   0.43800   0.69570   0.01267  Uiso   1.00
H17    H     0.88960   0.14300   0.95560   0.01267  Uiso   1.00
H18    H     0.70850   0.99280   0.92130   0.01267  Uiso   1.00
H19    H     0.34060   0.10600   0.94600   0.01267  Uiso   1.00
H20    H     0.52640   0.26120   0.97530   0.01267  Uiso   1.00
H21    H     0.36630   0.61460   0.11520   0.01267  Uiso   1.00
H22    H     0.36040   0.71300   0.18970   0.01267  Uiso   1.00
H23    H     0.54420   0.53800   0.27030   0.01267  Uiso   1.00
H24    H     0.55010   0.43800   0.19570   0.01267  Uiso   1.00
H25    H     0.74660   0.85700   0.54440   0.01267  Uiso   1.00
H26    H     0.71570   0.00720   0.57870   0.01267  Uiso   1.00
H27    H     0.23460   0.89400   0.55400   0.01267  Uiso   1.00
H28    H     0.26520   0.73880   0.52470   0.01267  Uiso   1.00
H29    H     0.75170   0.38540   0.38480   0.01267  Uiso   1.00
H30    H     0.64740   0.28700   0.31030   0.01267  Uiso   1.00
H31    H     0.00620   0.46200   0.22970   0.01267  Uiso   1.00
H32    H     0.11210   0.56200   0.30430   0.01267  Uiso   1.00
C1     C     0.27223   0.78246   0.02958   0.01267  Uiso   1.00
C2     C     0.22140   0.86340   0.04650   0.01267  Uiso   1.00
C3     C     0.33060   0.95440   0.06650   0.01267  Uiso   1.00
C4     C     0.49535   0.96790   0.06870   0.01267  Uiso   1.00
C5     C     0.54800   0.88700   0.05260   0.01267  Uiso   1.00
C6     C     0.43610   0.79380   0.03410   0.01267  Uiso   1.00
C7     C     0.61212   0.06984   0.08750   0.01267  Uiso   1.00
C8     C     0.53187   0.48074   0.85263   0.01267  Uiso   1.00
C9     C     0.59480   0.40140   0.85370   0.01267  Uiso   1.00
C10    C     0.60170   0.34340   0.80850   0.01267  Uiso   1.00
C11    C     0.55470   0.36740   0.76266   0.01267  Uiso   1.00
C12    C     0.49380   0.44620   0.76110   0.01267  Uiso   1.00
C13    C     0.48660   0.50520   0.80640   0.01267  Uiso   1.00
C14    C     0.57570   0.30860   0.71400   0.01267  Uiso   1.00
C15    C     0.48977   0.21754   0.47042   0.01267  Uiso   1.00
C16    C     0.35800   0.13660   0.45350   0.01267  Uiso   1.00
C17    C     0.37620   0.04560   0.43350   0.01267  Uiso   1.00
C18    C     0.52745   0.03210   0.43130   0.01267  Uiso   1.00
C19    C     0.66100   0.11300   0.44740   0.01267  Uiso   1.00
C20    C     0.64230   0.20620   0.46590   0.01267  Uiso   1.00
C21    C     0.54228   0.93016   0.41250   0.01267  Uiso   1.00
C22    C     0.05113   0.51926   0.64737   0.01267  Uiso   1.00
C23    C     0.19340   0.59860   0.64630   0.01267  Uiso   1.00
C24    C     0.25830   0.65660   0.69150   0.01267  Uiso   1.00
C25    C     0.18730   0.63260   0.73734   0.01267  Uiso   1.00
C26    C     0.04760   0.55380   0.73890   0.01267  Uiso   1.00
C27    C     0.98140   0.49480   0.69360   0.01267  Uiso   1.00
C28    C     0.26710   0.69140   0.78600   0.01267  Uiso   1.00
C29    C     0.72777   0.21754   0.97042   0.01267  Uiso   1.00
C30    C     0.77860   0.13660   0.95350   0.01267  Uiso   1.00
C31    C     0.66940   0.04560   0.93350   0.01267  Uiso   1.00
C32    C     0.50465   0.03210   0.93130   0.01267  Uiso   1.00
C33    C     0.45200   0.11300   0.94740   0.01267  Uiso   1.00
C34    C     0.56390   0.20620   0.96590   0.01267  Uiso   1.00
C35    C     0.38788   0.93016   0.91250   0.01267  Uiso   1.00
C36    C     0.46813   0.51926   0.14737   0.01267  Uiso   1.00
C37    C     0.40520   0.59860   0.14630   0.01267  Uiso   1.00
C38    C     0.39830   0.65660   0.19150   0.01267  Uiso   1.00
C39    C     0.44530   0.63260   0.23734   0.01267  Uiso   1.00
C40    C     0.50620   0.55380   0.23890   0.01267  Uiso   1.00
C41    C     0.51340   0.49480   0.19360   0.01267  Uiso   1.00
C42    C     0.42430   0.69140   0.28600   0.01267  Uiso   1.00
C43    C     0.51023   0.78246   0.52958   0.01267  Uiso   1.00
C44    C     0.64200   0.86340   0.54650   0.01267  Uiso   1.00
C45    C     0.62380   0.95440   0.56650   0.01267  Uiso   1.00
C46    C     0.47255   0.96790   0.56870   0.01267  Uiso   1.00
C47    C     0.33900   0.88700   0.55260   0.01267  Uiso   1.00
C48    C     0.35770   0.79380   0.53410   0.01267  Uiso   1.00
C49    C     0.45772   0.06984   0.58750   0.01267  Uiso   1.00
C50    C     0.94887   0.48074   0.35263   0.01267  Uiso   1.00
C51    C     0.80660   0.40140   0.35370   0.01267  Uiso   1.00
C52    C     0.74170   0.34340   0.30850   0.01267  Uiso   1.00
C53    C     0.81270   0.36740   0.26266   0.01267  Uiso   1.00
C54    C     0.95240   0.44620   0.26110   0.01267  Uiso   1.00
C55    C     0.01860   0.50520   0.30640   0.01267  Uiso   1.00
C56    C     0.73290   0.30860   0.21400   0.01267  Uiso   1.00
O1     O     0.14231   0.67302   0.94261   0.01267  Uiso   1.00
O2     O     0.95975   0.65910   0.01854   0.01267  Uiso   1.00
O3     O     0.18757   0.57974   0.02118   0.01267  Uiso   1.00
O4     O     0.54973   0.14066   0.09503   0.01267  Uiso   1.00
O5     O     0.76225   0.08030   0.09345   0.01267  Uiso   1.00
O6     O     0.67796   0.58192   0.93971   0.01267  Uiso   1.00
O7     O     0.38131   0.47242   0.94098   0.01267  Uiso   1.00
O8     O     0.47068   0.64356   0.89735   0.01267  Uiso   1.00
O9     O     0.64850   0.24400   0.71630   0.01267  Uiso   1.00
O10    O     0.52368   0.33276   0.67231   0.01267  Uiso   1.00
O11    O     0.46929   0.32698   0.55739   0.01267  Uiso   1.00
O12    O     0.30065   0.34090   0.48146   0.01267  Uiso   1.00
O13    O     0.60783   0.42026   0.47882   0.01267  Uiso   1.00
O14    O     0.40907   0.85934   0.40497   0.01267  Uiso   1.00
O15    O     0.68195   0.91970   0.40655   0.01267  Uiso   1.00
O16    O     0.09604   0.41808   0.56029   0.01267  Uiso   1.00
O17    O     0.90889   0.52758   0.55902   0.01267  Uiso   1.00
O18    O     0.82712   0.35644   0.60265   0.01267  Uiso   1.00
O19    O     0.40450   0.75600   0.78370   0.01267  Uiso   1.00
O20    O     0.19092   0.66724   0.82769   0.01267  Uiso   1.00
O21    O     0.85769   0.32698   0.05739   0.01267  Uiso   1.00
O22    O     0.04025   0.34090   0.98146   0.01267  Uiso   1.00
O23    O     0.81243   0.42026   0.97882   0.01267  Uiso   1.00
O24    O     0.45027   0.85934   0.90497   0.01267  Uiso   1.00
O25    O     0.23775   0.91970   0.90655   0.01267  Uiso   1.00
O26    O     0.32204   0.41808   0.06029   0.01267  Uiso   1.00
O27    O     0.61869   0.52758   0.05902   0.01267  Uiso   1.00
O28    O     0.52932   0.35644   0.10265   0.01267  Uiso   1.00
O29    O     0.35150   0.75600   0.28370   0.01267  Uiso   1.00
O30    O     0.47632   0.66724   0.32769   0.01267  Uiso   1.00
O31    O     0.53071   0.67302   0.44261   0.01267  Uiso   1.00
O32    O     0.69935   0.65910   0.51854   0.01267  Uiso   1.00
O33    O     0.39217   0.57974   0.52118   0.01267  Uiso   1.00
O34    O     0.59093   0.14066   0.59503   0.01267  Uiso   1.00
O35    O     0.31805   0.08030   0.59345   0.01267  Uiso   1.00
O36    O     0.90396   0.58192   0.43971   0.01267  Uiso   1.00
O37    O     0.09111   0.47242   0.44098   0.01267  Uiso   1.00
O38    O     0.17288   0.64356   0.39735   0.01267  Uiso   1.00
O39    O     0.59550   0.24400   0.21630   0.01267  Uiso   1.00
O40    O     0.80908   0.33276   0.17231   0.01267  Uiso   1.00
H33    H     0.15240   0.29760   0.08060   0.01267  Uiso   1.00
H34    H     0.99250   0.22140   0.08590   0.01267  Uiso   1.00
H35    H     0.09200   0.28140   0.16460   0.01267  Uiso   1.00
H36    H     0.07580   0.16420   0.15830   0.01267  Uiso   1.00
H37    H     0.24750   0.24780   0.15270   0.01267  Uiso   1.00
H38    H     0.12520   0.16900   0.02230   0.01267  Uiso   1.00
H39    H     0.26840   0.17520   0.06130   0.01267  Uiso   1.00
H40    H     0.09620   0.09240   0.06750   0.01267  Uiso   1.00
C57    C     0.13170   0.23160   0.14640   0.01267  Uiso   1.00
C58    C     0.15200   0.16140   0.05770   0.01267  Uiso   1.00
N1     N     0.10090   0.23360   0.09090   0.01267  Uiso   1.00
H41    H     0.85480   0.70240   0.41940   0.01267  Uiso   1.00
H42    H     0.77110   0.77860   0.41410   0.01267  Uiso   1.00
H43    H     0.81060   0.71860   0.33540   0.01267  Uiso   1.00
H44    H     0.91160   0.83580   0.34170   0.01267  Uiso   1.00
H45    H     0.99970   0.75220   0.34730   0.01267  Uiso   1.00
H46    H     0.95620   0.83100   0.47770   0.01267  Uiso   1.00
H47    H     0.09320   0.82480   0.43870   0.01267  Uiso   1.00
H48    H     0.00380   0.90760   0.43250   0.01267  Uiso   1.00
C59    C     0.90010   0.76840   0.35360   0.01267  Uiso   1.00
C60    C     0.99060   0.83860   0.44230   0.01267  Uiso   1.00
N2     N     0.86730   0.76640   0.40910   0.01267  Uiso   1.00
H49    H     0.84760   0.70240   0.91940   0.01267  Uiso   1.00
H50    H     0.00750   0.77860   0.91410   0.01267  Uiso   1.00
H51    H     0.90800   0.71860   0.83540   0.01267  Uiso   1.00
H52    H     0.92420   0.83580   0.84170   0.01267  Uiso   1.00
H53    H     0.75250   0.75220   0.84730   0.01267  Uiso   1.00
H54    H     0.87480   0.83100   0.97770   0.01267  Uiso   1.00
H55    H     0.73160   0.82480   0.93870   0.01267  Uiso   1.00
H56    H     0.90380   0.90760   0.93250   0.01267  Uiso   1.00
C61    C     0.86830   0.76840   0.85360   0.01267  Uiso   1.00
C62    C     0.84800   0.83860   0.94230   0.01267  Uiso   1.00
N3     N     0.89910   0.76640   0.90910   0.01267  Uiso   1.00
H57    H     0.14520   0.29760   0.58060   0.01267  Uiso   1.00
H58    H     0.22890   0.22140   0.58590   0.01267  Uiso   1.00
H59    H     0.18940   0.28140   0.66460   0.01267  Uiso   1.00
H60    H     0.08840   0.16420   0.65830   0.01267  Uiso   1.00
H61    H     0.00030   0.24780   0.65270   0.01267  Uiso   1.00
H62    H     0.04380   0.16900   0.52230   0.01267  Uiso   1.00
H63    H     0.90680   0.17520   0.56130   0.01267  Uiso   1.00
H64    H     0.99620   0.09240   0.56750   0.01267  Uiso   1.00
C63    C     0.09990   0.23160   0.64640   0.01267  Uiso   1.00
C64    C     0.00940   0.16140   0.55770   0.01267  Uiso   1.00
N4     N     0.13270   0.23360   0.59090   0.01267  Uiso   1.00
