data_image0
_cell_length_a       21.535
_cell_length_b       9.028
_cell_length_c       12.186
_cell_angle_alpha    90
_cell_angle_beta     90
_cell_angle_gamma    90

_symmetry_space_group_name_H-M    "P 1"
_symmetry_int_tables_number       1

loop_
  _symmetry_equiv_pos_as_xyz
  'x, y, z'

loop_
  _atom_site_label
  _atom_site_occupancy
  _atom_site_fract_x
  _atom_site_fract_y
  _atom_site_fract_z
  _atom_site_thermal_displace_type
  _atom_site_B_iso_or_equiv
  _atom_site_type_symbol
  C1       1.0000 0.99570  0.79490  0.79670  Biso   1.000  C
  C2       1.0000 0.00680  0.95600  0.75460  Biso   1.000  C
  C3       1.0000 0.03630  0.63270  0.93720  Biso   1.000  C
  C4       1.0000 0.08100  0.64600  0.03630  Biso   1.000  C
  C5       1.0000 0.94260  0.77590  0.96750  Biso   1.000  C
  C6       1.0000 0.91530  0.93640  0.98190  Biso   1.000  C
  C7       1.0000 0.25470  0.26030  0.36160  Biso   1.000  C
  C8       1.0000 0.25000  0.41280  0.42440  Biso   1.000  C
  C9       1.0000 0.24020  0.14150  0.19050  Biso   1.000  C
  C10      1.0000 0.17190  0.16110  0.15680  Biso   1.000  C
  C11      1.0000 0.32940  0.30560  0.21840  Biso   1.000  C
  C12      1.0000 0.34440  0.46590  0.19410  Biso   1.000  C
  Dy1      1.0000 0.06120  0.99870  0.00000  Biso   1.000  Dy
  Dy2      1.0000 0.19550  0.49940  0.18660  Biso   1.000  Dy
  N1       1.0000 0.00410  0.77720  0.91290  Biso   1.000  N
  N2       1.0000 0.26250  0.27640  0.24600  Biso   1.000  N
  O1       1.0000 0.04150  0.03740  0.81320  Biso   1.000  O
  O2       1.0000 0.98340  0.99480  0.67000  Biso   1.000  O
  O3       1.0000 0.08890  0.77410  0.07480  Biso   1.000  O
  O4       1.0000 0.10800  0.53100  0.06250  Biso   1.000  O
  O5       1.0000 0.95300  0.04560  0.97970  Biso   1.000  O
  O6       1.0000 0.85840  0.94550  0.99120  Biso   1.000  O
  O7       1.0000 0.22690  0.51580  0.37480  Biso   1.000  O
  O8       1.0000 0.27020  0.41060  0.51980  Biso   1.000  O
  O9       1.0000 0.14500  0.27230  0.17960  Biso   1.000  O
  O10      1.0000 0.14910  0.04960  0.10670  Biso   1.000  O
  O11      1.0000 0.30190  0.55700  0.18500  Biso   1.000  O
  O12      1.0000 0.39970  0.49880  0.18110  Biso   1.000  O
  C13      1.0000 0.00430  0.20510  0.29670  Biso   1.000  C
  C14      1.0000 0.99320  0.04400  0.25460  Biso   1.000  C
  C15      1.0000 0.96370  0.36730  0.43720  Biso   1.000  C
  C16      1.0000 0.91900  0.35400  0.53630  Biso   1.000  C
  C17      1.0000 0.05740  0.22410  0.46750  Biso   1.000  C
  C18      1.0000 0.08470  0.06360  0.48190  Biso   1.000  C
  C19      1.0000 0.74530  0.73970  0.86160  Biso   1.000  C
  C20      1.0000 0.75000  0.58720  0.92440  Biso   1.000  C
  C21      1.0000 0.75980  0.85850  0.69050  Biso   1.000  C
  C22      1.0000 0.82810  0.83890  0.65680  Biso   1.000  C
  C23      1.0000 0.67060  0.69440  0.71840  Biso   1.000  C
  C24      1.0000 0.65560  0.53410  0.69410  Biso   1.000  C
  Dy3      1.0000 0.93880  0.00130  0.50000  Biso   1.000  Dy
  Dy4      1.0000 0.80450  0.50060  0.68660  Biso   1.000  Dy
  N3       1.0000 0.99590  0.22280  0.41290  Biso   1.000  N
  N4       1.0000 0.73750  0.72360  0.74600  Biso   1.000  N
  O13      1.0000 0.95850  0.96260  0.31320  Biso   1.000  O
  O14      1.0000 0.01660  0.00520  0.17000  Biso   1.000  O
  O15      1.0000 0.91110  0.22590  0.57480  Biso   1.000  O
  O16      1.0000 0.89200  0.46900  0.56250  Biso   1.000  O
  O17      1.0000 0.04700  0.95440  0.47970  Biso   1.000  O
  O18      1.0000 0.14160  0.05450  0.49120  Biso   1.000  O
  O19      1.0000 0.77310  0.48420  0.87480  Biso   1.000  O
  O20      1.0000 0.72980  0.58940  0.01980  Biso   1.000  O
  O21      1.0000 0.85500  0.72770  0.67960  Biso   1.000  O
  O22      1.0000 0.85090  0.95040  0.60670  Biso   1.000  O
  O23      1.0000 0.69810  0.44300  0.68500  Biso   1.000  O
  O24      1.0000 0.60030  0.50120  0.68110  Biso   1.000  O
  C25      1.0000 0.49570  0.20510  0.79670  Biso   1.000  C
  C26      1.0000 0.50680  0.04400  0.75460  Biso   1.000  C
  C27      1.0000 0.53630  0.36730  0.93720  Biso   1.000  C
  C28      1.0000 0.58100  0.35400  0.03630  Biso   1.000  C
  C29      1.0000 0.44260  0.22410  0.96750  Biso   1.000  C
  C30      1.0000 0.41530  0.06360  0.98190  Biso   1.000  C
  C31      1.0000 0.75470  0.73970  0.36160  Biso   1.000  C
  C32      1.0000 0.75000  0.58720  0.42440  Biso   1.000  C
  C33      1.0000 0.74020  0.85850  0.19050  Biso   1.000  C
  C34      1.0000 0.67190  0.83890  0.15680  Biso   1.000  C
  C35      1.0000 0.82940  0.69440  0.21840  Biso   1.000  C
  C36      1.0000 0.84440  0.53410  0.19410  Biso   1.000  C
  Dy5      1.0000 0.56120  0.00130  0.00000  Biso   1.000  Dy
  Dy6      1.0000 0.69550  0.50060  0.18660  Biso   1.000  Dy
  N5       1.0000 0.50410  0.22280  0.91290  Biso   1.000  N
  N6       1.0000 0.76250  0.72360  0.24600  Biso   1.000  N
  O25      1.0000 0.54150  0.96260  0.81320  Biso   1.000  O
  O26      1.0000 0.48340  0.00520  0.67000  Biso   1.000  O
  O27      1.0000 0.58890  0.22590  0.07480  Biso   1.000  O
  O28      1.0000 0.60800  0.46900  0.06250  Biso   1.000  O
  O29      1.0000 0.45300  0.95440  0.97970  Biso   1.000  O
  O30      1.0000 0.35840  0.05450  0.99120  Biso   1.000  O
  O31      1.0000 0.72690  0.48420  0.37480  Biso   1.000  O
  O32      1.0000 0.77020  0.58940  0.51980  Biso   1.000  O
  O33      1.0000 0.64500  0.72770  0.17960  Biso   1.000  O
  O34      1.0000 0.64910  0.95040  0.10670  Biso   1.000  O
  O35      1.0000 0.80190  0.44300  0.18500  Biso   1.000  O
  O36      1.0000 0.89970  0.50120  0.18110  Biso   1.000  O
  C37      1.0000 0.50430  0.79490  0.29670  Biso   1.000  C
  C38      1.0000 0.49320  0.95600  0.25460  Biso   1.000  C
  C39      1.0000 0.46370  0.63270  0.43720  Biso   1.000  C
  C40      1.0000 0.41900  0.64600  0.53630  Biso   1.000  C
  C41      1.0000 0.55740  0.77590  0.46750  Biso   1.000  C
  C42      1.0000 0.58470  0.93640  0.48190  Biso   1.000  C
  C43      1.0000 0.24530  0.26030  0.86160  Biso   1.000  C
  C44      1.0000 0.25000  0.41280  0.92440  Biso   1.000  C
  C45      1.0000 0.25980  0.14150  0.69050  Biso   1.000  C
  C46      1.0000 0.32810  0.16110  0.65680  Biso   1.000  C
  C47      1.0000 0.17060  0.30560  0.71840  Biso   1.000  C
  C48      1.0000 0.15560  0.46590  0.69410  Biso   1.000  C
  Dy7      1.0000 0.43880  0.99870  0.50000  Biso   1.000  Dy
  Dy8      1.0000 0.30450  0.49940  0.68660  Biso   1.000  Dy
  N7       1.0000 0.49590  0.77720  0.41290  Biso   1.000  N
  N8       1.0000 0.23750  0.27640  0.74600  Biso   1.000  N
  O37      1.0000 0.45850  0.03740  0.31320  Biso   1.000  O
  O38      1.0000 0.51660  0.99480  0.17000  Biso   1.000  O
  O39      1.0000 0.41110  0.77410  0.57480  Biso   1.000  O
  O40      1.0000 0.39200  0.53100  0.56250  Biso   1.000  O
  O41      1.0000 0.54700  0.04560  0.47970  Biso   1.000  O
  O42      1.0000 0.64160  0.94550  0.49120  Biso   1.000  O
  O43      1.0000 0.27310  0.51580  0.87480  Biso   1.000  O
  O44      1.0000 0.22980  0.41060  0.01980  Biso   1.000  O
  O45      1.0000 0.35500  0.27230  0.67960  Biso   1.000  O
  O46      1.0000 0.35090  0.04960  0.60670  Biso   1.000  O
  O47      1.0000 0.19810  0.55700  0.68500  Biso   1.000  O
  O48      1.0000 0.10030  0.49880  0.68110  Biso   1.000  O
