data_NIVNOW_clean
_audit_creation_date              2014-07-02
_audit_creation_method            'Materials Studio'
_symmetry_space_group_name_H-M    'P1'
_symmetry_Int_Tables_number       1
_symmetry_cell_setting            triclinic
loop_
_symmetry_equiv_pos_as_xyz
  x,y,z
_cell_length_a                    11.5120
_cell_length_b                    14.7800
_cell_length_c                    15.1746
_cell_angle_alpha                 119.1440
_cell_angle_beta                  105.9680
_cell_angle_gamma                 90.0000
loop_
_atom_site_label
_atom_site_type_symbol
_atom_site_fract_x
_atom_site_fract_y
_atom_site_fract_z
_atom_site_U_iso_or_equiv
_atom_site_adp_type
_atom_site_occupancy
Cu1    Cu    0.50000   1.00000   0.50000   0.01267  Uiso   1.00
Cu2    Cu    0.50000   0.50000   0.50000   0.01267  Uiso   1.00
Cu3    Cu    0.00000   1.00000   0.50000   0.01267  Uiso   1.00
Cu4    Cu    0.00000   0.50000   0.50000   0.01267  Uiso   1.00
Cu5    Cu    0.00000   0.76450  -0.00000   0.01267  Uiso   1.00
Cu6    Cu    0.00000   0.23550  -0.00000   0.01267  Uiso   1.00
H1     H     0.50400   0.15680   0.72680   0.01267  Uiso   1.00
H2     H     0.36450   0.22170   0.81800   0.01267  Uiso   1.00
H3     H     0.16000   0.15570   0.72740   0.01267  Uiso   1.00
H4     H     0.23810   0.98310   0.46720   0.01267  Uiso   1.00
H5     H     0.49600   0.43000   0.27320   0.01267  Uiso   1.00
H6     H     0.63550   0.40370   0.18200   0.01267  Uiso   1.00
H7     H     0.84000   0.42830   0.27260   0.01267  Uiso   1.00
H8     H     0.76190   0.51590   0.53280   0.01267  Uiso   1.00
H9     H     0.49600   0.84320   0.27320   0.01267  Uiso   1.00
H10    H     0.63550   0.77830   0.18200   0.01267  Uiso   1.00
H11    H     0.84000   0.84430   0.27260   0.01267  Uiso   1.00
H12    H     0.76190   0.01690   0.53280   0.01267  Uiso   1.00
H13    H     0.50400   0.57000   0.72680   0.01267  Uiso   1.00
H14    H     0.36450   0.59630   0.81800   0.01267  Uiso   1.00
H15    H     0.16000   0.57170   0.72740   0.01267  Uiso   1.00
H16    H     0.23810   0.48410   0.46720   0.01267  Uiso   1.00
W1     W     0.20064   0.15035   0.30070   0.01267  Uiso   1.00
W2     W     0.79936   0.84965   0.69930   0.01267  Uiso   1.00
W3     W     0.14186   0.63832   0.27664   0.01267  Uiso   1.00
W4     W     0.85814   0.36168   0.72336   0.01267  Uiso   1.00
C1     C     0.33160   0.07060   0.35620   0.01267  Uiso   1.00
C2     C     0.11630   0.99482   0.17264   0.01267  Uiso   1.00
C3     C     0.08270   0.08019   0.34738   0.01267  Uiso   1.00
C4     C     0.09300   0.69755   0.16890   0.01267  Uiso   1.00
C5     C     0.29030   0.76832   0.35964   0.01267  Uiso   1.00
C6     C     0.07920   0.78049   0.37498   0.01267  Uiso   1.00
C7     C     0.42070   0.13310   0.69100   0.01267  Uiso   1.00
C8     C     0.33850   0.17130   0.74620   0.01267  Uiso   1.00
C9     C     0.21710   0.13250   0.69140   0.01267  Uiso   1.00
C10    C     0.26430   0.03111   0.53982   0.01267  Uiso   1.00
C11    C     0.66840   0.71440   0.64380   0.01267  Uiso   1.00
C12    C     0.88370   0.82218   0.82736   0.01267  Uiso   1.00
C13    C     0.91730   0.73281   0.65262   0.01267  Uiso   1.00
C14    C     0.90700   0.52865   0.83110   0.01267  Uiso   1.00
C15    C     0.70970   0.40868   0.64036   0.01267  Uiso   1.00
C16    C     0.92080   0.40551   0.62502   0.01267  Uiso   1.00
C17    C     0.57930   0.44210   0.30900   0.01267  Uiso   1.00
C18    C     0.66150   0.42510   0.25380   0.01267  Uiso   1.00
C19    C     0.78290   0.44110   0.30860   0.01267  Uiso   1.00
C20    C     0.73570   0.49129   0.46018   0.01267  Uiso   1.00
C21    C     0.66840   0.92940   0.64380   0.01267  Uiso   1.00
C22    C     0.88370   0.00518   0.82736   0.01267  Uiso   1.00
C23    C     0.91730   0.91981   0.65262   0.01267  Uiso   1.00
C24    C     0.90700   0.30245   0.83110   0.01267  Uiso   1.00
C25    C     0.70970   0.23168   0.64036   0.01267  Uiso   1.00
C26    C     0.92080   0.21951   0.62502   0.01267  Uiso   1.00
C27    C     0.57930   0.86690   0.30900   0.01267  Uiso   1.00
C28    C     0.66150   0.82870   0.25380   0.01267  Uiso   1.00
C29    C     0.78290   0.86750   0.30860   0.01267  Uiso   1.00
C30    C     0.73570   0.96889   0.46018   0.01267  Uiso   1.00
C31    C     0.33160   0.28560   0.35620   0.01267  Uiso   1.00
C32    C     0.11630   0.17782   0.17264   0.01267  Uiso   1.00
C33    C     0.08270   0.26719   0.34738   0.01267  Uiso   1.00
C34    C     0.09300   0.47135   0.16890   0.01267  Uiso   1.00
C35    C     0.29030   0.59132   0.35964   0.01267  Uiso   1.00
C36    C     0.07920   0.59449   0.37498   0.01267  Uiso   1.00
C37    C     0.42070   0.55790   0.69100   0.01267  Uiso   1.00
C38    C     0.33850   0.57490   0.74620   0.01267  Uiso   1.00
C39    C     0.21710   0.55890   0.69140   0.01267  Uiso   1.00
C40    C     0.26430   0.50871   0.53982   0.01267  Uiso   1.00
C41    C     0.31580   0.09900   0.19800   0.01267  Uiso   1.00
C42    C     0.25730   0.23630   0.47260   0.01267  Uiso   1.00
C43    C     0.68420   0.90100   0.80200   0.01267  Uiso   1.00
C44    C     0.74270   0.76370   0.52740   0.01267  Uiso   1.00
C45    C     0.26650   0.59280   0.18560   0.01267  Uiso   1.00
C46    C     0.94270   0.60550   0.21100   0.01267  Uiso   1.00
C47    C     0.73350   0.40720   0.81440   0.01267  Uiso   1.00
C48    C     0.05730   0.39450   0.78900   0.01267  Uiso   1.00
N1     N     0.40000   0.03378   0.39336   0.01267  Uiso   1.00
N2     N     0.07300   0.91168   0.10576   0.01267  Uiso   1.00
N3     N     0.02750   0.04018   0.37416   0.01267  Uiso   1.00
N4     N     0.06480   0.72506   0.10952   0.01267  Uiso   1.00
N5     N     0.36850   0.83664   0.40268   0.01267  Uiso   1.00
N6     N     0.04740   0.85765   0.42210   0.01267  Uiso   1.00
N7     N     0.38330   0.06306   0.58752   0.01267  Uiso   1.00
N8     N     0.17890   0.06226   0.58772   0.01267  Uiso   1.00
N9     N     0.60000   0.64042   0.60664   0.01267  Uiso   1.00
N10    N     0.92700   0.80592   0.89424   0.01267  Uiso   1.00
N11    N     0.97250   0.66602   0.62584   0.01267  Uiso   1.00
N12    N     0.93520   0.61554   0.89048   0.01267  Uiso   1.00
N13    N     0.63150   0.43396   0.59732   0.01267  Uiso   1.00
N14    N     0.95260   0.43555   0.57790   0.01267  Uiso   1.00
N15    N     0.61670   0.47554   0.41248   0.01267  Uiso   1.00
N16    N     0.82110   0.47454   0.41228   0.01267  Uiso   1.00
N17    N     0.60000   0.96622   0.60664   0.01267  Uiso   1.00
N18    N     0.92700   0.08832   0.89424   0.01267  Uiso   1.00
N19    N     0.97250   0.95982   0.62584   0.01267  Uiso   1.00
N20    N     0.93520   0.27494   0.89048   0.01267  Uiso   1.00
N21    N     0.63150   0.16336   0.59732   0.01267  Uiso   1.00
N22    N     0.95260   0.14235   0.57790   0.01267  Uiso   1.00
N23    N     0.61670   0.93694   0.41248   0.01267  Uiso   1.00
N24    N     0.82110   0.93774   0.41228   0.01267  Uiso   1.00
N25    N     0.40000   0.35958   0.39336   0.01267  Uiso   1.00
N26    N     0.07300   0.19408   0.10576   0.01267  Uiso   1.00
N27    N     0.02750   0.33398   0.37416   0.01267  Uiso   1.00
N28    N     0.06480   0.38446   0.10952   0.01267  Uiso   1.00
N29    N     0.36850   0.56604   0.40268   0.01267  Uiso   1.00
N30    N     0.04740   0.56445   0.42210   0.01267  Uiso   1.00
N31    N     0.38330   0.52446   0.58752   0.01267  Uiso   1.00
N32    N     0.17890   0.52546   0.58772   0.01267  Uiso   1.00
N33    N     0.37610   0.07340   0.14680   0.01267  Uiso   1.00
N34    N     0.28770   0.28200   0.56400   0.01267  Uiso   1.00
N35    N     0.62390   0.92660   0.85320   0.01267  Uiso   1.00
N36    N     0.71230   0.71800   0.43600   0.01267  Uiso   1.00
N37    N     0.33250   0.56840   0.13680   0.01267  Uiso   1.00
N38    N     0.83980   0.58780   0.17560   0.01267  Uiso   1.00
N39    N     0.66750   0.43160   0.86320   0.01267  Uiso   1.00
N40    N     0.16020   0.41220   0.82440   0.01267  Uiso   1.00
