data_NIVNUC_clean
_audit_creation_date              2014-07-02
_audit_creation_method            'Materials Studio'
_symmetry_space_group_name_H-M    'P1'
_symmetry_Int_Tables_number       1
_symmetry_cell_setting            triclinic
loop_
_symmetry_equiv_pos_as_xyz
  x,y,z
_cell_length_a                    11.5160
_cell_length_b                    14.7776
_cell_length_c                    15.2749
_cell_angle_alpha                 118.9290
_cell_angle_beta                  106.2920
_cell_angle_gamma                 90.0000
loop_
_atom_site_label
_atom_site_type_symbol
_atom_site_fract_x
_atom_site_fract_y
_atom_site_fract_z
_atom_site_U_iso_or_equiv
_atom_site_adp_type
_atom_site_occupancy
Cu1    Cu    0.50000   0.50000   0.50000   0.01267  Uiso   1.00
Cu2    Cu    0.50000   1.00000   0.50000   0.01267  Uiso   1.00
Cu3    Cu    0.00000   0.50000   0.50000   0.01267  Uiso   1.00
Cu4    Cu    0.00000   1.00000   0.50000   0.01267  Uiso   1.00
Cu5    Cu    0.00000   0.26424   0.00000   0.01267  Uiso   1.00
Cu6    Cu    0.00000   0.73576  -0.00000   0.01267  Uiso   1.00
H1     H     0.50600   0.65740   0.72540   0.01267  Uiso   1.00
H2     H     0.36690   0.71860   0.81740   0.01267  Uiso   1.00
H3     H     0.16090   0.65390   0.72620   0.01267  Uiso   1.00
H4     H     0.23730   0.48540   0.46800   0.01267  Uiso   1.00
H5     H     0.49400   0.93200   0.27460   0.01267  Uiso   1.00
H6     H     0.63310   0.90120   0.18260   0.01267  Uiso   1.00
H7     H     0.83910   0.92770   0.27380   0.01267  Uiso   1.00
H8     H     0.76270   0.01740   0.53200   0.01267  Uiso   1.00
H9     H     0.49400   0.34260   0.27460   0.01267  Uiso   1.00
H10    H     0.63310   0.28140   0.18260   0.01267  Uiso   1.00
H11    H     0.83910   0.34610   0.27380   0.01267  Uiso   1.00
H12    H     0.76270   0.51460   0.53200   0.01267  Uiso   1.00
H13    H     0.50600   0.06800   0.72540   0.01267  Uiso   1.00
H14    H     0.36690   0.09880   0.81740   0.01267  Uiso   1.00
H15    H     0.16090   0.07230   0.72620   0.01267  Uiso   1.00
H16    H     0.23730   0.98260   0.46800   0.01267  Uiso   1.00
W1     W     0.19848   0.65051   0.30102   0.01267  Uiso   1.00
W2     W     0.80152   0.34949   0.69898   0.01267  Uiso   1.00
W3     W     0.14018   0.13842   0.27684   0.01267  Uiso   1.00
W4     W     0.85982   0.86158   0.72316   0.01267  Uiso   1.00
C1     C     0.33020   0.57058   0.35696   0.01267  Uiso   1.00
C2     C     0.11420   0.49496   0.17292   0.01267  Uiso   1.00
C3     C     0.08070   0.57975   0.34710   0.01267  Uiso   1.00
C4     C     0.08960   0.19655   0.16810   0.01267  Uiso   1.00
C5     C     0.28880   0.26831   0.35902   0.01267  Uiso   1.00
C6     C     0.07800   0.28045   0.37410   0.01267  Uiso   1.00
C7     C     0.42260   0.63316   0.69012   0.01267  Uiso   1.00
C8     C     0.34030   0.66974   0.74548   0.01267  Uiso   1.00
C9     C     0.21800   0.63137   0.69074   0.01267  Uiso   1.00
C10    C     0.26430   0.53248   0.54036   0.01267  Uiso   1.00
C11    C     0.66980   0.21362   0.64304   0.01267  Uiso   1.00
C12    C     0.88580   0.32204   0.82708   0.01267  Uiso   1.00
C13    C     0.91930   0.23265   0.65290   0.01267  Uiso   1.00
C14    C     0.91040   0.02845   0.83190   0.01267  Uiso   1.00
C15    C     0.71120   0.90929   0.64098   0.01267  Uiso   1.00
C16    C     0.92200   0.90635   0.62590   0.01267  Uiso   1.00
C17    C     0.57740   0.94304   0.30988   0.01267  Uiso   1.00
C18    C     0.65970   0.92426   0.25452   0.01267  Uiso   1.00
C19    C     0.78200   0.94063   0.30926   0.01267  Uiso   1.00
C20    C     0.73570   0.99212   0.45964   0.01267  Uiso   1.00
C21    C     0.66980   0.42942   0.64304   0.01267  Uiso   1.00
C22    C     0.88580   0.50504   0.82708   0.01267  Uiso   1.00
C23    C     0.91930   0.42025   0.65290   0.01267  Uiso   1.00
C24    C     0.91040   0.80345   0.83190   0.01267  Uiso   1.00
C25    C     0.71120   0.73169   0.64098   0.01267  Uiso   1.00
C26    C     0.92200   0.71955   0.62590   0.01267  Uiso   1.00
C27    C     0.57740   0.36684   0.30988   0.01267  Uiso   1.00
C28    C     0.65970   0.33026   0.25452   0.01267  Uiso   1.00
C29    C     0.78200   0.36863   0.30926   0.01267  Uiso   1.00
C30    C     0.73570   0.46752   0.45964   0.01267  Uiso   1.00
C31    C     0.33020   0.78638   0.35696   0.01267  Uiso   1.00
C32    C     0.11420   0.67796   0.17292   0.01267  Uiso   1.00
C33    C     0.08070   0.76735   0.34710   0.01267  Uiso   1.00
C34    C     0.08960   0.97155   0.16810   0.01267  Uiso   1.00
C35    C     0.28880   0.09071   0.35902   0.01267  Uiso   1.00
C36    C     0.07800   0.09365   0.37410   0.01267  Uiso   1.00
C37    C     0.42260   0.05696   0.69012   0.01267  Uiso   1.00
C38    C     0.34030   0.07574   0.74548   0.01267  Uiso   1.00
C39    C     0.21800   0.05937   0.69074   0.01267  Uiso   1.00
C40    C     0.26430   0.00788   0.54036   0.01267  Uiso   1.00
C41    C     0.31140   0.59980   0.19960   0.01267  Uiso   1.00
C42    C     0.25600   0.73600   0.47200   0.01267  Uiso   1.00
C43    C     0.68860   0.40020   0.80040   0.01267  Uiso   1.00
C44    C     0.74400   0.26400   0.52800   0.01267  Uiso   1.00
C45    C     0.26470   0.09280   0.18560   0.01267  Uiso   1.00
C46    C     0.94210   0.10570   0.21140   0.01267  Uiso   1.00
C47    C     0.73530   0.90720   0.81440   0.01267  Uiso   1.00
C48    C     0.05790   0.89430   0.78860   0.01267  Uiso   1.00
N1     N     0.39980   0.53419   0.39372   0.01267  Uiso   1.00
N2     N     0.07100   0.41179   0.10698   0.01267  Uiso   1.00
N3     N     0.02530   0.53946   0.37332   0.01267  Uiso   1.00
N4     N     0.06150   0.22396   0.10872   0.01267  Uiso   1.00
N5     N     0.36770   0.33739   0.40238   0.01267  Uiso   1.00
N6     N     0.04750   0.35798   0.42230   0.01267  Uiso   1.00
N7     N     0.38460   0.56387   0.58754   0.01267  Uiso   1.00
N8     N     0.18000   0.56259   0.58780   0.01267  Uiso   1.00
N9     N     0.60020   0.14047   0.60628   0.01267  Uiso   1.00
N10    N     0.92900   0.30481   0.89302   0.01267  Uiso   1.00
N11    N     0.97470   0.16614   0.62668   0.01267  Uiso   1.00
N12    N     0.93850   0.11524   0.89128   0.01267  Uiso   1.00
N13    N     0.63230   0.93501   0.59762   0.01267  Uiso   1.00
N14    N     0.95250   0.93568   0.57770   0.01267  Uiso   1.00
N15    N     0.61540   0.97633   0.41246   0.01267  Uiso   1.00
N16    N     0.82000   0.97479   0.41220   0.01267  Uiso   1.00
N17    N     0.60020   0.46581   0.60628   0.01267  Uiso   1.00
N18    N     0.92900   0.58821   0.89302   0.01267  Uiso   1.00
N19    N     0.97470   0.46054   0.62668   0.01267  Uiso   1.00
N20    N     0.93850   0.77604   0.89128   0.01267  Uiso   1.00
N21    N     0.63230   0.66261   0.59762   0.01267  Uiso   1.00
N22    N     0.95250   0.64202   0.57770   0.01267  Uiso   1.00
N23    N     0.61540   0.43613   0.41246   0.01267  Uiso   1.00
N24    N     0.82000   0.43741   0.41220   0.01267  Uiso   1.00
N25    N     0.39980   0.85953   0.39372   0.01267  Uiso   1.00
N26    N     0.07100   0.69519   0.10698   0.01267  Uiso   1.00
N27    N     0.02530   0.83386   0.37332   0.01267  Uiso   1.00
N28    N     0.06150   0.88476   0.10872   0.01267  Uiso   1.00
N29    N     0.36770   0.06499   0.40238   0.01267  Uiso   1.00
N30    N     0.04750   0.06432   0.42230   0.01267  Uiso   1.00
N31    N     0.38460   0.02367   0.58754   0.01267  Uiso   1.00
N32    N     0.18000   0.02521   0.58780   0.01267  Uiso   1.00
N33    N     0.36930   0.57250   0.14500   0.01267  Uiso   1.00
N34    N     0.28710   0.78118   0.56236   0.01267  Uiso   1.00
N35    N     0.63070   0.42750   0.85500   0.01267  Uiso   1.00
N36    N     0.71290   0.21882   0.43764   0.01267  Uiso   1.00
N37    N     0.33240   0.06970   0.13940   0.01267  Uiso   1.00
N38    N     0.83730   0.08890   0.17780   0.01267  Uiso   1.00
N39    N     0.66760   0.93030   0.86060   0.01267  Uiso   1.00
N40    N     0.16270   0.91110   0.82220   0.01267  Uiso   1.00
