data_image0
_cell_length_a       14.5056
_cell_length_b       14.8981
_cell_length_c       22.9934
_cell_angle_alpha    90.534
_cell_angle_beta     92.844
_cell_angle_gamma    104.153

_symmetry_space_group_name_H-M    "P 1"
_symmetry_int_tables_number       1

loop_
  _symmetry_equiv_pos_as_xyz
  'x, y, z'

loop_
  _atom_site_label
  _atom_site_occupancy
  _atom_site_fract_x
  _atom_site_fract_y
  _atom_site_fract_z
  _atom_site_thermal_displace_type
  _atom_site_B_iso_or_equiv
  _atom_site_type_symbol
  Ag1      1.0000 0.26030  0.88730  0.23502  Biso   1.000  Ag
  Ag2      1.0000 0.92956  0.59066  0.92829  Biso   1.000  Ag
  Ag3      1.0000 0.51726  0.37814  0.99770  Biso   1.000  Ag
  C1       1.0000 0.89900  0.49600  0.61700  Biso   1.000  C
  H1       1.0000 0.95030  0.49660  0.64320  Biso   1.000  H
  C2       1.0000 0.81800  0.52900  0.54770  Biso   1.000  C
  H2       1.0000 0.79850  0.54350  0.51050  Biso   1.000  H
  C3       1.0000 0.76900  0.44800  0.68640  Biso   1.000  C
  H3       1.0000 0.70040  0.44100  0.68610  Biso   1.000  H
  H4       1.0000 0.78010  0.38640  0.69030  Biso   1.000  H
  C4       1.0000 0.81500  0.50600  0.73690  Biso   1.000  C
  H5       1.0000 0.87840  0.49690  0.74200  Biso   1.000  H
  H6       1.0000 0.82160  0.56970  0.72540  Biso   1.000  H
  C5       1.0000 0.77910  0.49960  0.78990  Biso   1.000  C
  H7       1.0000 0.71100  0.49240  0.78430  Biso   1.000  H
  H8       1.0000 0.80480  0.55880  0.80980  Biso   1.000  H
  C6       1.0000 0.79420  0.42510  0.83120  Biso   1.000  C
  H9       1.0000 0.76870  0.36460  0.81290  Biso   1.000  H
  H10      1.0000 0.86190  0.43250  0.83970  Biso   1.000  H
  C7       1.0000 0.71810  0.49340  0.96410  Biso   1.000  C
  H11      1.0000 0.72120  0.53230  0.99640  Biso   1.000  H
  C8       1.0000 0.66440  0.38670  0.90080  Biso   1.000  C
  H12      1.0000 0.62460  0.33620  0.88090  Biso   1.000  H
  C9       1.0000 0.36300  0.22000  0.04660  Biso   1.000  C
  H13      1.0000 0.34430  0.19750  0.00900  Biso   1.000  H
  C10      1.0000 0.42820  0.30680  0.11310  Biso   1.000  C
  H14      1.0000 0.46650  0.35710  0.13410  Biso   1.000  H
  C11      1.0000 0.36720  0.20830  0.19870  Biso   1.000  C
  H15      1.0000 0.39710  0.26250  0.22270  Biso   1.000  H
  H16      1.0000 0.39970  0.16020  0.20800  Biso   1.000  H
  C12      1.0000 0.26250  0.17520  0.21280  Biso   1.000  C
  H17      1.0000 0.23010  0.12800  0.18440  Biso   1.000  H
  H18      1.0000 0.25840  0.14760  0.25090  Biso   1.000  H
  C13      1.0000 0.21440  0.25290  0.21220  Biso   1.000  C
  H19      1.0000 0.22730  0.28510  0.24960  Biso   1.000  H
  H20      1.0000 0.24170  0.29630  0.18280  Biso   1.000  H
  C14      1.0000 0.10950  0.22370  0.20010  Biso   1.000  C
  H21      1.0000 0.08270  0.17340  0.22550  Biso   1.000  H
  H22      1.0000 0.08200  0.27510  0.20890  Biso   1.000  H
  C15      1.0000 0.08060  0.20100  0.04970  Biso   1.000  C
  H23      1.0000 0.08520  0.22330  0.01200  Biso   1.000  H
  C16      1.0000 0.04900  0.11400  0.11820  Biso   1.000  C
  H24      1.0000 0.02610  0.06200  0.14040  Biso   1.000  H
  C17      1.0000 0.14480  0.87000  0.11720  Biso   1.000  C
  H25      1.0000 0.08900  0.83890  0.13380  Biso   1.000  H
  C18      1.0000 0.29300  0.93400  0.10670  Biso   1.000  C
  H26      1.0000 0.35900  0.95470  0.11210  Biso   1.000  H
  C19      1.0000 0.28700  0.98200  0.00330  Biso   1.000  C
  H27      1.0000 0.25030  0.02380  0.98870  Biso   1.000  H
  H28      1.0000 0.35100  0.01850  0.01350  Biso   1.000  H
  C20      1.0000 0.29200  0.92200  0.95920  Biso   1.000  C
  H29      1.0000 0.31150  0.95770  0.92490  Biso   1.000  H
  H30      1.0000 0.22920  0.88280  0.95040  Biso   1.000  H
  C21      1.0000 0.36070  0.85900  0.97030  Biso   1.000  C
  H31      1.0000 0.36720  0.84860  0.01170  Biso   1.000  H
  H32      1.0000 0.42300  0.88900  0.95700  Biso   1.000  H
  C22      1.0000 0.31980  0.76540  0.93650  Biso   1.000  C
  H33      1.0000 0.31640  0.77720  0.89520  Biso   1.000  H
  H34      1.0000 0.36330  0.72600  0.94310  Biso   1.000  H
  C23      1.0000 0.14550  0.68900  0.92150  Biso   1.000  C
  H35      1.0000 0.13930  0.69560  0.88140  Biso   1.000  H
  C24      1.0000 0.12110  0.65300  0.00840  Biso   1.000  C
  H36      1.0000 0.09130  0.62450  0.04070  Biso   1.000  H
  C25      1.0000 0.35330  0.92920  0.36150  Biso   1.000  C
  H37      1.0000 0.41550  0.93600  0.35060  Biso   1.000  H
  C26      1.0000 0.20600  0.90100  0.35820  Biso   1.000  C
  H38      1.0000 0.14320  0.88030  0.34410  Biso   1.000  H
  C27      1.0000 0.37800  0.95100  0.47180  Biso   1.000  C
  H39      1.0000 0.34910  0.98930  0.49590  Biso   1.000  H
  H40      1.0000 0.37170  0.89230  0.49120  Biso   1.000  H
  C28      1.0000 0.47630  0.99400  0.47050  Biso   1.000  C
  H41      1.0000 0.48410  0.05430  0.45300  Biso   1.000  H
  H42      1.0000 0.50650  0.95700  0.44650  Biso   1.000  H
  N1       1.0000 0.89470  0.50410  0.55640  Biso   1.000  N
  N2       1.0000 0.80600  0.48800  0.62750  Biso   1.000  N
  N3       1.0000 0.76600  0.53200  0.59150  Biso   1.000  N
  N4       1.0000 0.64520  0.42280  0.94880  Biso   1.000  N
  N5       1.0000 0.78940  0.50070  0.92450  Biso   1.000  N
  N6       1.0000 0.74770  0.43130  0.88450  Biso   1.000  N
  N7       1.0000 0.41720  0.30070  0.05730  Biso   1.000  N
  N8       1.0000 0.33470  0.17060  0.09560  Biso   1.000  N
  N9       1.0000 0.37740  0.23170  0.13630  Biso   1.000  N
  N10      1.0000 0.08460  0.19430  0.14110  Biso   1.000  N
  N11      1.0000 0.10400  0.25510  0.09510  Biso   1.000  N
  N12      1.0000 0.04820  0.10900  0.06090  Biso   1.000  N
  N13      1.0000 0.15340  0.89900  0.06070  Biso   1.000  N
  N14      1.0000 0.24400  0.94030  0.05820  Biso   1.000  N
  N15      1.0000 0.23720  0.89680  0.14570  Biso   1.000  N
  N16      1.0000 0.22480  0.71600  0.95390  Biso   1.000  N
  N17      1.0000 0.21100  0.69700  0.00940  Biso   1.000  N
  N18      1.0000 0.07610  0.65250  0.95550  Biso   1.000  N
  N19      1.0000 0.27500  0.91380  0.32660  Biso   1.000  N
  N20      1.0000 0.23260  0.92100  0.41710  Biso   1.000  N
  N21      1.0000 0.32340  0.93300  0.41780  Biso   1.000  N
  Ag4      1.0000 0.03760  0.96680  0.00860  Biso   1.000  Ag
  Ag5      1.0000 0.73970  0.11270  0.76498  Biso   1.000  Ag
  Ag6      1.0000 0.07044  0.40934  0.07171  Biso   1.000  Ag
  Ag7      1.0000 0.48274  0.62186  0.00230  Biso   1.000  Ag
  C29      1.0000 0.10100  0.50400  0.38300  Biso   1.000  C
  H43      1.0000 0.04970  0.50340  0.35680  Biso   1.000  H
  C30      1.0000 0.18200  0.47100  0.45230  Biso   1.000  C
  H44      1.0000 0.20150  0.45650  0.48950  Biso   1.000  H
  C31      1.0000 0.23100  0.55200  0.31360  Biso   1.000  C
  H45      1.0000 0.29960  0.55900  0.31390  Biso   1.000  H
  H46      1.0000 0.21990  0.61360  0.30970  Biso   1.000  H
  C32      1.0000 0.18500  0.49400  0.26310  Biso   1.000  C
  H47      1.0000 0.12160  0.50310  0.25800  Biso   1.000  H
  H48      1.0000 0.17840  0.43030  0.27460  Biso   1.000  H
  C33      1.0000 0.22090  0.50040  0.21010  Biso   1.000  C
  H49      1.0000 0.28900  0.50760  0.21570  Biso   1.000  H
  H50      1.0000 0.19520  0.44120  0.19020  Biso   1.000  H
  C34      1.0000 0.20580  0.57490  0.16880  Biso   1.000  C
  H51      1.0000 0.23130  0.63540  0.18710  Biso   1.000  H
  H52      1.0000 0.13810  0.56750  0.16030  Biso   1.000  H
  C35      1.0000 0.28190  0.50660  0.03590  Biso   1.000  C
  H53      1.0000 0.27880  0.46770  0.00360  Biso   1.000  H
  C36      1.0000 0.33560  0.61330  0.09920  Biso   1.000  C
  H54      1.0000 0.37540  0.66380  0.11910  Biso   1.000  H
  C37      1.0000 0.63700  0.78000  0.95340  Biso   1.000  C
  H55      1.0000 0.65570  0.80250  0.99100  Biso   1.000  H
  C38      1.0000 0.57180  0.69320  0.88690  Biso   1.000  C
  H56      1.0000 0.53350  0.64290  0.86590  Biso   1.000  H
  C39      1.0000 0.63280  0.79170  0.80130  Biso   1.000  C
  H57      1.0000 0.60290  0.73750  0.77730  Biso   1.000  H
  H58      1.0000 0.60030  0.83980  0.79200  Biso   1.000  H
  C40      1.0000 0.73750  0.82480  0.78720  Biso   1.000  C
  H59      1.0000 0.76990  0.87200  0.81560  Biso   1.000  H
  H60      1.0000 0.74160  0.85240  0.74910  Biso   1.000  H
  C41      1.0000 0.78560  0.74710  0.78780  Biso   1.000  C
  H61      1.0000 0.77270  0.71490  0.75040  Biso   1.000  H
  H62      1.0000 0.75830  0.70370  0.81720  Biso   1.000  H
  C42      1.0000 0.89050  0.77630  0.79990  Biso   1.000  C
  H63      1.0000 0.91730  0.82660  0.77450  Biso   1.000  H
  H64      1.0000 0.91800  0.72490  0.79110  Biso   1.000  H
  C43      1.0000 0.91940  0.79900  0.95030  Biso   1.000  C
  H65      1.0000 0.91480  0.77670  0.98800  Biso   1.000  H
  C44      1.0000 0.95100  0.88600  0.88180  Biso   1.000  C
  H66      1.0000 0.97390  0.93800  0.85960  Biso   1.000  H
  C45      1.0000 0.85520  0.13000  0.88280  Biso   1.000  C
  H67      1.0000 0.91100  0.16110  0.86620  Biso   1.000  H
  C46      1.0000 0.70700  0.06600  0.89330  Biso   1.000  C
  H68      1.0000 0.64100  0.04530  0.88790  Biso   1.000  H
  C47      1.0000 0.71300  0.01800  0.99670  Biso   1.000  C
  H69      1.0000 0.74970  0.97620  0.01130  Biso   1.000  H
  H70      1.0000 0.64900  0.98150  0.98650  Biso   1.000  H
  C48      1.0000 0.70800  0.07800  0.04080  Biso   1.000  C
  H71      1.0000 0.68850  0.04230  0.07510  Biso   1.000  H
  H72      1.0000 0.77080  0.11720  0.04960  Biso   1.000  H
  C49      1.0000 0.63930  0.14100  0.02970  Biso   1.000  C
  H73      1.0000 0.63280  0.15140  0.98830  Biso   1.000  H
  H74      1.0000 0.57700  0.11100  0.04300  Biso   1.000  H
  C50      1.0000 0.68020  0.23460  0.06350  Biso   1.000  C
  H75      1.0000 0.68360  0.22280  0.10480  Biso   1.000  H
  H76      1.0000 0.63670  0.27400  0.05690  Biso   1.000  H
  C51      1.0000 0.85450  0.31100  0.07850  Biso   1.000  C
  H77      1.0000 0.86070  0.30440  0.11860  Biso   1.000  H
  C52      1.0000 0.87890  0.34700  0.99160  Biso   1.000  C
  H78      1.0000 0.90870  0.37550  0.95930  Biso   1.000  H
  C53      1.0000 0.64670  0.07080  0.63850  Biso   1.000  C
  H79      1.0000 0.58450  0.06400  0.64940  Biso   1.000  H
  C54      1.0000 0.79400  0.09900  0.64180  Biso   1.000  C
  H80      1.0000 0.85680  0.11970  0.65590  Biso   1.000  H
  C55      1.0000 0.62200  0.04900  0.52820  Biso   1.000  C
  H81      1.0000 0.65090  0.01070  0.50410  Biso   1.000  H
  H82      1.0000 0.62830  0.10770  0.50880  Biso   1.000  H
  C56      1.0000 0.52370  0.00600  0.52950  Biso   1.000  C
  H83      1.0000 0.51590  0.94570  0.54700  Biso   1.000  H
  H84      1.0000 0.49350  0.04300  0.55350  Biso   1.000  H
  N22      1.0000 0.10530  0.49590  0.44360  Biso   1.000  N
  N23      1.0000 0.19400  0.51200  0.37250  Biso   1.000  N
  N24      1.0000 0.23400  0.46800  0.40850  Biso   1.000  N
  N25      1.0000 0.35480  0.57720  0.05120  Biso   1.000  N
  N26      1.0000 0.21060  0.49930  0.07550  Biso   1.000  N
  N27      1.0000 0.25230  0.56870  0.11550  Biso   1.000  N
  N28      1.0000 0.58280  0.69930  0.94270  Biso   1.000  N
  N29      1.0000 0.66530  0.82940  0.90440  Biso   1.000  N
  N30      1.0000 0.62260  0.76830  0.86370  Biso   1.000  N
  N31      1.0000 0.91540  0.80570  0.85890  Biso   1.000  N
  N32      1.0000 0.89600  0.74490  0.90490  Biso   1.000  N
  N33      1.0000 0.95180  0.89100  0.93910  Biso   1.000  N
  N34      1.0000 0.84660  0.10100  0.93930  Biso   1.000  N
  N35      1.0000 0.75600  0.05970  0.94180  Biso   1.000  N
  N36      1.0000 0.76280  0.10320  0.85430  Biso   1.000  N
  N37      1.0000 0.77520  0.28400  0.04610  Biso   1.000  N
  N38      1.0000 0.78900  0.30300  0.99060  Biso   1.000  N
  N39      1.0000 0.92390  0.34750  0.04450  Biso   1.000  N
  N40      1.0000 0.72500  0.08620  0.67340  Biso   1.000  N
  N41      1.0000 0.76740  0.07900  0.58290  Biso   1.000  N
  N42      1.0000 0.67660  0.06700  0.58220  Biso   1.000  N
  Ag8      1.0000 0.96240  0.03320  0.99140  Biso   1.000  Ag
  Ag9      1.0000 0.00000  0.00000  0.00000  Biso   1.000  Ag
  Ag10     1.0000 0.00000  0.50000  0.50000  Biso   1.000  Ag
