data_image0
_cell_length_a       7.2774
_cell_length_b       7.2774
_cell_length_c       8.2094
_cell_angle_alpha    90
_cell_angle_beta     90
_cell_angle_gamma    120

_symmetry_space_group_name_H-M    "P 1"
_symmetry_int_tables_number       1

loop_
  _symmetry_equiv_pos_as_xyz
  'x, y, z'

loop_
  _atom_site_label
  _atom_site_occupancy
  _atom_site_fract_x
  _atom_site_fract_y
  _atom_site_fract_z
  _atom_site_thermal_displace_type
  _atom_site_B_iso_or_equiv
  _atom_site_type_symbol
  O1       1.0000 0.89066  0.31033  0.89413  Biso   1.000  O
  O2       1.0000 0.68967  0.58033  0.89413  Biso   1.000  O
  O3       1.0000 0.41967  0.10934  0.89413  Biso   1.000  O
  O4       1.0000 0.10934  0.68967  0.39413  Biso   1.000  O
  O5       1.0000 0.31033  0.41967  0.39413  Biso   1.000  O
  O6       1.0000 0.58033  0.89066  0.39413  Biso   1.000  O
  O7       1.0000 0.31033  0.89066  0.10587  Biso   1.000  O
  O8       1.0000 0.58033  0.68967  0.10587  Biso   1.000  O
  O9       1.0000 0.10934  0.41967  0.10587  Biso   1.000  O
  O10      1.0000 0.68967  0.10934  0.60587  Biso   1.000  O
  O11      1.0000 0.41967  0.31033  0.60587  Biso   1.000  O
  O12      1.0000 0.89066  0.58033  0.60587  Biso   1.000  O
  Mg1      1.0000 0.66667  0.33333  0.75000  Biso   1.000  Mg
  Mg2      1.0000 0.33333  0.66667  0.25000  Biso   1.000  Mg
  C1       1.0000 0.00000  0.43950  0.00000  Biso   1.000  C
  H1       1.0000 0.00000  0.56730  0.00000  Biso   1.000  H
  C2       1.0000 0.56050  0.56050  0.00000  Biso   1.000  C
  H2       1.0000 0.43270  0.43270  0.00000  Biso   1.000  H
  C3       1.0000 0.43950  0.00000  0.00000  Biso   1.000  C
  H3       1.0000 0.56730  0.00000  0.00000  Biso   1.000  H
  C4       1.0000 0.00000  0.56050  0.50000  Biso   1.000  C
  H4       1.0000 0.00000  0.43270  0.50000  Biso   1.000  H
  C5       1.0000 0.43950  0.43950  0.50000  Biso   1.000  C
  H5       1.0000 0.56730  0.56730  0.50000  Biso   1.000  H
  C6       1.0000 0.56050  0.00000  0.50000  Biso   1.000  C
  H6       1.0000 0.43270  0.00000  0.50000  Biso   1.000  H
