data_image0
_cell_length_a       12.5693
_cell_length_b       12.5693
_cell_length_c       8.2216
_cell_angle_alpha    90
_cell_angle_beta     90
_cell_angle_gamma    120

_symmetry_space_group_name_H-M    "P 1"
_symmetry_int_tables_number       1

loop_
  _symmetry_equiv_pos_as_xyz
  'x, y, z'

loop_
  _atom_site_label
  _atom_site_occupancy
  _atom_site_fract_x
  _atom_site_fract_y
  _atom_site_fract_z
  _atom_site_thermal_displace_type
  _atom_site_B_iso_or_equiv
  _atom_site_type_symbol
  Mg1      1.0000 0.33431  0.33230  0.58747  Biso   1.000  Mg
  O1       1.0000 0.42331  0.26452  0.44207  Biso   1.000  O
  O2       1.0000 0.42420  0.15567  0.22998  Biso   1.000  O
  O3       1.0000 0.40028  0.48903  0.44095  Biso   1.000  O
  O4       1.0000 0.50766  0.59967  0.22888  Biso   1.000  O
  O5       1.0000 0.17606  0.24059  0.44463  Biso   1.000  O
  O6       1.0000 0.06923  0.24535  0.23241  Biso   1.000  O
  C1       1.0000 0.37303  0.18661  0.33390  Biso   1.000  C
  H1       1.0000 0.28680  0.14650  0.32980  Biso   1.000  H
  C2       1.0000 0.47645  0.51604  0.32990  Biso   1.000  C
  H2       1.0000 0.51440  0.46810  0.32150  Biso   1.000  H
  C3       1.0000 0.14338  0.29332  0.34660  Biso   1.000  C
  H3       1.0000 0.17820  0.37860  0.35960  Biso   1.000  H
  Mg2      1.0000 0.66770  0.00201  0.58747  Biso   1.000  Mg
  O7       1.0000 0.73548  0.15879  0.44207  Biso   1.000  O
  O8       1.0000 0.84433  0.26853  0.22998  Biso   1.000  O
  O9       1.0000 0.51097  0.91125  0.44095  Biso   1.000  O
  O10      1.0000 0.40033  0.90799  0.22888  Biso   1.000  O
  O11      1.0000 0.75941  0.93547  0.44463  Biso   1.000  O
  O12      1.0000 0.75465  0.82388  0.23241  Biso   1.000  O
  C4       1.0000 0.81339  0.18642  0.33390  Biso   1.000  C
  H4       1.0000 0.85350  0.14030  0.32980  Biso   1.000  H
  C5       1.0000 0.48396  0.96041  0.32990  Biso   1.000  C
  H5       1.0000 0.53190  0.04630  0.32150  Biso   1.000  H
  C6       1.0000 0.70668  0.85006  0.34660  Biso   1.000  C
  H6       1.0000 0.62140  0.79960  0.35960  Biso   1.000  H
  Mg3      1.0000 0.99799  0.66569  0.58747  Biso   1.000  Mg
  O13      1.0000 0.84121  0.57669  0.44207  Biso   1.000  O
  O14      1.0000 0.73147  0.57580  0.22998  Biso   1.000  O
  O15      1.0000 0.08875  0.59972  0.44095  Biso   1.000  O
  O16      1.0000 0.09201  0.49234  0.22888  Biso   1.000  O
  O17      1.0000 0.06453  0.82394  0.44463  Biso   1.000  O
  O18      1.0000 0.17612  0.93077  0.23241  Biso   1.000  O
  C7       1.0000 0.81358  0.62697  0.33390  Biso   1.000  C
  H7       1.0000 0.85970  0.71320  0.32980  Biso   1.000  H
  C8       1.0000 0.03959  0.52355  0.32990  Biso   1.000  C
  H8       1.0000 0.95370  0.48560  0.32150  Biso   1.000  H
  C9       1.0000 0.14994  0.85662  0.34660  Biso   1.000  C
  H9       1.0000 0.20040  0.82180  0.35960  Biso   1.000  H
  Mg4      1.0000 0.66569  0.66770  0.08747  Biso   1.000  Mg
  O19      1.0000 0.57669  0.73548  0.94207  Biso   1.000  O
  O20      1.0000 0.57580  0.84433  0.72998  Biso   1.000  O
  O21      1.0000 0.59972  0.51097  0.94095  Biso   1.000  O
  O22      1.0000 0.49234  0.40033  0.72888  Biso   1.000  O
  O23      1.0000 0.82394  0.75941  0.94463  Biso   1.000  O
  O24      1.0000 0.93077  0.75465  0.73241  Biso   1.000  O
  C10      1.0000 0.62697  0.81339  0.83390  Biso   1.000  C
  H10      1.0000 0.71320  0.85350  0.82980  Biso   1.000  H
  C11      1.0000 0.52355  0.48396  0.82990  Biso   1.000  C
  H11      1.0000 0.48560  0.53190  0.82150  Biso   1.000  H
  C12      1.0000 0.85662  0.70668  0.84660  Biso   1.000  C
  H12      1.0000 0.82180  0.62140  0.85960  Biso   1.000  H
  Mg5      1.0000 0.33230  0.99799  0.08747  Biso   1.000  Mg
  O25      1.0000 0.26452  0.84121  0.94207  Biso   1.000  O
  O26      1.0000 0.15567  0.73147  0.72998  Biso   1.000  O
  O27      1.0000 0.48903  0.08875  0.94095  Biso   1.000  O
  O28      1.0000 0.59967  0.09201  0.72888  Biso   1.000  O
  O29      1.0000 0.24059  0.06453  0.94463  Biso   1.000  O
  O30      1.0000 0.24535  0.17612  0.73241  Biso   1.000  O
  C13      1.0000 0.18661  0.81358  0.83390  Biso   1.000  C
  H13      1.0000 0.14650  0.85970  0.82980  Biso   1.000  H
  C14      1.0000 0.51604  0.03959  0.82990  Biso   1.000  C
  H14      1.0000 0.46810  0.95370  0.82150  Biso   1.000  H
  C15      1.0000 0.29332  0.14994  0.84660  Biso   1.000  C
  H15      1.0000 0.37860  0.20040  0.85960  Biso   1.000  H
  Mg6      1.0000 0.00201  0.33431  0.08747  Biso   1.000  Mg
  O31      1.0000 0.15879  0.42331  0.94207  Biso   1.000  O
  O32      1.0000 0.26853  0.42420  0.72998  Biso   1.000  O
  O33      1.0000 0.91125  0.40028  0.94095  Biso   1.000  O
  O34      1.0000 0.90799  0.50766  0.72888  Biso   1.000  O
  O35      1.0000 0.93547  0.17606  0.94463  Biso   1.000  O
  O36      1.0000 0.82388  0.06923  0.73241  Biso   1.000  O
  C16      1.0000 0.18642  0.37303  0.83390  Biso   1.000  C
  H16      1.0000 0.14030  0.28680  0.82980  Biso   1.000  H
  C17      1.0000 0.96041  0.47645  0.82990  Biso   1.000  C
  H17      1.0000 0.04630  0.51440  0.82150  Biso   1.000  H
  C18      1.0000 0.85006  0.14338  0.84660  Biso   1.000  C
  H18      1.0000 0.79960  0.17820  0.85960  Biso   1.000  H
