data_image0
_cell_length_a       12.572
_cell_length_b       12.572
_cell_length_c       8.2184
_cell_angle_alpha    90
_cell_angle_beta     90
_cell_angle_gamma    120

_symmetry_space_group_name_H-M    "P 1"
_symmetry_int_tables_number       1

loop_
  _symmetry_equiv_pos_as_xyz
  'x, y, z'

loop_
  _atom_site_label
  _atom_site_occupancy
  _atom_site_fract_x
  _atom_site_fract_y
  _atom_site_fract_z
  _atom_site_thermal_displace_type
  _atom_site_B_iso_or_equiv
  _atom_site_type_symbol
  Mg1      1.0000 0.33402  0.33274  0.58666  Biso   1.000  Mg
  O1       1.0000 0.42331  0.26519  0.44191  Biso   1.000  O
  O2       1.0000 0.42395  0.15618  0.22978  Biso   1.000  O
  O3       1.0000 0.40022  0.48946  0.44121  Biso   1.000  O
  O4       1.0000 0.50832  0.59961  0.22919  Biso   1.000  O
  O5       1.0000 0.17599  0.24136  0.44338  Biso   1.000  O
  O6       1.0000 0.06814  0.24438  0.23118  Biso   1.000  O
  C1       1.0000 0.37318  0.18678  0.33470  Biso   1.000  C
  H1       1.0000 0.28780  0.14600  0.33210  Biso   1.000  H
  C2       1.0000 0.47762  0.51740  0.33210  Biso   1.000  C
  H2       1.0000 0.51710  0.47160  0.32680  Biso   1.000  H
  C3       1.0000 0.14461  0.29339  0.34190  Biso   1.000  C
  H3       1.0000 0.18250  0.37840  0.34960  Biso   1.000  H
  Mg2      1.0000 0.66726  0.00128  0.58666  Biso   1.000  Mg
  O7       1.0000 0.73481  0.15812  0.44191  Biso   1.000  O
  O8       1.0000 0.84382  0.26777  0.22978  Biso   1.000  O
  O9       1.0000 0.51054  0.91076  0.44121  Biso   1.000  O
  O10      1.0000 0.40039  0.90871  0.22919  Biso   1.000  O
  O11      1.0000 0.75864  0.93463  0.44338  Biso   1.000  O
  O12      1.0000 0.75562  0.82376  0.23118  Biso   1.000  O
  C4       1.0000 0.81322  0.18640  0.33470  Biso   1.000  C
  H4       1.0000 0.85400  0.14180  0.33210  Biso   1.000  H
  C5       1.0000 0.48260  0.96022  0.33210  Biso   1.000  C
  H5       1.0000 0.52840  0.04550  0.32680  Biso   1.000  H
  C6       1.0000 0.70661  0.85122  0.34190  Biso   1.000  C
  H6       1.0000 0.62160  0.80410  0.34960  Biso   1.000  H
  Mg3      1.0000 0.99872  0.66598  0.58666  Biso   1.000  Mg
  O13      1.0000 0.84188  0.57669  0.44191  Biso   1.000  O
  O14      1.0000 0.73223  0.57605  0.22978  Biso   1.000  O
  O15      1.0000 0.08924  0.59978  0.44121  Biso   1.000  O
  O16      1.0000 0.09129  0.49168  0.22919  Biso   1.000  O
  O17      1.0000 0.06537  0.82401  0.44338  Biso   1.000  O
  O18      1.0000 0.17624  0.93186  0.23118  Biso   1.000  O
  C7       1.0000 0.81360  0.62682  0.33470  Biso   1.000  C
  H7       1.0000 0.85820  0.71220  0.33210  Biso   1.000  H
  C8       1.0000 0.03978  0.52238  0.33210  Biso   1.000  C
  H8       1.0000 0.95450  0.48290  0.32680  Biso   1.000  H
  C9       1.0000 0.14878  0.85539  0.34190  Biso   1.000  C
  H9       1.0000 0.19590  0.81750  0.34960  Biso   1.000  H
  Mg4      1.0000 0.66598  0.66726  0.08666  Biso   1.000  Mg
  O19      1.0000 0.57669  0.73481  0.94191  Biso   1.000  O
  O20      1.0000 0.57605  0.84382  0.72978  Biso   1.000  O
  O21      1.0000 0.59978  0.51054  0.94121  Biso   1.000  O
  O22      1.0000 0.49168  0.40039  0.72919  Biso   1.000  O
  O23      1.0000 0.82401  0.75864  0.94338  Biso   1.000  O
  O24      1.0000 0.93186  0.75562  0.73118  Biso   1.000  O
  C10      1.0000 0.62682  0.81322  0.83470  Biso   1.000  C
  H10      1.0000 0.71220  0.85400  0.83210  Biso   1.000  H
  C11      1.0000 0.52238  0.48260  0.83210  Biso   1.000  C
  H11      1.0000 0.48290  0.52840  0.82680  Biso   1.000  H
  C12      1.0000 0.85539  0.70661  0.84190  Biso   1.000  C
  H12      1.0000 0.81750  0.62160  0.84960  Biso   1.000  H
  Mg5      1.0000 0.33274  0.99872  0.08666  Biso   1.000  Mg
  O25      1.0000 0.26519  0.84188  0.94191  Biso   1.000  O
  O26      1.0000 0.15618  0.73223  0.72978  Biso   1.000  O
  O27      1.0000 0.48946  0.08924  0.94121  Biso   1.000  O
  O28      1.0000 0.59961  0.09129  0.72919  Biso   1.000  O
  O29      1.0000 0.24136  0.06537  0.94338  Biso   1.000  O
  O30      1.0000 0.24438  0.17624  0.73118  Biso   1.000  O
  C13      1.0000 0.18678  0.81360  0.83470  Biso   1.000  C
  H13      1.0000 0.14600  0.85820  0.83210  Biso   1.000  H
  C14      1.0000 0.51740  0.03978  0.83210  Biso   1.000  C
  H14      1.0000 0.47160  0.95450  0.82680  Biso   1.000  H
  C15      1.0000 0.29339  0.14878  0.84190  Biso   1.000  C
  H15      1.0000 0.37840  0.19590  0.84960  Biso   1.000  H
  Mg6      1.0000 0.00128  0.33402  0.08666  Biso   1.000  Mg
  O31      1.0000 0.15812  0.42331  0.94191  Biso   1.000  O
  O32      1.0000 0.26777  0.42395  0.72978  Biso   1.000  O
  O33      1.0000 0.91076  0.40022  0.94121  Biso   1.000  O
  O34      1.0000 0.90871  0.50832  0.72919  Biso   1.000  O
  O35      1.0000 0.93463  0.17599  0.94338  Biso   1.000  O
  O36      1.0000 0.82376  0.06814  0.73118  Biso   1.000  O
  C16      1.0000 0.18640  0.37318  0.83470  Biso   1.000  C
  H16      1.0000 0.14180  0.28780  0.83210  Biso   1.000  H
  C17      1.0000 0.96022  0.47762  0.83210  Biso   1.000  C
  H17      1.0000 0.04550  0.51710  0.82680  Biso   1.000  H
  C18      1.0000 0.85122  0.14461  0.84190  Biso   1.000  C
  H18      1.0000 0.80410  0.18250  0.84960  Biso   1.000  H
