data_image0
_cell_length_a       26.87
_cell_length_b       12.316
_cell_length_c       21.468
_cell_angle_alpha    90
_cell_angle_beta     90
_cell_angle_gamma    90

_symmetry_space_group_name_H-M    "P 1"
_symmetry_int_tables_number       1

loop_
  _symmetry_equiv_pos_as_xyz
  'x, y, z'

loop_
  _atom_site_label
  _atom_site_occupancy
  _atom_site_fract_x
  _atom_site_fract_y
  _atom_site_fract_z
  _atom_site_thermal_displace_type
  _atom_site_B_iso_or_equiv
  _atom_site_type_symbol
  Ag1      1.0000 0.77426  0.90506  0.24578  Biso   1.000  Ag
  S1       1.0000 0.55127  0.26610  0.31858  Biso   1.000  S
  S2       1.0000 0.55258  0.28850  0.18219  Biso   1.000  S
  S3       1.0000 0.56247  0.55140  0.19672  Biso   1.000  S
  S4       1.0000 0.56417  0.52810  0.33315  Biso   1.000  S
  S5       1.0000 0.58253  0.05390  0.16245  Biso   1.000  S
  S6       1.0000 0.58168  0.02790  0.31248  Biso   1.000  S
  S7       1.0000 0.59267  0.78800  0.20267  Biso   1.000  S
  S8       1.0000 0.59283  0.76000  0.35476  Biso   1.000  S
  F1       1.0000 0.49450  0.36240  0.45000  Biso   1.000  F
  O1       1.0000 0.52040  0.13170  0.44360  Biso   1.000  O
  N1       1.0000 0.71700  0.01280  0.19210  Biso   1.000  N
  N2       1.0000 0.69030  0.26670  0.30360  Biso   1.000  N
  N3       1.0000 0.69640  0.54840  0.20410  Biso   1.000  N
  N4       1.0000 0.72550  0.79410  0.30760  Biso   1.000  N
  C1       1.0000 0.55720  0.35410  0.25460  Biso   1.000  C
  C2       1.0000 0.57190  0.16320  0.21280  Biso   1.000  C
  C3       1.0000 0.57200  0.15340  0.27530  Biso   1.000  C
  C4       1.0000 0.56230  0.46310  0.26050  Biso   1.000  C
  C5       1.0000 0.58310  0.66390  0.24060  Biso   1.000  C
  C6       1.0000 0.58350  0.65300  0.30250  Biso   1.000  C
  C7       1.0000 0.62070  0.11290  0.10120  Biso   1.000  C
  C8       1.0000 0.67030  0.15610  0.12560  Biso   1.000  C
  C9       1.0000 0.69690  0.07590  0.16310  Biso   1.000  C
  C10      1.0000 0.62240  0.06110  0.37710  Biso   1.000  C
  C11      1.0000 0.67600  0.08140  0.35840  Biso   1.000  C
  C12      1.0000 0.68350  0.18590  0.32660  Biso   1.000  C
  C13      1.0000 0.62670  0.75060  0.13320  Biso   1.000  C
  C14      1.0000 0.68100  0.72610  0.14230  Biso   1.000  C
  C15      1.0000 0.68980  0.62510  0.17760  Biso   1.000  C
  C16      1.0000 0.63560  0.70120  0.41030  Biso   1.000  C
  C17      1.0000 0.68310  0.65670  0.38130  Biso   1.000  C
  C18      1.0000 0.70730  0.73510  0.34050  Biso   1.000  C
  H1       1.0000 0.62720  0.05870  0.07070  Biso   1.000  H
  H2       1.0000 0.60280  0.17100  0.08260  Biso   1.000  H
  H3       1.0000 0.69050  0.17590  0.09110  Biso   1.000  H
  H4       1.0000 0.66400  0.21840  0.15050  Biso   1.000  H
  H5       1.0000 0.61010  0.12470  0.39680  Biso   1.000  H
  H6       1.0000 0.62180  0.00240  0.40580  Biso   1.000  H
  H7       1.0000 0.69600  0.08030  0.39490  Biso   1.000  H
  H8       1.0000 0.68620  0.02480  0.33120  Biso   1.000  H
  H9       1.0000 0.61140  0.68770  0.11610  Biso   1.000  H
  H10      1.0000 0.62410  0.80890  0.10440  Biso   1.000  H
  H11      1.0000 0.69630  0.71940  0.10260  Biso   1.000  H
  H12      1.0000 0.69580  0.78480  0.16430  Biso   1.000  H
  H13      1.0000 0.64450  0.75560  0.43960  Biso   1.000  H
  H14      1.0000 0.61910  0.64350  0.43110  Biso   1.000  H
  H15      1.0000 0.70560  0.63770  0.41380  Biso   1.000  H
  H16      1.0000 0.67510  0.59370  0.35780  Biso   1.000  H
  Ag2      1.0000 0.22574  0.09494  0.24578  Biso   1.000  Ag
  S9       1.0000 0.44873  0.73390  0.31858  Biso   1.000  S
  S10      1.0000 0.44742  0.71150  0.18219  Biso   1.000  S
  S11      1.0000 0.43753  0.44860  0.19672  Biso   1.000  S
  S12      1.0000 0.43583  0.47190  0.33315  Biso   1.000  S
  S13      1.0000 0.41747  0.94610  0.16245  Biso   1.000  S
  S14      1.0000 0.41832  0.97210  0.31248  Biso   1.000  S
  S15      1.0000 0.40733  0.21200  0.20267  Biso   1.000  S
  S16      1.0000 0.40717  0.24000  0.35476  Biso   1.000  S
  F2       1.0000 0.50550  0.63760  0.45000  Biso   1.000  F
  O2       1.0000 0.47960  0.86830  0.44360  Biso   1.000  O
  N5       1.0000 0.28300  0.98720  0.19210  Biso   1.000  N
  N6       1.0000 0.30970  0.73330  0.30360  Biso   1.000  N
  N7       1.0000 0.30360  0.45160  0.20410  Biso   1.000  N
  N8       1.0000 0.27450  0.20590  0.30760  Biso   1.000  N
  C19      1.0000 0.44280  0.64590  0.25460  Biso   1.000  C
  C20      1.0000 0.42810  0.83680  0.21280  Biso   1.000  C
  C21      1.0000 0.42800  0.84660  0.27530  Biso   1.000  C
  C22      1.0000 0.43770  0.53690  0.26050  Biso   1.000  C
  C23      1.0000 0.41690  0.33610  0.24060  Biso   1.000  C
  C24      1.0000 0.41650  0.34700  0.30250  Biso   1.000  C
  C25      1.0000 0.37930  0.88710  0.10120  Biso   1.000  C
  C26      1.0000 0.32970  0.84390  0.12560  Biso   1.000  C
  C27      1.0000 0.30310  0.92410  0.16310  Biso   1.000  C
  C28      1.0000 0.37760  0.93890  0.37710  Biso   1.000  C
  C29      1.0000 0.32400  0.91860  0.35840  Biso   1.000  C
  C30      1.0000 0.31650  0.81410  0.32660  Biso   1.000  C
  C31      1.0000 0.37330  0.24940  0.13320  Biso   1.000  C
  C32      1.0000 0.31900  0.27390  0.14230  Biso   1.000  C
  C33      1.0000 0.31020  0.37490  0.17760  Biso   1.000  C
  C34      1.0000 0.36440  0.29880  0.41030  Biso   1.000  C
  C35      1.0000 0.31690  0.34330  0.38130  Biso   1.000  C
  C36      1.0000 0.29270  0.26490  0.34050  Biso   1.000  C
  H17      1.0000 0.37280  0.94130  0.07070  Biso   1.000  H
  H18      1.0000 0.39720  0.82900  0.08260  Biso   1.000  H
  H19      1.0000 0.30950  0.82410  0.09110  Biso   1.000  H
  H20      1.0000 0.33600  0.78160  0.15050  Biso   1.000  H
  H21      1.0000 0.38990  0.87530  0.39680  Biso   1.000  H
  H22      1.0000 0.37820  0.99760  0.40580  Biso   1.000  H
  H23      1.0000 0.30400  0.91970  0.39490  Biso   1.000  H
  H24      1.0000 0.31380  0.97520  0.33120  Biso   1.000  H
  H25      1.0000 0.38860  0.31230  0.11610  Biso   1.000  H
  H26      1.0000 0.37590  0.19110  0.10440  Biso   1.000  H
  H27      1.0000 0.30370  0.28060  0.10260  Biso   1.000  H
  H28      1.0000 0.30420  0.21520  0.16430  Biso   1.000  H
  H29      1.0000 0.35550  0.24440  0.43960  Biso   1.000  H
  H30      1.0000 0.38090  0.35650  0.43110  Biso   1.000  H
  H31      1.0000 0.29440  0.36230  0.41380  Biso   1.000  H
  H32      1.0000 0.32490  0.40630  0.35780  Biso   1.000  H
  Ag3      1.0000 0.72574  0.40506  0.25422  Biso   1.000  Ag
  S17      1.0000 0.94873  0.76610  0.18142  Biso   1.000  S
  S18      1.0000 0.94742  0.78850  0.31781  Biso   1.000  S
  S19      1.0000 0.93753  0.05140  0.30328  Biso   1.000  S
  S20      1.0000 0.93583  0.02810  0.16685  Biso   1.000  S
  S21      1.0000 0.91747  0.55390  0.33755  Biso   1.000  S
  S22      1.0000 0.91832  0.52790  0.18752  Biso   1.000  S
  S23      1.0000 0.90733  0.28800  0.29733  Biso   1.000  S
  S24      1.0000 0.90717  0.26000  0.14524  Biso   1.000  S
  F3       1.0000 0.00550  0.86240  0.05000  Biso   1.000  F
  O3       1.0000 0.97960  0.63170  0.05640  Biso   1.000  O
  N9       1.0000 0.78300  0.51280  0.30790  Biso   1.000  N
  N10      1.0000 0.80970  0.76670  0.19640  Biso   1.000  N
  N11      1.0000 0.80360  0.04840  0.29590  Biso   1.000  N
  N12      1.0000 0.77450  0.29410  0.19240  Biso   1.000  N
  C37      1.0000 0.94280  0.85410  0.24540  Biso   1.000  C
  C38      1.0000 0.92810  0.66320  0.28720  Biso   1.000  C
  C39      1.0000 0.92800  0.65340  0.22470  Biso   1.000  C
  C40      1.0000 0.93770  0.96310  0.23950  Biso   1.000  C
  C41      1.0000 0.91690  0.16390  0.25940  Biso   1.000  C
  C42      1.0000 0.91650  0.15300  0.19750  Biso   1.000  C
  C43      1.0000 0.87930  0.61290  0.39880  Biso   1.000  C
  C44      1.0000 0.82970  0.65610  0.37440  Biso   1.000  C
  C45      1.0000 0.80310  0.57590  0.33690  Biso   1.000  C
  C46      1.0000 0.87760  0.56110  0.12290  Biso   1.000  C
  C47      1.0000 0.82400  0.58140  0.14160  Biso   1.000  C
  C48      1.0000 0.81650  0.68590  0.17340  Biso   1.000  C
  C49      1.0000 0.87330  0.25060  0.36680  Biso   1.000  C
  C50      1.0000 0.81900  0.22610  0.35770  Biso   1.000  C
  C51      1.0000 0.81020  0.12510  0.32240  Biso   1.000  C
  C52      1.0000 0.86440  0.20120  0.08970  Biso   1.000  C
  C53      1.0000 0.81690  0.15670  0.11870  Biso   1.000  C
  C54      1.0000 0.79270  0.23510  0.15950  Biso   1.000  C
  H33      1.0000 0.87280  0.55870  0.42930  Biso   1.000  H
  H34      1.0000 0.89720  0.67100  0.41740  Biso   1.000  H
  H35      1.0000 0.80950  0.67590  0.40890  Biso   1.000  H
  H36      1.0000 0.83600  0.71840  0.34950  Biso   1.000  H
  H37      1.0000 0.88990  0.62470  0.10320  Biso   1.000  H
  H38      1.0000 0.87820  0.50240  0.09420  Biso   1.000  H
  H39      1.0000 0.80400  0.58030  0.10510  Biso   1.000  H
  H40      1.0000 0.81380  0.52480  0.16880  Biso   1.000  H
  H41      1.0000 0.88860  0.18770  0.38390  Biso   1.000  H
  H42      1.0000 0.87590  0.30890  0.39560  Biso   1.000  H
  H43      1.0000 0.80370  0.21940  0.39740  Biso   1.000  H
  H44      1.0000 0.80420  0.28480  0.33570  Biso   1.000  H
  H45      1.0000 0.85550  0.25560  0.06040  Biso   1.000  H
  H46      1.0000 0.88090  0.14350  0.06890  Biso   1.000  H
  H47      1.0000 0.79440  0.13770  0.08620  Biso   1.000  H
  H48      1.0000 0.82490  0.09370  0.14220  Biso   1.000  H
  Ag4      1.0000 0.27426  0.59494  0.25422  Biso   1.000  Ag
  S25      1.0000 0.05127  0.23390  0.18142  Biso   1.000  S
  S26      1.0000 0.05258  0.21150  0.31781  Biso   1.000  S
  S27      1.0000 0.06247  0.94860  0.30328  Biso   1.000  S
  S28      1.0000 0.06417  0.97190  0.16685  Biso   1.000  S
  S29      1.0000 0.08253  0.44610  0.33755  Biso   1.000  S
  S30      1.0000 0.08168  0.47210  0.18752  Biso   1.000  S
  S31      1.0000 0.09267  0.71200  0.29733  Biso   1.000  S
  S32      1.0000 0.09283  0.74000  0.14524  Biso   1.000  S
  F4       1.0000 0.99450  0.13760  0.05000  Biso   1.000  F
  O4       1.0000 0.02040  0.36830  0.05640  Biso   1.000  O
  N13      1.0000 0.21700  0.48720  0.30790  Biso   1.000  N
  N14      1.0000 0.19030  0.23330  0.19640  Biso   1.000  N
  N15      1.0000 0.19640  0.95160  0.29590  Biso   1.000  N
  N16      1.0000 0.22550  0.70590  0.19240  Biso   1.000  N
  C55      1.0000 0.05720  0.14590  0.24540  Biso   1.000  C
  C56      1.0000 0.07190  0.33680  0.28720  Biso   1.000  C
  C57      1.0000 0.07200  0.34660  0.22470  Biso   1.000  C
  C58      1.0000 0.06230  0.03690  0.23950  Biso   1.000  C
  C59      1.0000 0.08310  0.83610  0.25940  Biso   1.000  C
  C60      1.0000 0.08350  0.84700  0.19750  Biso   1.000  C
  C61      1.0000 0.12070  0.38710  0.39880  Biso   1.000  C
  C62      1.0000 0.17030  0.34390  0.37440  Biso   1.000  C
  C63      1.0000 0.19690  0.42410  0.33690  Biso   1.000  C
  C64      1.0000 0.12240  0.43890  0.12290  Biso   1.000  C
  C65      1.0000 0.17600  0.41860  0.14160  Biso   1.000  C
  C66      1.0000 0.18350  0.31410  0.17340  Biso   1.000  C
  C67      1.0000 0.12670  0.74940  0.36680  Biso   1.000  C
  C68      1.0000 0.18100  0.77390  0.35770  Biso   1.000  C
  C69      1.0000 0.18980  0.87490  0.32240  Biso   1.000  C
  C70      1.0000 0.13560  0.79880  0.08970  Biso   1.000  C
  C71      1.0000 0.18310  0.84330  0.11870  Biso   1.000  C
  C72      1.0000 0.20730  0.76490  0.15950  Biso   1.000  C
  H49      1.0000 0.12720  0.44130  0.42930  Biso   1.000  H
  H50      1.0000 0.10280  0.32900  0.41740  Biso   1.000  H
  H51      1.0000 0.19050  0.32410  0.40890  Biso   1.000  H
  H52      1.0000 0.16400  0.28160  0.34950  Biso   1.000  H
  H53      1.0000 0.11010  0.37530  0.10320  Biso   1.000  H
  H54      1.0000 0.12180  0.49760  0.09420  Biso   1.000  H
  H55      1.0000 0.19600  0.41970  0.10510  Biso   1.000  H
  H56      1.0000 0.18620  0.47520  0.16880  Biso   1.000  H
  H57      1.0000 0.11140  0.81230  0.38390  Biso   1.000  H
  H58      1.0000 0.12410  0.69110  0.39560  Biso   1.000  H
  H59      1.0000 0.19630  0.78060  0.39740  Biso   1.000  H
  H60      1.0000 0.19580  0.71520  0.33570  Biso   1.000  H
  H61      1.0000 0.14450  0.74440  0.06040  Biso   1.000  H
  H62      1.0000 0.11910  0.85650  0.06890  Biso   1.000  H
  H63      1.0000 0.20560  0.86230  0.08620  Biso   1.000  H
  H64      1.0000 0.17510  0.90630  0.14220  Biso   1.000  H
  Ag5      1.0000 0.22574  0.09494  0.75422  Biso   1.000  Ag
  S33      1.0000 0.44873  0.73390  0.68142  Biso   1.000  S
  S34      1.0000 0.44742  0.71150  0.81781  Biso   1.000  S
  S35      1.0000 0.43753  0.44860  0.80328  Biso   1.000  S
  S36      1.0000 0.43583  0.47190  0.66685  Biso   1.000  S
  S37      1.0000 0.41747  0.94610  0.83755  Biso   1.000  S
  S38      1.0000 0.41832  0.97210  0.68752  Biso   1.000  S
  S39      1.0000 0.40733  0.21200  0.79733  Biso   1.000  S
  S40      1.0000 0.40717  0.24000  0.64524  Biso   1.000  S
  F5       1.0000 0.50550  0.63760  0.55000  Biso   1.000  F
  O5       1.0000 0.47960  0.86830  0.55640  Biso   1.000  O
  N17      1.0000 0.28300  0.98720  0.80790  Biso   1.000  N
  N18      1.0000 0.30970  0.73330  0.69640  Biso   1.000  N
  N19      1.0000 0.30360  0.45160  0.79590  Biso   1.000  N
  N20      1.0000 0.27450  0.20590  0.69240  Biso   1.000  N
  C73      1.0000 0.44280  0.64590  0.74540  Biso   1.000  C
  C74      1.0000 0.42810  0.83680  0.78720  Biso   1.000  C
  C75      1.0000 0.42800  0.84660  0.72470  Biso   1.000  C
  C76      1.0000 0.43770  0.53690  0.73950  Biso   1.000  C
  C77      1.0000 0.41690  0.33610  0.75940  Biso   1.000  C
  C78      1.0000 0.41650  0.34700  0.69750  Biso   1.000  C
  C79      1.0000 0.37930  0.88710  0.89880  Biso   1.000  C
  C80      1.0000 0.32970  0.84390  0.87440  Biso   1.000  C
  C81      1.0000 0.30310  0.92410  0.83690  Biso   1.000  C
  C82      1.0000 0.37760  0.93890  0.62290  Biso   1.000  C
  C83      1.0000 0.32400  0.91860  0.64160  Biso   1.000  C
  C84      1.0000 0.31650  0.81410  0.67340  Biso   1.000  C
  C85      1.0000 0.37330  0.24940  0.86680  Biso   1.000  C
  C86      1.0000 0.31900  0.27390  0.85770  Biso   1.000  C
  C87      1.0000 0.31020  0.37490  0.82240  Biso   1.000  C
  C88      1.0000 0.36440  0.29880  0.58970  Biso   1.000  C
  C89      1.0000 0.31690  0.34330  0.61870  Biso   1.000  C
  C90      1.0000 0.29270  0.26490  0.65950  Biso   1.000  C
  H65      1.0000 0.37280  0.94130  0.92930  Biso   1.000  H
  H66      1.0000 0.39720  0.82900  0.91740  Biso   1.000  H
  H67      1.0000 0.30950  0.82410  0.90890  Biso   1.000  H
  H68      1.0000 0.33600  0.78160  0.84950  Biso   1.000  H
  H69      1.0000 0.38990  0.87530  0.60320  Biso   1.000  H
  H70      1.0000 0.37820  0.99760  0.59420  Biso   1.000  H
  H71      1.0000 0.30400  0.91970  0.60510  Biso   1.000  H
  H72      1.0000 0.31380  0.97520  0.66880  Biso   1.000  H
  H73      1.0000 0.38860  0.31230  0.88390  Biso   1.000  H
  H74      1.0000 0.37590  0.19110  0.89560  Biso   1.000  H
  H75      1.0000 0.30370  0.28060  0.89740  Biso   1.000  H
  H76      1.0000 0.30420  0.21520  0.83570  Biso   1.000  H
  H77      1.0000 0.35550  0.24440  0.56040  Biso   1.000  H
  H78      1.0000 0.38090  0.35650  0.56890  Biso   1.000  H
  H79      1.0000 0.29440  0.36230  0.58620  Biso   1.000  H
  H80      1.0000 0.32490  0.40630  0.64220  Biso   1.000  H
  Ag6      1.0000 0.77426  0.90506  0.75422  Biso   1.000  Ag
  S41      1.0000 0.55127  0.26610  0.68142  Biso   1.000  S
  S42      1.0000 0.55258  0.28850  0.81781  Biso   1.000  S
  S43      1.0000 0.56247  0.55140  0.80328  Biso   1.000  S
  S44      1.0000 0.56417  0.52810  0.66685  Biso   1.000  S
  S45      1.0000 0.58253  0.05390  0.83755  Biso   1.000  S
  S46      1.0000 0.58168  0.02790  0.68752  Biso   1.000  S
  S47      1.0000 0.59267  0.78800  0.79733  Biso   1.000  S
  S48      1.0000 0.59283  0.76000  0.64524  Biso   1.000  S
  F6       1.0000 0.49450  0.36240  0.55000  Biso   1.000  F
  O6       1.0000 0.52040  0.13170  0.55640  Biso   1.000  O
  N21      1.0000 0.71700  0.01280  0.80790  Biso   1.000  N
  N22      1.0000 0.69030  0.26670  0.69640  Biso   1.000  N
  N23      1.0000 0.69640  0.54840  0.79590  Biso   1.000  N
  N24      1.0000 0.72550  0.79410  0.69240  Biso   1.000  N
  C91      1.0000 0.55720  0.35410  0.74540  Biso   1.000  C
  C92      1.0000 0.57190  0.16320  0.78720  Biso   1.000  C
  C93      1.0000 0.57200  0.15340  0.72470  Biso   1.000  C
  C94      1.0000 0.56230  0.46310  0.73950  Biso   1.000  C
  C95      1.0000 0.58310  0.66390  0.75940  Biso   1.000  C
  C96      1.0000 0.58350  0.65300  0.69750  Biso   1.000  C
  C97      1.0000 0.62070  0.11290  0.89880  Biso   1.000  C
  C98      1.0000 0.67030  0.15610  0.87440  Biso   1.000  C
  C99      1.0000 0.69690  0.07590  0.83690  Biso   1.000  C
  C100     1.0000 0.62240  0.06110  0.62290  Biso   1.000  C
  C101     1.0000 0.67600  0.08140  0.64160  Biso   1.000  C
  C102     1.0000 0.68350  0.18590  0.67340  Biso   1.000  C
  C103     1.0000 0.62670  0.75060  0.86680  Biso   1.000  C
  C104     1.0000 0.68100  0.72610  0.85770  Biso   1.000  C
  C105     1.0000 0.68980  0.62510  0.82240  Biso   1.000  C
  C106     1.0000 0.63560  0.70120  0.58970  Biso   1.000  C
  C107     1.0000 0.68310  0.65670  0.61870  Biso   1.000  C
  C108     1.0000 0.70730  0.73510  0.65950  Biso   1.000  C
  H81      1.0000 0.62720  0.05870  0.92930  Biso   1.000  H
  H82      1.0000 0.60280  0.17100  0.91740  Biso   1.000  H
  H83      1.0000 0.69050  0.17590  0.90890  Biso   1.000  H
  H84      1.0000 0.66400  0.21840  0.84950  Biso   1.000  H
  H85      1.0000 0.61010  0.12470  0.60320  Biso   1.000  H
  H86      1.0000 0.62180  0.00240  0.59420  Biso   1.000  H
  H87      1.0000 0.69600  0.08030  0.60510  Biso   1.000  H
  H88      1.0000 0.68620  0.02480  0.66880  Biso   1.000  H
  H89      1.0000 0.61140  0.68770  0.88390  Biso   1.000  H
  H90      1.0000 0.62410  0.80890  0.89560  Biso   1.000  H
  H91      1.0000 0.69630  0.71940  0.89740  Biso   1.000  H
  H92      1.0000 0.69580  0.78480  0.83570  Biso   1.000  H
  H93      1.0000 0.64450  0.75560  0.56040  Biso   1.000  H
  H94      1.0000 0.61910  0.64350  0.56890  Biso   1.000  H
  H95      1.0000 0.70560  0.63770  0.58620  Biso   1.000  H
  H96      1.0000 0.67510  0.59370  0.64220  Biso   1.000  H
  Ag7      1.0000 0.27426  0.59494  0.74578  Biso   1.000  Ag
  S49      1.0000 0.05127  0.23390  0.81858  Biso   1.000  S
  S50      1.0000 0.05258  0.21150  0.68219  Biso   1.000  S
  S51      1.0000 0.06247  0.94860  0.69672  Biso   1.000  S
  S52      1.0000 0.06417  0.97190  0.83315  Biso   1.000  S
  S53      1.0000 0.08253  0.44610  0.66245  Biso   1.000  S
  S54      1.0000 0.08168  0.47210  0.81248  Biso   1.000  S
  S55      1.0000 0.09267  0.71200  0.70267  Biso   1.000  S
  S56      1.0000 0.09283  0.74000  0.85476  Biso   1.000  S
  F7       1.0000 0.99450  0.13760  0.95000  Biso   1.000  F
  O7       1.0000 0.02040  0.36830  0.94360  Biso   1.000  O
  N25      1.0000 0.21700  0.48720  0.69210  Biso   1.000  N
  N26      1.0000 0.19030  0.23330  0.80360  Biso   1.000  N
  N27      1.0000 0.19640  0.95160  0.70410  Biso   1.000  N
  N28      1.0000 0.22550  0.70590  0.80760  Biso   1.000  N
  C109     1.0000 0.05720  0.14590  0.75460  Biso   1.000  C
  C110     1.0000 0.07190  0.33680  0.71280  Biso   1.000  C
  C111     1.0000 0.07200  0.34660  0.77530  Biso   1.000  C
  C112     1.0000 0.06230  0.03690  0.76050  Biso   1.000  C
  C113     1.0000 0.08310  0.83610  0.74060  Biso   1.000  C
  C114     1.0000 0.08350  0.84700  0.80250  Biso   1.000  C
  C115     1.0000 0.12070  0.38710  0.60120  Biso   1.000  C
  C116     1.0000 0.17030  0.34390  0.62560  Biso   1.000  C
  C117     1.0000 0.19690  0.42410  0.66310  Biso   1.000  C
  C118     1.0000 0.12240  0.43890  0.87710  Biso   1.000  C
  C119     1.0000 0.17600  0.41860  0.85840  Biso   1.000  C
  C120     1.0000 0.18350  0.31410  0.82660  Biso   1.000  C
  C121     1.0000 0.12670  0.74940  0.63320  Biso   1.000  C
  C122     1.0000 0.18100  0.77390  0.64230  Biso   1.000  C
  C123     1.0000 0.18980  0.87490  0.67760  Biso   1.000  C
  C124     1.0000 0.13560  0.79880  0.91030  Biso   1.000  C
  C125     1.0000 0.18310  0.84330  0.88130  Biso   1.000  C
  C126     1.0000 0.20730  0.76490  0.84050  Biso   1.000  C
  H97      1.0000 0.12720  0.44130  0.57070  Biso   1.000  H
  H98      1.0000 0.10280  0.32900  0.58260  Biso   1.000  H
  H99      1.0000 0.19050  0.32410  0.59110  Biso   1.000  H
  H100     1.0000 0.16400  0.28160  0.65050  Biso   1.000  H
  H101     1.0000 0.11010  0.37530  0.89680  Biso   1.000  H
  H102     1.0000 0.12180  0.49760  0.90580  Biso   1.000  H
  H103     1.0000 0.19600  0.41970  0.89490  Biso   1.000  H
  H104     1.0000 0.18620  0.47520  0.83120  Biso   1.000  H
  H105     1.0000 0.11140  0.81230  0.61610  Biso   1.000  H
  H106     1.0000 0.12410  0.69110  0.60440  Biso   1.000  H
  H107     1.0000 0.19630  0.78060  0.60260  Biso   1.000  H
  H108     1.0000 0.19580  0.71520  0.66430  Biso   1.000  H
  H109     1.0000 0.14450  0.74440  0.93960  Biso   1.000  H
  H110     1.0000 0.11910  0.85650  0.93110  Biso   1.000  H
  H111     1.0000 0.20560  0.86230  0.91380  Biso   1.000  H
  H112     1.0000 0.17510  0.90630  0.85780  Biso   1.000  H
  Ag8      1.0000 0.72574  0.40506  0.74578  Biso   1.000  Ag
  S57      1.0000 0.94873  0.76610  0.81858  Biso   1.000  S
  S58      1.0000 0.94742  0.78850  0.68219  Biso   1.000  S
  S59      1.0000 0.93753  0.05140  0.69672  Biso   1.000  S
  S60      1.0000 0.93583  0.02810  0.83315  Biso   1.000  S
  S61      1.0000 0.91747  0.55390  0.66245  Biso   1.000  S
  S62      1.0000 0.91832  0.52790  0.81248  Biso   1.000  S
  S63      1.0000 0.90733  0.28800  0.70267  Biso   1.000  S
  S64      1.0000 0.90717  0.26000  0.85476  Biso   1.000  S
  F8       1.0000 0.00550  0.86240  0.95000  Biso   1.000  F
  O8       1.0000 0.97960  0.63170  0.94360  Biso   1.000  O
  N29      1.0000 0.78300  0.51280  0.69210  Biso   1.000  N
  N30      1.0000 0.80970  0.76670  0.80360  Biso   1.000  N
  N31      1.0000 0.80360  0.04840  0.70410  Biso   1.000  N
  N32      1.0000 0.77450  0.29410  0.80760  Biso   1.000  N
  C127     1.0000 0.94280  0.85410  0.75460  Biso   1.000  C
  C128     1.0000 0.92810  0.66320  0.71280  Biso   1.000  C
  C129     1.0000 0.92800  0.65340  0.77530  Biso   1.000  C
  C130     1.0000 0.93770  0.96310  0.76050  Biso   1.000  C
  C131     1.0000 0.91690  0.16390  0.74060  Biso   1.000  C
  C132     1.0000 0.91650  0.15300  0.80250  Biso   1.000  C
  C133     1.0000 0.87930  0.61290  0.60120  Biso   1.000  C
  C134     1.0000 0.82970  0.65610  0.62560  Biso   1.000  C
  C135     1.0000 0.80310  0.57590  0.66310  Biso   1.000  C
  C136     1.0000 0.87760  0.56110  0.87710  Biso   1.000  C
  C137     1.0000 0.82400  0.58140  0.85840  Biso   1.000  C
  C138     1.0000 0.81650  0.68590  0.82660  Biso   1.000  C
  C139     1.0000 0.87330  0.25060  0.63320  Biso   1.000  C
  C140     1.0000 0.81900  0.22610  0.64230  Biso   1.000  C
  C141     1.0000 0.81020  0.12510  0.67760  Biso   1.000  C
  C142     1.0000 0.86440  0.20120  0.91030  Biso   1.000  C
  C143     1.0000 0.81690  0.15670  0.88130  Biso   1.000  C
  C144     1.0000 0.79270  0.23510  0.84050  Biso   1.000  C
  H113     1.0000 0.87280  0.55870  0.57070  Biso   1.000  H
  H114     1.0000 0.89720  0.67100  0.58260  Biso   1.000  H
  H115     1.0000 0.80950  0.67590  0.59110  Biso   1.000  H
  H116     1.0000 0.83600  0.71840  0.65050  Biso   1.000  H
  H117     1.0000 0.88990  0.62470  0.89680  Biso   1.000  H
  H118     1.0000 0.87820  0.50240  0.90580  Biso   1.000  H
  H119     1.0000 0.80400  0.58030  0.89490  Biso   1.000  H
  H120     1.0000 0.81380  0.52480  0.83120  Biso   1.000  H
  H121     1.0000 0.88860  0.18770  0.61610  Biso   1.000  H
  H122     1.0000 0.87590  0.30890  0.60440  Biso   1.000  H
  H123     1.0000 0.80370  0.21940  0.60260  Biso   1.000  H
  H124     1.0000 0.80420  0.28480  0.66430  Biso   1.000  H
  H125     1.0000 0.85550  0.25560  0.93960  Biso   1.000  H
  H126     1.0000 0.88090  0.14350  0.93110  Biso   1.000  H
  H127     1.0000 0.79440  0.13770  0.91380  Biso   1.000  H
  H128     1.0000 0.82490  0.09370  0.85780  Biso   1.000  H
  Ag9      1.0000 0.50000  0.00000  0.11794  Biso   1.000  Ag
  Ag10     1.0000 0.50000  0.00000  0.36794  Biso   1.000  Ag
  Ag11     1.0000 0.00000  0.50000  0.38206  Biso   1.000  Ag
  Ag12     1.0000 0.00000  0.50000  0.13206  Biso   1.000  Ag
  Ag13     1.0000 0.50000  0.00000  0.88206  Biso   1.000  Ag
  Ag14     1.0000 0.50000  0.00000  0.63206  Biso   1.000  Ag
  Ag15     1.0000 0.00000  0.50000  0.61794  Biso   1.000  Ag
  Ag16     1.0000 0.00000  0.50000  0.86794  Biso   1.000  Ag
  S65      1.0000 0.49667  0.16870  0.50000  Biso   1.000  S
  F9       1.0000 0.56050  0.32790  0.50000  Biso   1.000  F
  O9       1.0000 0.44330  0.16240  0.50000  Biso   1.000  O
  C145     1.0000 0.51150  0.31400  0.50000  Biso   1.000  C
  S66      1.0000 0.50333  0.83130  0.50000  Biso   1.000  S
  F10      1.0000 0.43950  0.67210  0.50000  Biso   1.000  F
  O10      1.0000 0.55670  0.83760  0.50000  Biso   1.000  O
  C146     1.0000 0.48850  0.68600  0.50000  Biso   1.000  C
  S67      1.0000 0.00333  0.66870  0.00000  Biso   1.000  S
  F11      1.0000 0.93950  0.82790  0.00000  Biso   1.000  F
  O11      1.0000 0.05670  0.66240  0.00000  Biso   1.000  O
  C147     1.0000 0.98850  0.81400  0.00000  Biso   1.000  C
  S68      1.0000 0.99667  0.33130  0.00000  Biso   1.000  S
  F12      1.0000 0.06050  0.17210  0.00000  Biso   1.000  F
  O12      1.0000 0.94330  0.33760  0.00000  Biso   1.000  O
  C148     1.0000 0.01150  0.18600  0.00000  Biso   1.000  C
