data_image0
_cell_length_a       13.71
_cell_length_b       14.753
_cell_length_c       20.027
_cell_angle_alpha    90
_cell_angle_beta     107.969
_cell_angle_gamma    90

_symmetry_space_group_name_H-M    "P 1"
_symmetry_int_tables_number       1

loop_
  _symmetry_equiv_pos_as_xyz
  'x, y, z'

loop_
  _atom_site_label
  _atom_site_occupancy
  _atom_site_fract_x
  _atom_site_fract_y
  _atom_site_fract_z
  _atom_site_thermal_displace_type
  _atom_site_B_iso_or_equiv
  _atom_site_type_symbol
  Zn1      1.0000 0.40155  0.97480  0.43787  Biso   1.000  Zn
  Zn2      1.0000 0.64838  0.90111  0.44715  Biso   1.000  Zn
  P1       1.0000 0.72426  0.97341  0.30400  Biso   1.000  P
  O1       1.0000 0.67001  0.95921  0.35710  Biso   1.000  O
  O2       1.0000 0.45182  0.31415  0.11301  Biso   1.000  O
  C1       1.0000 0.70116  0.88159  0.24157  Biso   1.000  C
  C2       1.0000 0.86040  0.98347  0.34254  Biso   1.000  C
  O3       1.0000 0.21072  0.06765  0.49370  Biso   1.000  O
  O4       1.0000 0.63642  0.58086  0.12536  Biso   1.000  O
  C3       1.0000 0.67840  0.07458  0.25363  Biso   1.000  C
  O5       1.0000 0.60718  0.35672  0.10874  Biso   1.000  O
  O6       1.0000 0.24359  0.95582  0.42823  Biso   1.000  O
  C4       1.0000 0.59390  0.22473  0.17097  Biso   1.000  C
  C5       1.0000 0.54690  0.30510  0.12709  Biso   1.000  C
  O7       1.0000 0.62840  0.67218  0.03597  Biso   1.000  O
  C6       1.0000 0.53190  0.16520  0.19400  Biso   1.000  C
  H1       1.0000 0.46170  0.17550  0.18190  Biso   1.000  H
  C7       1.0000 0.69750  0.20650  0.18880  Biso   1.000  C
  H2       1.0000 0.73980  0.24480  0.17320  Biso   1.000  H
  H3       1.0000 0.56700  0.05130  0.43500  Biso   1.000  H
  O8       1.0000 0.56004  0.00525  0.45858  Biso   1.000  O
  C8       1.0000 0.07100  0.99850  0.41064  Biso   1.000  C
  C9       1.0000 0.57440  0.09110  0.23450  Biso   1.000  C
  H4       1.0000 0.53220  0.05170  0.24930  Biso   1.000  H
  C10      1.0000 0.18540  0.00760  0.44694  Biso   1.000  C
  C11      1.0000 0.67220  0.80000  0.26099  Biso   1.000  C
  H5       1.0000 0.66520  0.79270  0.30540  Biso   1.000  H
  C12      1.0000 0.89860  0.04780  0.39450  Biso   1.000  C
  H6       1.0000 0.85330  0.08620  0.40700  Biso   1.000  H
  C13      1.0000 0.00190  0.05600  0.42765  Biso   1.000  C
  H7       1.0000 0.02590  0.10030  0.46180  Biso   1.000  H
  C14      1.0000 0.73930  0.13220  0.22940  Biso   1.000  C
  H8       1.0000 0.80920  0.12080  0.24060  Biso   1.000  H
  C15      1.0000 0.71260  0.89130  0.17612  Biso   1.000  C
  H9       1.0000 0.73330  0.94660  0.16280  Biso   1.000  H
  C16      1.0000 0.65310  0.72740  0.21437  Biso   1.000  C
  H10      1.0000 0.63330  0.67190  0.22800  Biso   1.000  H
  C17      1.0000 0.69310  0.81840  0.12984  Biso   1.000  C
  H11      1.0000 0.70060  0.82540  0.08550  Biso   1.000  H
  C18      1.0000 0.03410  0.93400  0.36060  Biso   1.000  C
  H12      1.0000 0.07960  0.89450  0.34940  Biso   1.000  H
  C19      1.0000 0.92980  0.92600  0.32580  Biso   1.000  C
  H13      1.0000 0.90630  0.88210  0.29130  Biso   1.000  H
  C20      1.0000 0.66290  0.73670  0.14880  Biso   1.000  C
  C21      1.0000 0.64050  0.65730  0.09895  Biso   1.000  C
  Zn3      1.0000 0.59845  0.47480  0.06213  Biso   1.000  Zn
  Zn4      1.0000 0.35162  0.40111  0.05285  Biso   1.000  Zn
  P2       1.0000 0.27574  0.47341  0.19600  Biso   1.000  P
  O9       1.0000 0.32999  0.45921  0.14290  Biso   1.000  O
  O10      1.0000 0.54818  0.81415  0.38699  Biso   1.000  O
  C22      1.0000 0.29884  0.38159  0.25843  Biso   1.000  C
  C23      1.0000 0.13960  0.48347  0.15746  Biso   1.000  C
  O11      1.0000 0.78928  0.56765  0.00630  Biso   1.000  O
  O12      1.0000 0.36358  0.08086  0.37464  Biso   1.000  O
  C24      1.0000 0.32160  0.57458  0.24637  Biso   1.000  C
  O13      1.0000 0.39282  0.85672  0.39126  Biso   1.000  O
  O14      1.0000 0.75641  0.45582  0.07177  Biso   1.000  O
  C25      1.0000 0.40610  0.72473  0.32903  Biso   1.000  C
  C26      1.0000 0.45310  0.80510  0.37291  Biso   1.000  C
  O15      1.0000 0.37160  0.17218  0.46403  Biso   1.000  O
  C27      1.0000 0.46810  0.66520  0.30600  Biso   1.000  C
  H14      1.0000 0.53830  0.67550  0.31810  Biso   1.000  H
  C28      1.0000 0.30250  0.70650  0.31120  Biso   1.000  C
  H15      1.0000 0.26020  0.74480  0.32680  Biso   1.000  H
  H16      1.0000 0.43300  0.55130  0.06500  Biso   1.000  H
  O16      1.0000 0.43996  0.50525  0.04142  Biso   1.000  O
  C29      1.0000 0.92900  0.49850  0.08936  Biso   1.000  C
  C30      1.0000 0.42560  0.59110  0.26550  Biso   1.000  C
  H17      1.0000 0.46780  0.55170  0.25070  Biso   1.000  H
  C31      1.0000 0.81460  0.50760  0.05306  Biso   1.000  C
  C32      1.0000 0.32780  0.30000  0.23901  Biso   1.000  C
  H18      1.0000 0.33480  0.29270  0.19460  Biso   1.000  H
  C33      1.0000 0.10140  0.54780  0.10550  Biso   1.000  C
  H19      1.0000 0.14670  0.58620  0.09300  Biso   1.000  H
  C34      1.0000 0.99810  0.55600  0.07235  Biso   1.000  C
  H20      1.0000 0.97410  0.60030  0.03820  Biso   1.000  H
  C35      1.0000 0.26070  0.63220  0.27060  Biso   1.000  C
  H21      1.0000 0.19080  0.62080  0.25940  Biso   1.000  H
  C36      1.0000 0.28740  0.39130  0.32388  Biso   1.000  C
  H22      1.0000 0.26670  0.44660  0.33720  Biso   1.000  H
  C37      1.0000 0.34690  0.22740  0.28563  Biso   1.000  C
  H23      1.0000 0.36670  0.17190  0.27200  Biso   1.000  H
  C38      1.0000 0.30690  0.31840  0.37016  Biso   1.000  C
  H24      1.0000 0.29940  0.32540  0.41450  Biso   1.000  H
  C39      1.0000 0.96590  0.43400  0.13940  Biso   1.000  C
  H25      1.0000 0.92040  0.39450  0.15060  Biso   1.000  H
  C40      1.0000 0.07020  0.42600  0.17420  Biso   1.000  C
  H26      1.0000 0.09370  0.38210  0.20870  Biso   1.000  H
  C41      1.0000 0.33710  0.23670  0.35120  Biso   1.000  C
  C42      1.0000 0.35950  0.15730  0.40105  Biso   1.000  C
  Zn5      1.0000 0.59845  0.02520  0.56213  Biso   1.000  Zn
  Zn6      1.0000 0.35162  0.09889  0.55285  Biso   1.000  Zn
  P3       1.0000 0.27574  0.02659  0.69600  Biso   1.000  P
  O17      1.0000 0.32999  0.04079  0.64290  Biso   1.000  O
  O18      1.0000 0.54818  0.68585  0.88699  Biso   1.000  O
  C43      1.0000 0.29884  0.11841  0.75843  Biso   1.000  C
  C44      1.0000 0.13960  0.01653  0.65746  Biso   1.000  C
  O19      1.0000 0.78928  0.93235  0.50630  Biso   1.000  O
  O20      1.0000 0.36358  0.41914  0.87464  Biso   1.000  O
  C45      1.0000 0.32160  0.92542  0.74637  Biso   1.000  C
  O21      1.0000 0.39282  0.64328  0.89126  Biso   1.000  O
  O22      1.0000 0.75641  0.04418  0.57177  Biso   1.000  O
  C46      1.0000 0.40610  0.77527  0.82903  Biso   1.000  C
  C47      1.0000 0.45310  0.69490  0.87291  Biso   1.000  C
  O23      1.0000 0.37160  0.32782  0.96403  Biso   1.000  O
  C48      1.0000 0.46810  0.83480  0.80600  Biso   1.000  C
  H27      1.0000 0.53830  0.82450  0.81810  Biso   1.000  H
  C49      1.0000 0.30250  0.79350  0.81120  Biso   1.000  C
  H28      1.0000 0.26020  0.75520  0.82680  Biso   1.000  H
  H29      1.0000 0.43300  0.94870  0.56500  Biso   1.000  H
  O24      1.0000 0.43996  0.99475  0.54142  Biso   1.000  O
  C50      1.0000 0.92900  0.00150  0.58936  Biso   1.000  C
  C51      1.0000 0.42560  0.90890  0.76550  Biso   1.000  C
  H30      1.0000 0.46780  0.94830  0.75070  Biso   1.000  H
  C52      1.0000 0.81460  0.99240  0.55306  Biso   1.000  C
  C53      1.0000 0.32780  0.20000  0.73901  Biso   1.000  C
  H31      1.0000 0.33480  0.20730  0.69460  Biso   1.000  H
  C54      1.0000 0.10140  0.95220  0.60550  Biso   1.000  C
  H32      1.0000 0.14670  0.91380  0.59300  Biso   1.000  H
  C55      1.0000 0.99810  0.94400  0.57235  Biso   1.000  C
  H33      1.0000 0.97410  0.89970  0.53820  Biso   1.000  H
  C56      1.0000 0.26070  0.86780  0.77060  Biso   1.000  C
  H34      1.0000 0.19080  0.87920  0.75940  Biso   1.000  H
  C57      1.0000 0.28740  0.10870  0.82388  Biso   1.000  C
  H35      1.0000 0.26670  0.05340  0.83720  Biso   1.000  H
  C58      1.0000 0.34690  0.27260  0.78563  Biso   1.000  C
  H36      1.0000 0.36670  0.32810  0.77200  Biso   1.000  H
  C59      1.0000 0.30690  0.18160  0.87016  Biso   1.000  C
  H37      1.0000 0.29940  0.17460  0.91450  Biso   1.000  H
  C60      1.0000 0.96590  0.06600  0.63940  Biso   1.000  C
  H38      1.0000 0.92040  0.10550  0.65060  Biso   1.000  H
  C61      1.0000 0.07020  0.07400  0.67420  Biso   1.000  C
  H39      1.0000 0.09370  0.11790  0.70870  Biso   1.000  H
  C62      1.0000 0.33710  0.26330  0.85120  Biso   1.000  C
  C63      1.0000 0.35950  0.34270  0.90105  Biso   1.000  C
  Zn7      1.0000 0.40155  0.52520  0.93787  Biso   1.000  Zn
  Zn8      1.0000 0.64838  0.59889  0.94715  Biso   1.000  Zn
  P4       1.0000 0.72426  0.52659  0.80400  Biso   1.000  P
  O25      1.0000 0.67001  0.54079  0.85710  Biso   1.000  O
  O26      1.0000 0.45182  0.18585  0.61301  Biso   1.000  O
  C64      1.0000 0.70116  0.61841  0.74157  Biso   1.000  C
  C65      1.0000 0.86040  0.51653  0.84254  Biso   1.000  C
  O27      1.0000 0.21072  0.43235  0.99370  Biso   1.000  O
  O28      1.0000 0.63642  0.91914  0.62536  Biso   1.000  O
  C66      1.0000 0.67840  0.42542  0.75363  Biso   1.000  C
  O29      1.0000 0.60718  0.14328  0.60874  Biso   1.000  O
  O30      1.0000 0.24359  0.54418  0.92823  Biso   1.000  O
  C67      1.0000 0.59390  0.27527  0.67097  Biso   1.000  C
  C68      1.0000 0.54690  0.19490  0.62709  Biso   1.000  C
  O31      1.0000 0.62840  0.82782  0.53597  Biso   1.000  O
  C69      1.0000 0.53190  0.33480  0.69400  Biso   1.000  C
  H40      1.0000 0.46170  0.32450  0.68190  Biso   1.000  H
  C70      1.0000 0.69750  0.29350  0.68880  Biso   1.000  C
  H41      1.0000 0.73980  0.25520  0.67320  Biso   1.000  H
  H42      1.0000 0.56700  0.44870  0.93500  Biso   1.000  H
  O32      1.0000 0.56004  0.49475  0.95858  Biso   1.000  O
  C71      1.0000 0.07100  0.50150  0.91064  Biso   1.000  C
  C72      1.0000 0.57440  0.40890  0.73450  Biso   1.000  C
  H43      1.0000 0.53220  0.44830  0.74930  Biso   1.000  H
  C73      1.0000 0.18540  0.49240  0.94694  Biso   1.000  C
  C74      1.0000 0.67220  0.70000  0.76099  Biso   1.000  C
  H44      1.0000 0.66520  0.70730  0.80540  Biso   1.000  H
  C75      1.0000 0.89860  0.45220  0.89450  Biso   1.000  C
  H45      1.0000 0.85330  0.41380  0.90700  Biso   1.000  H
  C76      1.0000 0.00190  0.44400  0.92765  Biso   1.000  C
  H46      1.0000 0.02590  0.39970  0.96180  Biso   1.000  H
  C77      1.0000 0.73930  0.36780  0.72940  Biso   1.000  C
  H47      1.0000 0.80920  0.37920  0.74060  Biso   1.000  H
  C78      1.0000 0.71260  0.60870  0.67612  Biso   1.000  C
  H48      1.0000 0.73330  0.55340  0.66280  Biso   1.000  H
  C79      1.0000 0.65310  0.77260  0.71437  Biso   1.000  C
  H49      1.0000 0.63330  0.82810  0.72800  Biso   1.000  H
  C80      1.0000 0.69310  0.68160  0.62984  Biso   1.000  C
  H50      1.0000 0.70060  0.67460  0.58550  Biso   1.000  H
  C81      1.0000 0.03410  0.56600  0.86060  Biso   1.000  C
  H51      1.0000 0.07960  0.60550  0.84940  Biso   1.000  H
  C82      1.0000 0.92980  0.57400  0.82580  Biso   1.000  C
  H52      1.0000 0.90630  0.61790  0.79130  Biso   1.000  H
  C83      1.0000 0.66290  0.76330  0.64880  Biso   1.000  C
  C84      1.0000 0.64050  0.84270  0.59895  Biso   1.000  C
