data_image0
_cell_length_a       16.176
_cell_length_b       7.948
_cell_length_c       27.278
_cell_angle_alpha    90
_cell_angle_beta     93.5
_cell_angle_gamma    90

_symmetry_space_group_name_H-M    "P 1"
_symmetry_int_tables_number       1

loop_
  _symmetry_equiv_pos_as_xyz
  'x, y, z'

loop_
  _atom_site_label
  _atom_site_occupancy
  _atom_site_fract_x
  _atom_site_fract_y
  _atom_site_fract_z
  _atom_site_thermal_displace_type
  _atom_site_B_iso_or_equiv
  _atom_site_type_symbol
  C1       1.0000 0.39230  0.77640  0.80960  Biso   1.000  C
  H1       1.0000 0.33780  0.81680  0.79850  Biso   1.000  H
  H2       1.0000 0.39830  0.66270  0.79740  Biso   1.000  H
  Tb1      1.0000 0.72311  0.15649  0.73280  Biso   1.000  Tb
  O1       1.0000 0.85080  0.12390  0.78765  Biso   1.000  O
  O2       1.0000 0.86690  0.85730  0.81195  Biso   1.000  O
  O3       1.0000 0.28480  0.62530  0.20343  Biso   1.000  O
  N1       1.0000 0.26460  0.85800  0.86892  Biso   1.000  N
  C2       1.0000 0.54840  0.84080  0.86520  Biso   1.000  C
  H3       1.0000 0.60260  0.80450  0.87830  Biso   1.000  H
  H4       1.0000 0.53930  0.95460  0.87650  Biso   1.000  H
  O4       1.0000 0.68320  0.89810  0.78487  Biso   1.000  O
  C3       1.0000 0.54560  0.83850  0.80920  Biso   1.000  C
  H5       1.0000 0.55700  0.72400  0.79800  Biso   1.000  H
  O5       1.0000 0.28920  0.41500  0.15204  Biso   1.000  O
  N2       1.0000 0.21040  0.87130  0.94870  Biso   1.000  N
  N3       1.0000 0.40000  0.77500  0.86340  Biso   1.000  N
  C4       1.0000 0.28510  0.81420  0.96610  Biso   1.000  C
  N4       1.0000 0.13500  0.96430  0.87960  Biso   1.000  N
  O6       1.0000 0.59410  0.10550  0.78052  Biso   1.000  O
  C5       1.0000 0.97430  0.05160  0.83490  Biso   1.000  C
  H6       1.0000 0.98000  0.17400  0.83600  Biso   1.000  H
  C6       1.0000 0.33670  0.80660  0.89170  Biso   1.000  C
  C7       1.0000 0.45840  0.88940  0.78880  Biso   1.000  C
  H7       1.0000 0.44800  0.00550  0.79750  Biso   1.000  H
  H8       1.0000 0.45530  0.88080  0.75330  Biso   1.000  H
  N5       1.0000 0.35070  0.78640  0.94050  Biso   1.000  N
  N6       1.0000 0.29300  0.78390  0.01540  Biso   1.000  N
  C8       1.0000 0.36450  0.62310  0.08210  Biso   1.000  C
  H9       1.0000 0.41850  0.60310  0.09860  Biso   1.000  H
  H10      1.0000 0.34340  0.51610  0.06970  Biso   1.000  H
  C9       1.0000 0.20650  0.89680  0.89990  Biso   1.000  C
  C10      1.0000 0.23400  0.85200  0.04870  Biso   1.000  C
  H11      1.0000 0.18090  0.86940  0.03090  Biso   1.000  H
  H12      1.0000 0.25370  0.96010  0.06110  Biso   1.000  H
  C11      1.0000 0.61060  0.95470  0.79090  Biso   1.000  C
  C12      1.0000 0.04370  0.97870  0.80500  Biso   1.000  C
  H13      1.0000 0.03810  0.85730  0.80310  Biso   1.000  H
  H14      1.0000 0.03880  0.02340  0.77190  Biso   1.000  H
  C13      1.0000 0.98560  0.98350  0.88670  Biso   1.000  C
  H15      1.0000 0.97950  0.86210  0.88600  Biso   1.000  H
  H16      1.0000 0.94290  0.02930  0.90630  Biso   1.000  H
  C14      1.0000 0.29410  0.57090  0.16020  Biso   1.000  C
  C15      1.0000 0.07050  0.02910  0.91030  Biso   1.000  C
  H17      1.0000 0.07540  0.15040  0.91330  Biso   1.000  H
  H18      1.0000 0.07720  0.98050  0.94290  Biso   1.000  H
  C16      1.0000 0.48250  0.72530  0.88360  Biso   1.000  C
  H19      1.0000 0.49370  0.61040  0.87400  Biso   1.000  H
  H20      1.0000 0.48410  0.72960  0.91920  Biso   1.000  H
  C17      1.0000 0.12770  0.02340  0.82890  Biso   1.000  C
  H21      1.0000 0.17070  0.97240  0.81060  Biso   1.000  H
  H22      1.0000 0.13510  0.14440  0.82820  Biso   1.000  H
  C18      1.0000 0.30710  0.69100  0.11860  Biso   1.000  C
  H23      1.0000 0.33100  0.79500  0.13200  Biso   1.000  H
  C19      1.0000 0.37430  0.74290  0.03880  Biso   1.000  C
  H24      1.0000 0.40180  0.84520  0.05040  Biso   1.000  H
  H25      1.0000 0.40840  0.69030  0.01510  Biso   1.000  H
  C20      1.0000 0.22320  0.73190  0.09180  Biso   1.000  C
  H26      1.0000 0.19740  0.62860  0.07970  Biso   1.000  H
  H27      1.0000 0.18710  0.78310  0.11470  Biso   1.000  H
  C21      1.0000 0.89080  0.00710  0.80990  Biso   1.000  C
  C22      1.0000 0.10770  0.27640  0.69040  Biso   1.000  C
  H28      1.0000 0.16220  0.31680  0.70150  Biso   1.000  H
  H29      1.0000 0.10170  0.16270  0.70260  Biso   1.000  H
  Tb2      1.0000 0.77689  0.65649  0.76720  Biso   1.000  Tb
  O7       1.0000 0.64920  0.62390  0.71235  Biso   1.000  O
  O8       1.0000 0.63310  0.35730  0.68805  Biso   1.000  O
  O9       1.0000 0.21520  0.12530  0.29657  Biso   1.000  O
  N7       1.0000 0.23540  0.35800  0.63108  Biso   1.000  N
  C23      1.0000 0.95160  0.34080  0.63480  Biso   1.000  C
  H30      1.0000 0.89740  0.30450  0.62170  Biso   1.000  H
  H31      1.0000 0.96070  0.45460  0.62350  Biso   1.000  H
  O10      1.0000 0.81680  0.39810  0.71513  Biso   1.000  O
  C24      1.0000 0.95440  0.33850  0.69080  Biso   1.000  C
  H32      1.0000 0.94300  0.22400  0.70200  Biso   1.000  H
  O11      1.0000 0.21080  0.91500  0.34796  Biso   1.000  O
  N8       1.0000 0.28960  0.37130  0.55130  Biso   1.000  N
  N9       1.0000 0.10000  0.27500  0.63660  Biso   1.000  N
  C25      1.0000 0.21490  0.31420  0.53390  Biso   1.000  C
  N10      1.0000 0.36500  0.46430  0.62040  Biso   1.000  N
  O12      1.0000 0.90590  0.60550  0.71948  Biso   1.000  O
  C26      1.0000 0.52570  0.55160  0.66510  Biso   1.000  C
  H33      1.0000 0.52000  0.67400  0.66400  Biso   1.000  H
  C27      1.0000 0.16330  0.30660  0.60830  Biso   1.000  C
  C28      1.0000 0.04160  0.38940  0.71120  Biso   1.000  C
  H34      1.0000 0.05200  0.50550  0.70250  Biso   1.000  H
  H35      1.0000 0.04470  0.38080  0.74670  Biso   1.000  H
  N11      1.0000 0.14930  0.28640  0.55950  Biso   1.000  N
  N12      1.0000 0.20700  0.28390  0.48460  Biso   1.000  N
  C29      1.0000 0.13550  0.12310  0.41790  Biso   1.000  C
  H36      1.0000 0.08150  0.10310  0.40140  Biso   1.000  H
  H37      1.0000 0.15660  0.01610  0.43030  Biso   1.000  H
  C30      1.0000 0.29350  0.39680  0.60010  Biso   1.000  C
  C31      1.0000 0.26600  0.35200  0.45130  Biso   1.000  C
  H38      1.0000 0.31910  0.36940  0.46910  Biso   1.000  H
  H39      1.0000 0.24630  0.46010  0.43890  Biso   1.000  H
  C32      1.0000 0.88940  0.45470  0.70910  Biso   1.000  C
  C33      1.0000 0.45630  0.47870  0.69500  Biso   1.000  C
  H40      1.0000 0.46190  0.35730  0.69690  Biso   1.000  H
  H41      1.0000 0.46120  0.52340  0.72810  Biso   1.000  H
  C34      1.0000 0.51440  0.48350  0.61330  Biso   1.000  C
  H42      1.0000 0.52050  0.36210  0.61400  Biso   1.000  H
  H43      1.0000 0.55710  0.52930  0.59370  Biso   1.000  H
  C35      1.0000 0.20590  0.07090  0.33980  Biso   1.000  C
  C36      1.0000 0.42950  0.52910  0.58970  Biso   1.000  C
  H44      1.0000 0.42460  0.65040  0.58670  Biso   1.000  H
  H45      1.0000 0.42280  0.48050  0.55710  Biso   1.000  H
  C37      1.0000 0.01750  0.22530  0.61640  Biso   1.000  C
  H46      1.0000 0.00630  0.11040  0.62600  Biso   1.000  H
  H47      1.0000 0.01590  0.22960  0.58080  Biso   1.000  H
  C38      1.0000 0.37230  0.52340  0.67110  Biso   1.000  C
  H48      1.0000 0.32930  0.47240  0.68940  Biso   1.000  H
  H49      1.0000 0.36490  0.64440  0.67180  Biso   1.000  H
  C39      1.0000 0.19290  0.19100  0.38140  Biso   1.000  C
  H50      1.0000 0.16900  0.29500  0.36800  Biso   1.000  H
  C40      1.0000 0.12570  0.24290  0.46120  Biso   1.000  C
  H51      1.0000 0.09820  0.34520  0.44960  Biso   1.000  H
  H52      1.0000 0.09160  0.19030  0.48490  Biso   1.000  H
  C41      1.0000 0.27680  0.23190  0.40820  Biso   1.000  C
  H53      1.0000 0.30260  0.12860  0.42030  Biso   1.000  H
  H54      1.0000 0.31290  0.28310  0.38530  Biso   1.000  H
  C42      1.0000 0.60920  0.50710  0.69010  Biso   1.000  C
  C43      1.0000 0.60770  0.22360  0.19040  Biso   1.000  C
  H55      1.0000 0.66220  0.18320  0.20150  Biso   1.000  H
  H56      1.0000 0.60170  0.33730  0.20260  Biso   1.000  H
  Tb3      1.0000 0.27689  0.84351  0.26720  Biso   1.000  Tb
  O13      1.0000 0.14920  0.87610  0.21235  Biso   1.000  O
  O14      1.0000 0.13310  0.14270  0.18805  Biso   1.000  O
  O15      1.0000 0.71520  0.37470  0.79657  Biso   1.000  O
  N13      1.0000 0.73540  0.14200  0.13108  Biso   1.000  N
  C44      1.0000 0.45160  0.15920  0.13480  Biso   1.000  C
  H57      1.0000 0.39740  0.19550  0.12170  Biso   1.000  H
  H58      1.0000 0.46070  0.04540  0.12350  Biso   1.000  H
  O16      1.0000 0.31680  0.10190  0.21513  Biso   1.000  O
  C45      1.0000 0.45440  0.16150  0.19080  Biso   1.000  C
  H59      1.0000 0.44300  0.27600  0.20200  Biso   1.000  H
  O17      1.0000 0.71080  0.58500  0.84796  Biso   1.000  O
  N14      1.0000 0.78960  0.12870  0.05130  Biso   1.000  N
  N15      1.0000 0.60000  0.22500  0.13660  Biso   1.000  N
  C46      1.0000 0.71490  0.18580  0.03390  Biso   1.000  C
  N16      1.0000 0.86500  0.03570  0.12040  Biso   1.000  N
  O18      1.0000 0.40590  0.89450  0.21948  Biso   1.000  O
  C47      1.0000 0.02570  0.94840  0.16510  Biso   1.000  C
  H60      1.0000 0.02000  0.82600  0.16400  Biso   1.000  H
  C48      1.0000 0.66330  0.19340  0.10830  Biso   1.000  C
  C49      1.0000 0.54160  0.11060  0.21120  Biso   1.000  C
  H61      1.0000 0.55200  0.99450  0.20250  Biso   1.000  H
  H62      1.0000 0.54470  0.11920  0.24670  Biso   1.000  H
  N17      1.0000 0.64930  0.21360  0.05950  Biso   1.000  N
  N18      1.0000 0.70700  0.21610  0.98460  Biso   1.000  N
  C50      1.0000 0.63550  0.37690  0.91790  Biso   1.000  C
  H63      1.0000 0.58150  0.39690  0.90140  Biso   1.000  H
  H64      1.0000 0.65660  0.48390  0.93030  Biso   1.000  H
  C51      1.0000 0.79350  0.10320  0.10010  Biso   1.000  C
  C52      1.0000 0.76600  0.14800  0.95130  Biso   1.000  C
  H65      1.0000 0.81910  0.13060  0.96910  Biso   1.000  H
  H66      1.0000 0.74630  0.03990  0.93890  Biso   1.000  H
  C53      1.0000 0.38940  0.04530  0.20910  Biso   1.000  C
  C54      1.0000 0.95630  0.02130  0.19500  Biso   1.000  C
  H67      1.0000 0.96190  0.14270  0.19690  Biso   1.000  H
  H68      1.0000 0.96120  0.97660  0.22810  Biso   1.000  H
  C55      1.0000 0.01440  0.01650  0.11330  Biso   1.000  C
  H69      1.0000 0.02050  0.13790  0.11400  Biso   1.000  H
  H70      1.0000 0.05710  0.97070  0.09370  Biso   1.000  H
  C56      1.0000 0.70590  0.42910  0.83980  Biso   1.000  C
  C57      1.0000 0.92950  0.97090  0.08970  Biso   1.000  C
  H71      1.0000 0.92460  0.84960  0.08670  Biso   1.000  H
  H72      1.0000 0.92280  0.01950  0.05710  Biso   1.000  H
  C58      1.0000 0.51750  0.27470  0.11640  Biso   1.000  C
  H73      1.0000 0.50630  0.38960  0.12600  Biso   1.000  H
  H74      1.0000 0.51590  0.27040  0.08080  Biso   1.000  H
  C59      1.0000 0.87230  0.97660  0.17110  Biso   1.000  C
  H75      1.0000 0.82930  0.02760  0.18940  Biso   1.000  H
  H76      1.0000 0.86490  0.85560  0.17180  Biso   1.000  H
  C60      1.0000 0.69290  0.30900  0.88140  Biso   1.000  C
  H77      1.0000 0.66900  0.20500  0.86800  Biso   1.000  H
  C61      1.0000 0.62570  0.25710  0.96120  Biso   1.000  C
  H78      1.0000 0.59820  0.15480  0.94960  Biso   1.000  H
  H79      1.0000 0.59160  0.30970  0.98490  Biso   1.000  H
  C62      1.0000 0.77680  0.26810  0.90820  Biso   1.000  C
  H80      1.0000 0.80260  0.37140  0.92030  Biso   1.000  H
  H81      1.0000 0.81290  0.21690  0.88530  Biso   1.000  H
  C63      1.0000 0.10920  0.99290  0.19010  Biso   1.000  C
  C64      1.0000 0.89230  0.72360  0.30960  Biso   1.000  C
  H82      1.0000 0.83780  0.68320  0.29850  Biso   1.000  H
  H83      1.0000 0.89830  0.83730  0.29740  Biso   1.000  H
  Tb4      1.0000 0.22311  0.34351  0.23280  Biso   1.000  Tb
  O19      1.0000 0.35080  0.37610  0.28765  Biso   1.000  O
  O20      1.0000 0.36690  0.64270  0.31195  Biso   1.000  O
  O21      1.0000 0.78480  0.87470  0.70343  Biso   1.000  O
  N19      1.0000 0.76460  0.64200  0.36892  Biso   1.000  N
  C65      1.0000 0.04840  0.65920  0.36520  Biso   1.000  C
  H84      1.0000 0.10260  0.69550  0.37830  Biso   1.000  H
  H85      1.0000 0.03930  0.54540  0.37650  Biso   1.000  H
  O22      1.0000 0.18320  0.60190  0.28487  Biso   1.000  O
  C66      1.0000 0.04560  0.66150  0.30920  Biso   1.000  C
  H86      1.0000 0.05700  0.77600  0.29800  Biso   1.000  H
  O23      1.0000 0.78920  0.08500  0.65204  Biso   1.000  O
  N20      1.0000 0.71040  0.62870  0.44870  Biso   1.000  N
  N21      1.0000 0.90000  0.72500  0.36340  Biso   1.000  N
  C67      1.0000 0.78510  0.68580  0.46610  Biso   1.000  C
  N22      1.0000 0.63500  0.53570  0.37960  Biso   1.000  N
  O24      1.0000 0.09410  0.39450  0.28052  Biso   1.000  O
  C68      1.0000 0.47430  0.44840  0.33490  Biso   1.000  C
  H87      1.0000 0.48000  0.32600  0.33600  Biso   1.000  H
  C69      1.0000 0.83670  0.69340  0.39170  Biso   1.000  C
  C70      1.0000 0.95840  0.61060  0.28880  Biso   1.000  C
  H88      1.0000 0.94800  0.49450  0.29750  Biso   1.000  H
  H89      1.0000 0.95530  0.61920  0.25330  Biso   1.000  H
  N23      1.0000 0.85070  0.71360  0.44050  Biso   1.000  N
  N24      1.0000 0.79300  0.71610  0.51540  Biso   1.000  N
  C71      1.0000 0.86450  0.87690  0.58210  Biso   1.000  C
  H90      1.0000 0.91850  0.89690  0.59860  Biso   1.000  H
  H91      1.0000 0.84340  0.98390  0.56970  Biso   1.000  H
  C72      1.0000 0.70650  0.60320  0.39990  Biso   1.000  C
  C73      1.0000 0.73400  0.64800  0.54870  Biso   1.000  C
  H92      1.0000 0.68090  0.63060  0.53090  Biso   1.000  H
  H93      1.0000 0.75370  0.53990  0.56110  Biso   1.000  H
  C74      1.0000 0.11060  0.54530  0.29090  Biso   1.000  C
  C75      1.0000 0.54370  0.52130  0.30500  Biso   1.000  C
  H94      1.0000 0.53810  0.64270  0.30310  Biso   1.000  H
  H95      1.0000 0.53880  0.47660  0.27190  Biso   1.000  H
  C76      1.0000 0.48560  0.51650  0.38670  Biso   1.000  C
  H96      1.0000 0.47950  0.63790  0.38600  Biso   1.000  H
  H97      1.0000 0.44290  0.47070  0.40630  Biso   1.000  H
  C77      1.0000 0.79410  0.92910  0.66020  Biso   1.000  C
  C78      1.0000 0.57050  0.47090  0.41030  Biso   1.000  C
  H98      1.0000 0.57540  0.34960  0.41330  Biso   1.000  H
  H99      1.0000 0.57720  0.51950  0.44290  Biso   1.000  H
  C79      1.0000 0.98250  0.77470  0.38360  Biso   1.000  C
  H100     1.0000 0.99370  0.88960  0.37400  Biso   1.000  H
  H101     1.0000 0.98410  0.77040  0.41920  Biso   1.000  H
  C80      1.0000 0.62770  0.47660  0.32890  Biso   1.000  C
  H102     1.0000 0.67070  0.52760  0.31060  Biso   1.000  H
  H103     1.0000 0.63510  0.35560  0.32820  Biso   1.000  H
  C81      1.0000 0.80710  0.80900  0.61860  Biso   1.000  C
  H104     1.0000 0.83100  0.70500  0.63200  Biso   1.000  H
  C82      1.0000 0.87430  0.75710  0.53880  Biso   1.000  C
  H105     1.0000 0.90180  0.65480  0.55040  Biso   1.000  H
  H106     1.0000 0.90840  0.80970  0.51510  Biso   1.000  H
  C83      1.0000 0.72320  0.76810  0.59180  Biso   1.000  C
  H107     1.0000 0.69740  0.87140  0.57970  Biso   1.000  H
  H108     1.0000 0.68710  0.71690  0.61470  Biso   1.000  H
  C84      1.0000 0.39080  0.49290  0.30990  Biso   1.000  C
