data_NOBVOR_clean
_audit_creation_date              2015-10-16
_audit_creation_method            'Materials Studio'
_symmetry_space_group_name_H-M    'P1'
_symmetry_Int_Tables_number       1
_symmetry_cell_setting            triclinic
loop_
_symmetry_equiv_pos_as_xyz
  x,y,z
_cell_length_a                    11.4527
_cell_length_b                    11.6239
_cell_length_c                    11.7754
_cell_angle_alpha                 64.8250
_cell_angle_beta                  81.4060
_cell_angle_gamma                 72.3160
loop_
_atom_site_label
_atom_site_type_symbol
_atom_site_fract_x
_atom_site_fract_y
_atom_site_fract_z
_atom_site_U_iso_or_equiv
_atom_site_adp_type
_atom_site_occupancy
Co1    Co    0.00000   0.00000   0.00000   0.01267  Uiso   1.00
Co2    Co    0.00000   0.00000   0.50000   0.01267  Uiso   1.00
Co3    Co    0.00000   0.50000   0.50000   0.01267  Uiso   1.00
H1     H     0.56160   0.56490   0.65410   0.01267  Uiso   1.00
H2     H     0.22120   0.00080   0.30880   0.01267  Uiso   1.00
H3     H     0.15890   0.18060   0.98670   0.01267  Uiso   1.00
H4     H     0.36160   0.59810   0.62550   0.01267  Uiso   1.00
H5     H     0.83160   0.27530   0.37100   0.01267  Uiso   1.00
H6     H     0.64910   0.81270   0.01800   0.01267  Uiso   1.00
H7     H     0.73740   0.18740   0.96120   0.01267  Uiso   1.00
H8     H     0.41760   0.87940   0.29650   0.01267  Uiso   1.00
H9     H     0.46140   0.80860   0.03020   0.01267  Uiso   1.00
H10    H     0.23310   0.52710   0.34020   0.01267  Uiso   1.00
H11    H     0.35090   0.18730   0.98200   0.01267  Uiso   1.00
H12    H     0.58240   0.12060   0.70350   0.01267  Uiso   1.00
H13    H     0.77880   0.99920   0.69120   0.01267  Uiso   1.00
H14    H     0.79580   0.62660   0.29530   0.01267  Uiso   1.00
H15    H     0.76690   0.47290   0.65980   0.01267  Uiso   1.00
H16    H     0.53860   0.19140   0.96980   0.01267  Uiso   1.00
H17    H     0.43840   0.43510   0.34590   0.01267  Uiso   1.00
H18    H     0.63840   0.40190   0.37450   0.01267  Uiso   1.00
H19    H     0.20420   0.37340   0.70470   0.01267  Uiso   1.00
H20    H     0.84110   0.81940   0.01330   0.01267  Uiso   1.00
H21    H     0.26260   0.81260   0.03880   0.01267  Uiso   1.00
H22    H     0.16840   0.72470   0.62900   0.01267  Uiso   1.00
H23    H     0.40940   0.27770   0.71920   0.01267  Uiso   1.00
H24    H     0.59060   0.72230   0.28080   0.01267  Uiso   1.00
C1     C     0.26910   0.47410   0.41790   0.01267  Uiso   1.00
C2     C     0.45110   0.34290   0.53240   0.01267  Uiso   1.00
C3     C     0.37510   0.32750   0.64030   0.01267  Uiso   1.00
C4     C     0.03860   0.96740   0.76770   0.01267  Uiso   1.00
C5     C     0.40140   0.88660   0.02070   0.01267  Uiso   1.00
C6     C     0.71850   0.10990   0.97540   0.01267  Uiso   1.00
C7     C     0.56420   0.00110   0.99760   0.01267  Uiso   1.00
C8     C     0.24990   0.91920   0.37420   0.01267  Uiso   1.00
C9     C     0.96140   0.03260   0.23230   0.01267  Uiso   1.00
C10    C     0.63100   0.15280   0.63290   0.01267  Uiso   1.00
C11    C     0.39300   0.41970   0.42080   0.01267  Uiso   1.00
C12    C     0.01920   0.11070   0.73020   0.01267  Uiso   1.00
C13    C     0.54890   0.65710   0.46760   0.01267  Uiso   1.00
C14    C     0.95110   0.75210   0.51420   0.01267  Uiso   1.00
C15    C     0.66400   0.89070   0.00830   0.01267  Uiso   1.00
C16    C     0.97910   0.77980   0.37970   0.01267  Uiso   1.00
C17    C     0.75010   0.08080   0.62580   0.01267  Uiso   1.00
C18    C     0.78030   0.24230   0.43870   0.01267  Uiso   1.00
C19    C     0.59860   0.11340   0.97930   0.01267  Uiso   1.00
C20    C     0.25160   0.38450   0.63130   0.01267  Uiso   1.00
C21    C     0.02090   0.22020   0.62030   0.01267  Uiso   1.00
C22    C     0.98080   0.88930   0.26980   0.01267  Uiso   1.00
C23    C     0.28150   0.89010   0.02460   0.01267  Uiso   1.00
C24    C     0.43580   0.99890   0.00240   0.01267  Uiso   1.00
C25    C     0.73090   0.52590   0.58210   0.01267  Uiso   1.00
C26    C     0.60700   0.58030   0.57920   0.01267  Uiso   1.00
C27    C     0.36900   0.84720   0.36710   0.01267  Uiso   1.00
C28    C     0.77880   0.89540   0.00500   0.01267  Uiso   1.00
C29    C     0.04890   0.24790   0.48580   0.01267  Uiso   1.00
C30    C     0.58370   0.27130   0.53690   0.01267  Uiso   1.00
C31    C     0.62490   0.67250   0.35970   0.01267  Uiso   1.00
C32    C     0.21970   0.75770   0.56130   0.01267  Uiso   1.00
C33    C     0.74840   0.61550   0.36870   0.01267  Uiso   1.00
C34    C     0.66390   0.31880   0.43900   0.01267  Uiso   1.00
C35    C     0.22120   0.10460   0.99500   0.01267  Uiso   1.00
C36    C     0.41630   0.72870   0.46310   0.01267  Uiso   1.00
C37    C     0.33610   0.68120   0.56100   0.01267  Uiso   1.00
C38    C     0.33600   0.10930   0.99170   0.01267  Uiso   1.00
N1     N     0.99560   0.32490   0.65230   0.01267  Uiso   1.00
N2     N     0.81090   0.00290   0.99050   0.01267  Uiso   1.00
N3     N     0.18910   0.99710   0.00950   0.01267  Uiso   1.00
N4     N     0.02410   0.71580   0.22510   0.01267  Uiso   1.00
N5     N     0.19650   0.45530   0.52120   0.01267  Uiso   1.00
N6     N     0.00440   0.67510   0.34770   0.01267  Uiso   1.00
N7     N     0.82670   0.12350   0.52820   0.01267  Uiso   1.00
N8     N     0.99000   0.15390   0.82440   0.01267  Uiso   1.00
N9     N     0.17330   0.87650   0.47180   0.01267  Uiso   1.00
N10    N     0.01000   0.84610   0.17560   0.01267  Uiso   1.00
N11    N     0.97590   0.28420   0.77490   0.01267  Uiso   1.00
N12    N     0.80350   0.54470   0.47880   0.01267  Uiso   1.00
O1     O     0.04620   0.92210   0.68710   0.01267  Uiso   1.00
O2     O     0.95100   0.10390   0.11660   0.01267  Uiso   1.00
O3     O     0.04900   0.89610   0.88340   0.01267  Uiso   1.00
O4     O     0.95540   0.63440   0.58600   0.01267  Uiso   1.00
O5     O     0.92060   0.84510   0.55090   0.01267  Uiso   1.00
O6     O     0.04460   0.36560   0.41400   0.01267  Uiso   1.00
O7     O     0.95380   0.07790   0.31290   0.01267  Uiso   1.00
O8     O     0.07940   0.15490   0.44910   0.01267  Uiso   1.00
