data_NOCKUM_clean
_audit_creation_date              2014-07-02
_audit_creation_method            'Materials Studio'
_symmetry_space_group_name_H-M    'P1'
_symmetry_Int_Tables_number       1
_symmetry_cell_setting            triclinic
loop_
_symmetry_equiv_pos_as_xyz
  x,y,z
_cell_length_a                    10.6840
_cell_length_b                    13.8482
_cell_length_c                    14.9604
_cell_angle_alpha                 76.4666
_cell_angle_beta                  69.0792
_cell_angle_gamma                 67.3094
loop_
_atom_site_label
_atom_site_type_symbol
_atom_site_fract_x
_atom_site_fract_y
_atom_site_fract_z
_atom_site_U_iso_or_equiv
_atom_site_adp_type
_atom_site_occupancy
Ca1    Ca    0.50665   0.96810   0.38326   0.01267  Uiso   1.00
Ca2    Ca    0.85801   0.53190   0.11674   0.01267  Uiso   1.00
Ca3    Ca    0.49335   0.03190   0.61674   0.01267  Uiso   1.00
Ca4    Ca    0.14199   0.46810   0.88326   0.01267  Uiso   1.00
Ca5    Ca    0.78306   0.75000   0.25000   0.01267  Uiso   1.00
Ca6    Ca    0.21694   0.25000   0.75000   0.01267  Uiso   1.00
H1     H     0.72940   0.18050   0.24570   0.01267  Uiso   1.00
H2     H     0.81710   0.31210   0.14910   0.01267  Uiso   1.00
H3     H     0.13870   0.09440   0.98400   0.01267  Uiso   1.00
H4     H     0.05410   0.96250   0.08470   0.01267  Uiso   1.00
H5     H     0.63060   0.83780   0.06460   0.01267  Uiso   1.00
H6     H     0.36920   0.13790   0.09510   0.01267  Uiso   1.00
H7     H     0.15560   0.31950   0.25430   0.01267  Uiso   1.00
H8     H     0.27830   0.18790   0.35090   0.01267  Uiso   1.00
H9     H     0.21710   0.40560   0.51600   0.01267  Uiso   1.00
H10    H     0.10130   0.53750   0.41530   0.01267  Uiso   1.00
H11    H     0.53300   0.66220   0.43540   0.01267  Uiso   1.00
H12    H     0.60220   0.36210   0.40490   0.01267  Uiso   1.00
H13    H     0.27060   0.81950   0.75430   0.01267  Uiso   1.00
H14    H     0.18290   0.68790   0.85090   0.01267  Uiso   1.00
H15    H     0.86130   0.90560   0.01600   0.01267  Uiso   1.00
H16    H     0.94590   0.03750   0.91530   0.01267  Uiso   1.00
H17    H     0.36940   0.16220   0.93540   0.01267  Uiso   1.00
H18    H     0.63080   0.86210   0.90490   0.01267  Uiso   1.00
H19    H     0.84440   0.68050   0.74570   0.01267  Uiso   1.00
H20    H     0.72170   0.81210   0.64910   0.01267  Uiso   1.00
H21    H     0.78290   0.59440   0.48400   0.01267  Uiso   1.00
H22    H     0.89870   0.46250   0.58470   0.01267  Uiso   1.00
H23    H     0.46700   0.33780   0.56460   0.01267  Uiso   1.00
H24    H     0.39780   0.63790   0.59510   0.01267  Uiso   1.00
C1     C     0.82160   0.97510   0.23670   0.01267  Uiso   1.00
C2     C     0.88260   0.05860   0.17440   0.01267  Uiso   1.00
C3     C     0.81320   0.16290   0.19290   0.01267  Uiso   1.00
C4     C     0.86470   0.24110   0.13530   0.01267  Uiso   1.00
C5     C     0.98700   0.21590   0.05670   0.01267  Uiso   1.00
C6     C     0.04060   0.30230   0.99370   0.01267  Uiso   1.00
C7     C     0.05630   0.11190   0.03770   0.01267  Uiso   1.00
C8     C     0.00500   0.03380   0.09700   0.01267  Uiso   1.00
C9     C     0.49860   0.97170   0.19850   0.01267  Uiso   1.00
C10    C     0.49830   0.98530   0.09570   0.01267  Uiso   1.00
C11    C     0.57700   0.90380   0.03860   0.01267  Uiso   1.00
C12    C     0.42230   0.08150   0.05650   0.01267  Uiso   1.00
C13    C     0.03340   0.52490   0.26330   0.01267  Uiso   1.00
C14    C     0.11560   0.44140   0.32560   0.01267  Uiso   1.00
C15    C     0.16900   0.33710   0.30710   0.01267  Uiso   1.00
C16    C     0.24110   0.25890   0.36470   0.01267  Uiso   1.00
C17    C     0.25960   0.28410   0.44330   0.01267  Uiso   1.00
C18    C     0.33660   0.19770   0.50630   0.01267  Uiso   1.00
C19    C     0.20590   0.38810   0.46230   0.01267  Uiso   1.00
C20    C     0.13580   0.46620   0.40300   0.01267  Uiso   1.00
C21    C     0.66880   0.52830   0.30150   0.01267  Uiso   1.00
C22    C     0.57930   0.51470   0.40430   0.01267  Uiso   1.00
C23    C     0.51940   0.59620   0.46140   0.01267  Uiso   1.00
C24    C     0.56030   0.41850   0.44350   0.01267  Uiso   1.00
C25    C     0.17840   0.02490   0.76330   0.01267  Uiso   1.00
C26    C     0.11740   0.94140   0.82560   0.01267  Uiso   1.00
C27    C     0.18680   0.83710   0.80710   0.01267  Uiso   1.00
C28    C     0.13530   0.75890   0.86470   0.01267  Uiso   1.00
C29    C     0.01300   0.78410   0.94330   0.01267  Uiso   1.00
C30    C     0.95940   0.69770   0.00630   0.01267  Uiso   1.00
C31    C     0.94370   0.88810   0.96230   0.01267  Uiso   1.00
C32    C     0.99500   0.96620   0.90300   0.01267  Uiso   1.00
C33    C     0.50140   0.02830   0.80150   0.01267  Uiso   1.00
C34    C     0.50170   0.01470   0.90430   0.01267  Uiso   1.00
C35    C     0.42300   0.09620   0.96140   0.01267  Uiso   1.00
C36    C     0.57770   0.91850   0.94350   0.01267  Uiso   1.00
C37    C     0.96660   0.47510   0.73670   0.01267  Uiso   1.00
C38    C     0.88440   0.55860   0.67440   0.01267  Uiso   1.00
C39    C     0.83100   0.66290   0.69290   0.01267  Uiso   1.00
C40    C     0.75890   0.74110   0.63530   0.01267  Uiso   1.00
C41    C     0.74040   0.71590   0.55670   0.01267  Uiso   1.00
C42    C     0.66340   0.80230   0.49370   0.01267  Uiso   1.00
C43    C     0.79410   0.61190   0.53770   0.01267  Uiso   1.00
C44    C     0.86420   0.53380   0.59700   0.01267  Uiso   1.00
C45    C     0.33120   0.47170   0.69850   0.01267  Uiso   1.00
C46    C     0.42070   0.48530   0.59570   0.01267  Uiso   1.00
C47    C     0.48060   0.40380   0.53860   0.01267  Uiso   1.00
C48    C     0.43970   0.58150   0.55650   0.01267  Uiso   1.00
O1     O     0.71126   0.00599   0.30709   0.01267  Uiso   1.00
O2     O     0.87973   0.88307   0.21387   0.01267  Uiso   1.00
O3     O     0.13203   0.28499   0.91335   0.01267  Uiso   1.00
O4     O     0.99317   0.39136   0.02490   0.01267  Uiso   1.00
O5     O     0.57412   0.88491   0.23285   0.01267  Uiso   1.00
O6     O     0.42305   0.04755   0.24755   0.01267  Uiso   1.00
O7     O     0.02434   0.49401   0.19291   0.01267  Uiso   1.00
O8     O     0.97667   0.61693   0.28613   0.01267  Uiso   1.00
O9     O     0.33037   0.21501   0.58665   0.01267  Uiso   1.00
O10    O     0.40943   0.10864   0.47510   0.01267  Uiso   1.00
O11    O     0.69188   0.61509   0.26715   0.01267  Uiso   1.00
O12    O     0.71815   0.45245   0.25245   0.01267  Uiso   1.00
O13    O     0.28874   0.99401   0.69291   0.01267  Uiso   1.00
O14    O     0.12027   0.11693   0.78613   0.01267  Uiso   1.00
O15    O     0.86797   0.71501   0.08665   0.01267  Uiso   1.00
O16    O     0.00683   0.60864   0.97510   0.01267  Uiso   1.00
O17    O     0.42588   0.11509   0.76715   0.01267  Uiso   1.00
O18    O     0.57695   0.95245   0.75245   0.01267  Uiso   1.00
O19    O     0.97566   0.50599   0.80709   0.01267  Uiso   1.00
O20    O     0.02333   0.38307   0.71387   0.01267  Uiso   1.00
O21    O     0.66963   0.78499   0.41335   0.01267  Uiso   1.00
O22    O     0.59057   0.89136   0.52490   0.01267  Uiso   1.00
O23    O     0.30812   0.38491   0.73285   0.01267  Uiso   1.00
O24    O     0.28185   0.54755   0.74755   0.01267  Uiso   1.00
