data_NOCKOG_clean
_audit_creation_date              2014-07-02
_audit_creation_method            'Materials Studio'
_symmetry_space_group_name_H-M    'P1'
_symmetry_Int_Tables_number       1
_symmetry_cell_setting            triclinic
loop_
_symmetry_equiv_pos_as_xyz
  x,y,z
_cell_length_a                    9.9410
_cell_length_b                    13.6270
_cell_length_c                    17.6860
_cell_angle_alpha                 92.7320
_cell_angle_beta                  90.0000
_cell_angle_gamma                 90.0000
loop_
_atom_site_label
_atom_site_type_symbol
_atom_site_fract_x
_atom_site_fract_y
_atom_site_fract_z
_atom_site_U_iso_or_equiv
_atom_site_adp_type
_atom_site_occupancy
Mg1    Mg    0.06872   0.89584   0.96419   0.01267  Uiso   1.00
Mg2    Mg    0.92959   0.65760   0.97650   0.01267  Uiso   1.00
Mg3    Mg    0.56872   0.10416   0.53581   0.01267  Uiso   1.00
Mg4    Mg    0.42959   0.34240   0.52350   0.01267  Uiso   1.00
Mg5    Mg    0.93128   0.10416   0.03581   0.01267  Uiso   1.00
Mg6    Mg    0.07041   0.34240   0.02350   0.01267  Uiso   1.00
Mg7    Mg    0.43128   0.89584   0.46419   0.01267  Uiso   1.00
Mg8    Mg    0.57041   0.65760   0.47650   0.01267  Uiso   1.00
H1     H     0.80770   0.98050   0.78870   0.01267  Uiso   1.00
H2     H     0.69770   0.00240   0.67410   0.01267  Uiso   1.00
H3     H     0.62580   0.70920   0.65170   0.01267  Uiso   1.00
H4     H     0.72050   0.68920   0.77110   0.01267  Uiso   1.00
H5     H     0.28270   0.81240   0.75580   0.01267  Uiso   1.00
H6     H     0.37740   0.73900   0.64600   0.01267  Uiso   1.00
H7     H     0.28890   0.47110   0.72390   0.01267  Uiso   1.00
H8     H     0.19810   0.54400   0.83400   0.01267  Uiso   1.00
H9     H     0.30770   0.01950   0.71130   0.01267  Uiso   1.00
H10    H     0.19770   0.99760   0.82590   0.01267  Uiso   1.00
H11    H     0.12580   0.29080   0.84830   0.01267  Uiso   1.00
H12    H     0.22050   0.31080   0.72890   0.01267  Uiso   1.00
H13    H     0.78270   0.18760   0.74420   0.01267  Uiso   1.00
H14    H     0.87740   0.26100   0.85400   0.01267  Uiso   1.00
H15    H     0.78890   0.52890   0.77610   0.01267  Uiso   1.00
H16    H     0.69810   0.45600   0.66600   0.01267  Uiso   1.00
H17    H     0.19230   0.01950   0.21130   0.01267  Uiso   1.00
H18    H     0.30230   0.99760   0.32590   0.01267  Uiso   1.00
H19    H     0.37420   0.29080   0.34830   0.01267  Uiso   1.00
H20    H     0.27950   0.31080   0.22890   0.01267  Uiso   1.00
H21    H     0.71730   0.18760   0.24420   0.01267  Uiso   1.00
H22    H     0.62260   0.26100   0.35400   0.01267  Uiso   1.00
H23    H     0.71110   0.52890   0.27610   0.01267  Uiso   1.00
H24    H     0.80190   0.45600   0.16600   0.01267  Uiso   1.00
H25    H     0.69230   0.98050   0.28870   0.01267  Uiso   1.00
H26    H     0.80230   0.00240   0.17410   0.01267  Uiso   1.00
H27    H     0.87420   0.70920   0.15170   0.01267  Uiso   1.00
H28    H     0.77950   0.68920   0.27110   0.01267  Uiso   1.00
H29    H     0.21730   0.81240   0.25580   0.01267  Uiso   1.00
H30    H     0.12260   0.73900   0.14600   0.01267  Uiso   1.00
H31    H     0.21110   0.47110   0.22390   0.01267  Uiso   1.00
H32    H     0.30190   0.54400   0.33400   0.01267  Uiso   1.00
C1     C     0.84570   0.81860   0.86520   0.01267  Uiso   1.00
C2     C     0.77490   0.83280   0.79000   0.01267  Uiso   1.00
C3     C     0.76860   0.92590   0.76140   0.01267  Uiso   1.00
C4     C     0.70500   0.93850   0.69300   0.01267  Uiso   1.00
C5     C     0.65180   0.85810   0.65160   0.01267  Uiso   1.00
C6     C     0.66020   0.76450   0.68030   0.01267  Uiso   1.00
C7     C     0.71870   0.75220   0.75030   0.01267  Uiso   1.00
C8     C     0.58540   0.87230   0.57770   0.01267  Uiso   1.00
C9     C     0.17010   0.73490   0.87580   0.01267  Uiso   1.00
C10    C     0.23220   0.68600   0.80530   0.01267  Uiso   1.00
C11    C     0.28500   0.74280   0.74930   0.01267  Uiso   1.00
C12    C     0.34090   0.69960   0.68390   0.01267  Uiso   1.00
C13    C     0.34270   0.59660   0.67470   0.01267  Uiso   1.00
C14    C     0.28840   0.54060   0.73070   0.01267  Uiso   1.00
C15    C     0.23390   0.58350   0.79590   0.01267  Uiso   1.00
C16    C     0.40270   0.54830   0.60310   0.01267  Uiso   1.00
C17    C     0.34570   0.18140   0.63480   0.01267  Uiso   1.00
C18    C     0.27490   0.16720   0.71000   0.01267  Uiso   1.00
C19    C     0.26860   0.07410   0.73860   0.01267  Uiso   1.00
C20    C     0.20500   0.06150   0.80700   0.01267  Uiso   1.00
C21    C     0.15180   0.14190   0.84840   0.01267  Uiso   1.00
C22    C     0.16020   0.23550   0.81970   0.01267  Uiso   1.00
C23    C     0.21870   0.24780   0.74970   0.01267  Uiso   1.00
C24    C     0.08540   0.12770   0.92230   0.01267  Uiso   1.00
C25    C     0.67010   0.26510   0.62420   0.01267  Uiso   1.00
C26    C     0.73220   0.31400   0.69470   0.01267  Uiso   1.00
C27    C     0.78500   0.25720   0.75070   0.01267  Uiso   1.00
C28    C     0.84090   0.30040   0.81610   0.01267  Uiso   1.00
C29    C     0.84270   0.40340   0.82530   0.01267  Uiso   1.00
C30    C     0.78840   0.45940   0.76930   0.01267  Uiso   1.00
C31    C     0.73390   0.41650   0.70410   0.01267  Uiso   1.00
C32    C     0.90270   0.45170   0.89690   0.01267  Uiso   1.00
C33    C     0.15430   0.18140   0.13480   0.01267  Uiso   1.00
C34    C     0.22510   0.16720   0.21000   0.01267  Uiso   1.00
C35    C     0.23140   0.07410   0.23860   0.01267  Uiso   1.00
C36    C     0.29500   0.06150   0.30700   0.01267  Uiso   1.00
C37    C     0.34820   0.14190   0.34840   0.01267  Uiso   1.00
C38    C     0.33980   0.23550   0.31970   0.01267  Uiso   1.00
C39    C     0.28130   0.24780   0.24970   0.01267  Uiso   1.00
C40    C     0.41460   0.12770   0.42230   0.01267  Uiso   1.00
C41    C     0.82990   0.26510   0.12420   0.01267  Uiso   1.00
C42    C     0.76780   0.31400   0.19470   0.01267  Uiso   1.00
C43    C     0.71500   0.25720   0.25070   0.01267  Uiso   1.00
C44    C     0.65910   0.30040   0.31610   0.01267  Uiso   1.00
C45    C     0.65730   0.40340   0.32530   0.01267  Uiso   1.00
C46    C     0.71160   0.45940   0.26930   0.01267  Uiso   1.00
C47    C     0.76610   0.41650   0.20410   0.01267  Uiso   1.00
C48    C     0.59730   0.45170   0.39690   0.01267  Uiso   1.00
C49    C     0.65430   0.81860   0.36520   0.01267  Uiso   1.00
C50    C     0.72510   0.83280   0.29000   0.01267  Uiso   1.00
C51    C     0.73140   0.92590   0.26140   0.01267  Uiso   1.00
C52    C     0.79500   0.93850   0.19300   0.01267  Uiso   1.00
C53    C     0.84820   0.85810   0.15160   0.01267  Uiso   1.00
C54    C     0.83980   0.76450   0.18030   0.01267  Uiso   1.00
C55    C     0.78130   0.75220   0.25030   0.01267  Uiso   1.00
C56    C     0.91460   0.87230   0.07770   0.01267  Uiso   1.00
C57    C     0.32990   0.73490   0.37580   0.01267  Uiso   1.00
C58    C     0.26780   0.68600   0.30530   0.01267  Uiso   1.00
C59    C     0.21500   0.74280   0.24930   0.01267  Uiso   1.00
C60    C     0.15910   0.69960   0.18390   0.01267  Uiso   1.00
C61    C     0.15730   0.59660   0.17470   0.01267  Uiso   1.00
C62    C     0.21160   0.54060   0.23070   0.01267  Uiso   1.00
C63    C     0.26610   0.58350   0.29590   0.01267  Uiso   1.00
C64    C     0.09730   0.54830   0.10310   0.01267  Uiso   1.00
O1     O     0.91810   0.88840   0.88900   0.01267  Uiso   1.00
O2     O     0.82620   0.73960   0.89720   0.01267  Uiso   1.00
O3     O     0.58020   0.95830   0.55300   0.01267  Uiso   1.00
O4     O     0.53180   0.80160   0.53970   0.01267  Uiso   1.00
O5     O     0.18930   0.82630   0.88740   0.01267  Uiso   1.00
O6     O     0.10360   0.68330   0.91920   0.01267  Uiso   1.00
O7     O     0.37620   0.46020   0.59030   0.01267  Uiso   1.00
O8     O     0.47790   0.60060   0.56410   0.01267  Uiso   1.00
O9     O     0.41810   0.11160   0.61100   0.01267  Uiso   1.00
O10    O     0.32620   0.26040   0.60280   0.01267  Uiso   1.00
O11    O     0.08020   0.04170   0.94700   0.01267  Uiso   1.00
O12    O     0.03180   0.19840   0.96030   0.01267  Uiso   1.00
O13    O     0.68930   0.17370   0.61260   0.01267  Uiso   1.00
O14    O     0.60360   0.31670   0.58080   0.01267  Uiso   1.00
O15    O     0.87620   0.53980   0.90970   0.01267  Uiso   1.00
O16    O     0.97790   0.39940   0.93590   0.01267  Uiso   1.00
O17    O     0.08190   0.11160   0.11100   0.01267  Uiso   1.00
O18    O     0.17380   0.26040   0.10280   0.01267  Uiso   1.00
O19    O     0.41980   0.04170   0.44700   0.01267  Uiso   1.00
O20    O     0.46820   0.19840   0.46030   0.01267  Uiso   1.00
O21    O     0.81070   0.17370   0.11260   0.01267  Uiso   1.00
O22    O     0.89640   0.31670   0.08080   0.01267  Uiso   1.00
O23    O     0.62380   0.53980   0.40970   0.01267  Uiso   1.00
O24    O     0.52210   0.39940   0.43590   0.01267  Uiso   1.00
O25    O     0.58190   0.88840   0.38900   0.01267  Uiso   1.00
O26    O     0.67380   0.73960   0.39720   0.01267  Uiso   1.00
O27    O     0.91980   0.95830   0.05300   0.01267  Uiso   1.00
O28    O     0.96820   0.80160   0.03970   0.01267  Uiso   1.00
O29    O     0.31070   0.82630   0.38740   0.01267  Uiso   1.00
O30    O     0.39640   0.68330   0.41920   0.01267  Uiso   1.00
O31    O     0.12380   0.46020   0.09030   0.01267  Uiso   1.00
O32    O     0.02210   0.60060   0.06410   0.01267  Uiso   1.00
