data_NOCLOH_clean
_audit_creation_date              2014-07-02
_audit_creation_method            'Materials Studio'
_symmetry_space_group_name_H-M    'P1'
_symmetry_Int_Tables_number       1
_symmetry_cell_setting            triclinic
loop_
_symmetry_equiv_pos_as_xyz
  x,y,z
_cell_length_a                    9.8060
_cell_length_b                    10.5990
_cell_length_c                    10.5990
_cell_angle_alpha                 120.0000
_cell_angle_beta                  90.0000
_cell_angle_gamma                 90.0000
loop_
_atom_site_label
_atom_site_type_symbol
_atom_site_fract_x
_atom_site_fract_y
_atom_site_fract_z
_atom_site_U_iso_or_equiv
_atom_site_adp_type
_atom_site_occupancy
Sr1    Sr    0.12349   0.68831   0.23478   0.01267  Uiso   1.00
Sr2    Sr    0.45682   0.54647   0.31169   0.01267  Uiso   1.00
Sr3    Sr    0.79016   0.76522   0.45353   0.01267  Uiso   1.00
H1     H     0.52077   0.52780   0.98260   0.01267  Uiso   1.00
H2     H     0.45037   0.51460   0.76890   0.01267  Uiso   1.00
H3     H     0.81477   0.66600   0.73150   0.01267  Uiso   1.00
H4     H     0.88577   0.67820   0.94580   0.01267  Uiso   1.00
H5     H     0.85410   0.45480   0.47220   0.01267  Uiso   1.00
H6     H     0.78370   0.25430   0.48540   0.01267  Uiso   1.00
H7     H     0.14810   0.06550   0.33400   0.01267  Uiso   1.00
H8     H     0.21910   0.26760   0.32180   0.01267  Uiso   1.00
H9     H     0.18744   0.01740   0.54520   0.01267  Uiso   1.00
H10    H     0.11704   0.23110   0.74570   0.01267  Uiso   1.00
H11    H     0.48144   0.26850   0.93450   0.01267  Uiso   1.00
H12    H     0.55244   0.05420   0.73240   0.01267  Uiso   1.00
C1     C     0.75300   0.61610   0.12870   0.01267  Uiso   1.00
C2     C     0.70950   0.60340   0.98560   0.01267  Uiso   1.00
C3     C     0.58000   0.55530   0.93210   0.01267  Uiso   1.00
C4     C     0.53770   0.54760   0.80410   0.01267  Uiso   1.00
C5     C     0.62530   0.58900   0.72730   0.01267  Uiso   1.00
C6     C     0.57520   0.57970   0.58820   0.01267  Uiso   1.00
C7     C     0.75580   0.63800   0.78170   0.01267  Uiso   1.00
C8     C     0.79850   0.64540   0.91010   0.01267  Uiso   1.00
C9     C     0.08633   0.51260   0.38390   0.01267  Uiso   1.00
C10    C     0.04283   0.38220   0.39660   0.01267  Uiso   1.00
C11    C     0.91333   0.37680   0.44470   0.01267  Uiso   1.00
C12    C     0.87103   0.25650   0.45240   0.01267  Uiso   1.00
C13    C     0.95863   0.13830   0.41100   0.01267  Uiso   1.00
C14    C     0.90853   0.00850   0.42030   0.01267  Uiso   1.00
C15    C     0.08913   0.14370   0.36200   0.01267  Uiso   1.00
C16    C     0.13183   0.26470   0.35460   0.01267  Uiso   1.00
C17    C     0.41967   0.87130   0.48740   0.01267  Uiso   1.00
C18    C     0.37617   0.01440   0.61780   0.01267  Uiso   1.00
C19    C     0.24667   0.06790   0.62320   0.01267  Uiso   1.00
C20    C     0.20437   0.19590   0.74350   0.01267  Uiso   1.00
C21    C     0.29197   0.27270   0.86170   0.01267  Uiso   1.00
C22    C     0.24187   0.41180   0.99150   0.01267  Uiso   1.00
C23    C     0.42247   0.21830   0.85630   0.01267  Uiso   1.00
C24    C     0.46517   0.08990   0.73530   0.01267  Uiso   1.00
O1     O     0.87100   0.65930   0.17470   0.01267  Uiso   1.00
O2     O     0.66640   0.58740   0.19940   0.01267  Uiso   1.00
O3     O     0.45240   0.55680   0.55760   0.01267  Uiso   1.00
O4     O     0.66192   0.59340   0.50650   0.01267  Uiso   1.00
O5     O     0.20433   0.51540   0.34070   0.01267  Uiso   1.00
O6     O     0.99973   0.61200   0.41260   0.01267  Uiso   1.00
O7     O     0.78573   0.00080   0.44320   0.01267  Uiso   1.00
O8     O     0.99525   0.91310   0.40660   0.01267  Uiso   1.00
O9     O     0.53767   0.82530   0.48460   0.01267  Uiso   1.00
O10    O     0.33307   0.80060   0.38800   0.01267  Uiso   1.00
O11    O     0.11907   0.44240   0.99920   0.01267  Uiso   1.00
O12    O     0.32859   0.49350   0.08690   0.01267  Uiso   1.00
