data_NOCLOH01_clean
_audit_creation_date              2014-07-02
_audit_creation_method            'Materials Studio'
_symmetry_space_group_name_H-M    'P1'
_symmetry_Int_Tables_number       1
_symmetry_cell_setting            triclinic
loop_
_symmetry_equiv_pos_as_xyz
  x,y,z
_cell_length_a                    9.8289
_cell_length_b                    10.6123
_cell_length_c                    10.6123
_cell_angle_alpha                 120.0000
_cell_angle_beta                  90.0000
_cell_angle_gamma                 90.0000
loop_
_atom_site_label
_atom_site_type_symbol
_atom_site_fract_x
_atom_site_fract_y
_atom_site_fract_z
_atom_site_U_iso_or_equiv
_atom_site_adp_type
_atom_site_occupancy
Sr1    Sr    0.16665   0.90139   0.02178   0.01267  Uiso   1.00
Sr2    Sr    0.83332   0.12039   0.09861   0.01267  Uiso   1.00
Sr3    Sr    0.49998   0.97822   0.87961   0.01267  Uiso   1.00
H1     H     0.89670   0.13300   0.78440   0.01267  Uiso   1.00
H2     H     0.82790   0.14810   0.58440   0.01267  Uiso   1.00
H3     H     0.19330   0.00740   0.40220   0.01267  Uiso   1.00
H4     H     0.26230   0.99250   0.60180   0.01267  Uiso   1.00
H5     H     0.56337   0.65140   0.86700   0.01267  Uiso   1.00
H6     H     0.49457   0.43630   0.85190   0.01267  Uiso   1.00
H7     H     0.85997   0.39480   0.99260   0.01267  Uiso   1.00
H8     H     0.92897   0.60930   0.00750   0.01267  Uiso   1.00
H9     H     0.23003   0.21560   0.34860   0.01267  Uiso   1.00
H10    H     0.16123   0.41560   0.56370   0.01267  Uiso   1.00
H11    H     0.52663   0.59780   0.60520   0.01267  Uiso   1.00
H12    H     0.59563   0.39820   0.39070   0.01267  Uiso   1.00
C1     C     0.12830   0.04910   0.84420   0.01267  Uiso   1.00
C2     C     0.08620   0.06190   0.71410   0.01267  Uiso   1.00
C3     C     0.95680   0.10780   0.70770   0.01267  Uiso   1.00
C4     C     0.91560   0.11680   0.58750   0.01267  Uiso   1.00
C5     C     0.00330   0.07980   0.47200   0.01267  Uiso   1.00
C6     C     0.95430   0.08850   0.34230   0.01267  Uiso   1.00
C7     C     0.13330   0.03300   0.47900   0.01267  Uiso   1.00
C8     C     0.17480   0.02400   0.59850   0.01267  Uiso   1.00
C9     C     0.79497   0.79510   0.95090   0.01267  Uiso   1.00
C10    C     0.75287   0.65220   0.93810   0.01267  Uiso   1.00
C11    C     0.62347   0.59990   0.89220   0.01267  Uiso   1.00
C12    C     0.58227   0.47070   0.88320   0.01267  Uiso   1.00
C13    C     0.66997   0.39220   0.92020   0.01267  Uiso   1.00
C14    C     0.62097   0.25380   0.91150   0.01267  Uiso   1.00
C15    C     0.79997   0.44600   0.96700   0.01267  Uiso   1.00
C16    C     0.84147   0.57450   0.97600   0.01267  Uiso   1.00
C17    C     0.46163   0.15580   0.20490   0.01267  Uiso   1.00
C18    C     0.41953   0.28590   0.34780   0.01267  Uiso   1.00
C19    C     0.29013   0.29230   0.40010   0.01267  Uiso   1.00
C20    C     0.24893   0.41250   0.52930   0.01267  Uiso   1.00
C21    C     0.33663   0.52800   0.60780   0.01267  Uiso   1.00
C22    C     0.28763   0.65770   0.74620   0.01267  Uiso   1.00
C23    C     0.46663   0.52100   0.55400   0.01267  Uiso   1.00
C24    C     0.50813   0.40150   0.42550   0.01267  Uiso   1.00
O1     O     0.04150   0.07470   0.94180   0.01267  Uiso   1.00
O2     O     0.24610   0.00710   0.84760   0.01267  Uiso   1.00
O3     O     0.83190   0.11460   0.33590   0.01267  Uiso   1.00
O4     O     0.03960   0.07410   0.24700   0.01267  Uiso   1.00
O5     O     0.70817   0.86710   0.92530   0.01267  Uiso   1.00
O6     O     0.91277   0.84050   0.99290   0.01267  Uiso   1.00
O7     O     0.49857   0.22130   0.88540   0.01267  Uiso   1.00
O8     O     0.70627   0.17290   0.92590   0.01267  Uiso   1.00
O9     O     0.37483   0.05820   0.13290   0.01267  Uiso   1.00
O10    O     0.57943   0.15240   0.15950   0.01267  Uiso   1.00
O11    O     0.16523   0.66410   0.77870   0.01267  Uiso   1.00
O12    O     0.37293   0.75300   0.82710   0.01267  Uiso   1.00
