data_NOCZAI_clean
_audit_creation_date              2015-10-16
_audit_creation_method            'Materials Studio'
_symmetry_space_group_name_H-M    'P1'
_symmetry_Int_Tables_number       1
_symmetry_cell_setting            triclinic
loop_
_symmetry_equiv_pos_as_xyz
  x,y,z
_cell_length_a                    7.8340
_cell_length_b                    13.7820
_cell_length_c                    13.7980
_cell_angle_alpha                 107.5770
_cell_angle_beta                  97.3280
_cell_angle_gamma                 97.0340
loop_
_atom_site_label
_atom_site_type_symbol
_atom_site_fract_x
_atom_site_fract_y
_atom_site_fract_z
_atom_site_U_iso_or_equiv
_atom_site_adp_type
_atom_site_occupancy
Sr1    Sr    0.95569   0.37351   0.87300   0.01267  Uiso   1.00
Sr2    Sr    0.39790   0.29768   0.79457   0.01267  Uiso   1.00
Sr3    Sr    0.04431   0.62649   0.12700   0.01267  Uiso   1.00
Sr4    Sr    0.60210   0.70232   0.20543   0.01267  Uiso   1.00
Ni1    Ni    0.97480   0.75517   0.73631   0.01267  Uiso   1.00
Ni2    Ni    0.02520   0.24483   0.26369   0.01267  Uiso   1.00
H1     H     0.37310   0.56820   0.52970   0.01267  Uiso   1.00
H2     H     0.26550   0.15230   0.02500   0.01267  Uiso   1.00
H3     H     0.65580   0.28600   0.19560   0.01267  Uiso   1.00
H4     H     0.25480   0.53820   0.66340   0.01267  Uiso   1.00
H5     H     0.34420   0.71400   0.80440   0.01267  Uiso   1.00
H6     H     0.74520   0.46180   0.33660   0.01267  Uiso   1.00
H7     H     0.71630   0.55050   0.63410   0.01267  Uiso   1.00
H8     H     0.57350   0.77910   0.74390   0.01267  Uiso   1.00
H9     H     0.28370   0.44950   0.36590   0.01267  Uiso   1.00
H10    H     0.35820   0.01070   0.05550   0.01267  Uiso   1.00
H11    H     0.73450   0.84770   0.97500   0.01267  Uiso   1.00
H12    H     0.64180   0.98930   0.94450   0.01267  Uiso   1.00
H13    H     0.60370   0.39860   0.09800   0.01267  Uiso   1.00
H14    H     0.75290   0.15110   0.05810   0.01267  Uiso   1.00
H15    H     0.62690   0.43180   0.47030   0.01267  Uiso   1.00
H16    H     0.24710   0.84890   0.94190   0.01267  Uiso   1.00
H17    H     0.42650   0.22090   0.25610   0.01267  Uiso   1.00
H18    H     0.39630   0.60140   0.90200   0.01267  Uiso   1.00
C1     C     0.20600   0.90590   0.93120   0.01267  Uiso   1.00
C2     C     0.97530   0.60750   0.32770   0.01267  Uiso   1.00
C3     C     0.23200   0.43930   0.42000   0.01267  Uiso   1.00
C4     C     0.54600   0.30310   0.18300   0.01267  Uiso   1.00
C5     C     0.28900   0.51040   0.51830   0.01267  Uiso   1.00
C6     C     0.32500   0.47140   0.04760   0.01267  Uiso   1.00
C7     C     0.21620   0.35360   0.14710   0.01267  Uiso   1.00
C8     C     0.88440   0.25320   0.44570   0.01267  Uiso   1.00
C9     C     0.40950   0.26570   0.21850   0.01267  Uiso   1.00
C10    C     0.67500   0.52860   0.95240   0.01267  Uiso   1.00
C11    C     0.78380   0.64640   0.85290   0.01267  Uiso   1.00
C12    C     0.96660   0.65740   0.52220   0.01267  Uiso   1.00
C13    C     0.03340   0.34260   0.47780   0.01267  Uiso   1.00
C14    C     0.03170   0.16980   0.88360   0.01267  Uiso   1.00
C15    C     0.11560   0.74680   0.55430   0.01267  Uiso   1.00
C16    C     0.48780   0.62860   0.87590   0.01267  Uiso   1.00
C17    C     0.02470   0.39250   0.67230   0.01267  Uiso   1.00
C18    C     0.12130   0.05390   0.25840   0.01267  Uiso   1.00
C19    C     0.51220   0.37140   0.12410   0.01267  Uiso   1.00
C20    C     0.21720   0.49280   0.59660   0.01267  Uiso   1.00
C21    C     0.79400   0.09410   0.06880   0.01267  Uiso   1.00
C22    C     0.91130   0.92560   0.10180   0.01267  Uiso   1.00
C23    C     0.97900   0.02570   0.16620   0.01267  Uiso   1.00
C24    C     0.87870   0.94610   0.74160   0.01267  Uiso   1.00
C25    C     0.71100   0.48960   0.48170   0.01267  Uiso   1.00
C26    C     0.03150   0.37260   0.13290   0.01267  Uiso   1.00
C27    C     0.21690   0.08630   0.98070   0.01267  Uiso   1.00
C28    C     0.96850   0.62740   0.86710   0.01267  Uiso   1.00
C29    C     0.72610   0.99770   0.00160   0.01267  Uiso   1.00
C30    C     0.08820   0.40790   0.57870   0.01267  Uiso   1.00
C31    C     0.78280   0.50720   0.40340   0.01267  Uiso   1.00
C32    C     0.64000   0.60360   0.89400   0.01267  Uiso   1.00
C33    C     0.59050   0.73430   0.78150   0.01267  Uiso   1.00
C34    C     0.36000   0.39640   0.10600   0.01267  Uiso   1.00
C35    C     0.76800   0.56070   0.58000   0.01267  Uiso   1.00
C36    C     0.96830   0.83020   0.11640   0.01267  Uiso   1.00
C37    C     0.02100   0.97430   0.83380   0.01267  Uiso   1.00
C38    C     0.27390   0.00230   0.99840   0.01267  Uiso   1.00
C39    C     0.45400   0.69690   0.81700   0.01267  Uiso   1.00
C40    C     0.08870   0.07440   0.89820   0.01267  Uiso   1.00
C41    C     0.91180   0.59210   0.42130   0.01267  Uiso   1.00
C42    C     0.78310   0.91370   0.01930   0.01267  Uiso   1.00
N1     N     0.88910   0.64060   0.59980   0.01267  Uiso   1.00
N2     N     0.91900   0.10810   0.14920   0.01267  Uiso   1.00
N3     N     0.08100   0.89190   0.85080   0.01267  Uiso   1.00
N4     N     0.25110   0.28950   0.20260   0.01267  Uiso   1.00
N5     N     0.74890   0.71050   0.79740   0.01267  Uiso   1.00
N6     N     0.11090   0.35940   0.40020   0.01267  Uiso   1.00
O1     O     0.89160   0.41940   0.69940   0.01267  Uiso   1.00
O2     O     0.86790   0.64040   0.27360   0.01267  Uiso   1.00
O3     O     0.70300   0.56140   0.05230   0.01267  Uiso   1.00
O4     O     0.33600   0.56920   0.09220   0.01267  Uiso   1.00
O5     O     0.13170   0.22050   0.84570   0.01267  Uiso   1.00
O6     O     0.00080   0.57390   0.92480   0.01267  Uiso   1.00
O7     O     0.81200   0.23010   0.51090   0.01267  Uiso   1.00
O8     O     0.81010   0.01780   0.72260   0.01267  Uiso   1.00
O9     O     0.84040   0.21420   0.34810   0.01267  Uiso   1.00
O10    O     0.29700   0.43860   0.94770   0.01267  Uiso   1.00
O11    O     0.93850   0.33980   0.18350   0.01267  Uiso   1.00
O12    O     0.99920   0.42610   0.07520   0.01267  Uiso   1.00
O13    O     0.66400   0.43080   0.90780   0.01267  Uiso   1.00
O14    O     0.18800   0.76990   0.48910   0.01267  Uiso   1.00
O15    O     0.83420   0.85340   0.69060   0.01267  Uiso   1.00
O16    O     0.86830   0.77950   0.15430   0.01267  Uiso   1.00
O17    O     0.13210   0.35960   0.72640   0.01267  Uiso   1.00
O18    O     0.89930   0.19990   0.91610   0.01267  Uiso   1.00
O19    O     0.10840   0.58060   0.30060   0.01267  Uiso   1.00
O20    O     0.10070   0.80010   0.08390   0.01267  Uiso   1.00
O21    O     0.16580   0.14660   0.30940   0.01267  Uiso   1.00
O22    O     0.15960   0.78580   0.65190   0.01267  Uiso   1.00
O23    O     0.18990   0.98220   0.27740   0.01267  Uiso   1.00
O24    O     0.06150   0.66020   0.81650   0.01267  Uiso   1.00
