data_image0
_cell_length_a       13.7548
_cell_length_b       13.7548
_cell_length_c       38.1612
_cell_angle_alpha    90
_cell_angle_beta     90
_cell_angle_gamma    90

_symmetry_space_group_name_H-M    "P 1"
_symmetry_int_tables_number       1

loop_
  _symmetry_equiv_pos_as_xyz
  'x, y, z'

loop_
  _atom_site_label
  _atom_site_occupancy
  _atom_site_fract_x
  _atom_site_fract_y
  _atom_site_fract_z
  _atom_site_thermal_displace_type
  _atom_site_B_iso_or_equiv
  _atom_site_type_symbol
  In1      1.0000 0.28660  0.94973  0.08505  Biso   1.000  In
  O1       1.0000 0.41750  0.89300  0.05660  Biso   1.000  O
  O2       1.0000 0.43880  0.95420  0.10880  Biso   1.000  O
  O3       1.0000 0.73780  0.60830  0.11210  Biso   1.000  O
  O4       1.0000 0.76770  0.71200  0.15440  Biso   1.000  O
  O5       1.0000 0.31540  0.08900  0.05650  Biso   1.000  O
  O6       1.0000 0.26920  0.09630  0.11130  Biso   1.000  O
  O7       1.0000 0.53000  0.46700  0.07470  Biso   1.000  O
  O8       1.0000 0.48890  0.46710  0.13020  Biso   1.000  O
  O9       1.0000 0.20790  0.90970  0.03240  Biso   1.000  O
  O10      1.0000 0.12450  0.96890  0.07430  Biso   1.000  O
  C1       1.0000 0.57680  0.88670  0.07950  Biso   1.000  C
  H1       1.0000 0.59470  0.88290  0.05460  Biso   1.000  H
  C2       1.0000 0.59910  0.79040  0.09570  Biso   1.000  C
  C3       1.0000 0.71330  0.77780  0.09950  Biso   1.000  C
  C4       1.0000 0.71650  0.88290  0.11780  Biso   1.000  C
  H2       1.0000 0.78300  0.90640  0.11790  Biso   1.000  H
  H3       1.0000 0.69550  0.87670  0.14200  Biso   1.000  H
  C5       1.0000 0.64550  0.96450  0.09740  Biso   1.000  C
  H4       1.0000 0.61100  0.00650  0.11360  Biso   1.000  H
  H5       1.0000 0.68100  0.00330  0.08040  Biso   1.000  H
  C6       1.0000 0.74510  0.76230  0.06280  Biso   1.000  C
  H6       1.0000 0.72890  0.69740  0.05560  Biso   1.000  H
  H7       1.0000 0.81410  0.77160  0.06120  Biso   1.000  H
  H8       1.0000 0.71280  0.80810  0.04780  Biso   1.000  H
  C7       1.0000 0.53950  0.75190  0.12450  Biso   1.000  C
  H9       1.0000 0.55290  0.78780  0.14550  Biso   1.000  H
  H10      1.0000 0.55480  0.68460  0.12810  Biso   1.000  H
  H11      1.0000 0.47190  0.75830  0.11870  Biso   1.000  H
  C8       1.0000 0.47370  0.91750  0.08130  Biso   1.000  C
  C9       1.0000 0.74320  0.69910  0.12410  Biso   1.000  C
  C10      1.0000 0.29180  0.24530  0.08240  Biso   1.000  C
  C11      1.0000 0.38390  0.29600  0.10140  Biso   1.000  C
  C12      1.0000 0.38340  0.39910  0.08980  Biso   1.000  C
  H12      1.0000 0.33340  0.43190  0.10380  Biso   1.000  H
  C13      1.0000 0.34800  0.40280  0.05150  Biso   1.000  C
  H13      1.0000 0.40160  0.41450  0.03550  Biso   1.000  H
  H14      1.0000 0.29910  0.45270  0.04830  Biso   1.000  H
  C14      1.0000 0.30440  0.29920  0.04630  Biso   1.000  C
  H15      1.0000 0.34700  0.26140  0.03130  Biso   1.000  H
  H16      1.0000 0.24170  0.30440  0.03490  Biso   1.000  H
  C15      1.0000 0.19090  0.28350  0.09900  Biso   1.000  C
  H17      1.0000 0.18240  0.25600  0.12190  Biso   1.000  H
  H18      1.0000 0.13780  0.26400  0.08420  Biso   1.000  H
  H19      1.0000 0.19230  0.35310  0.10070  Biso   1.000  H
  C16      1.0000 0.47160  0.23790  0.09480  Biso   1.000  C
  H20      1.0000 0.46120  0.17230  0.10250  Biso   1.000  H
  H21      1.0000 0.52540  0.26560  0.10730  Biso   1.000  H
  H22      1.0000 0.48550  0.23790  0.07010  Biso   1.000  H
  C17      1.0000 0.29010  0.13410  0.08270  Biso   1.000  C
  C18      1.0000 0.48070  0.44920  0.09890  Biso   1.000  C
  C19      1.0000 0.04430  0.94120  0.02000  Biso   1.000  C
  C20      1.0000 0.05900  0.89400  0.98030  Biso   1.000  C
  C21      1.0000 0.95200  0.93900  0.04110  Biso   1.000  C
  C22      1.0000 0.12760  0.93780  0.04330  Biso   1.000  C
  In2      1.0000 0.71340  0.05027  0.58505  Biso   1.000  In
  O11      1.0000 0.58250  0.10700  0.55660  Biso   1.000  O
  O12      1.0000 0.56120  0.04580  0.60880  Biso   1.000  O
  O13      1.0000 0.26220  0.39170  0.61210  Biso   1.000  O
  O14      1.0000 0.23230  0.28800  0.65440  Biso   1.000  O
  O15      1.0000 0.68460  0.91100  0.55650  Biso   1.000  O
  O16      1.0000 0.73080  0.90370  0.61130  Biso   1.000  O
  O17      1.0000 0.47000  0.53300  0.57470  Biso   1.000  O
  O18      1.0000 0.51110  0.53290  0.63020  Biso   1.000  O
  O19      1.0000 0.79210  0.09030  0.53240  Biso   1.000  O
  O20      1.0000 0.87550  0.03110  0.57430  Biso   1.000  O
  C23      1.0000 0.42320  0.11330  0.57950  Biso   1.000  C
  H23      1.0000 0.40530  0.11710  0.55460  Biso   1.000  H
  C24      1.0000 0.40090  0.20960  0.59570  Biso   1.000  C
  C25      1.0000 0.28670  0.22220  0.59950  Biso   1.000  C
  C26      1.0000 0.28350  0.11710  0.61780  Biso   1.000  C
  H24      1.0000 0.21700  0.09360  0.61790  Biso   1.000  H
  H25      1.0000 0.30450  0.12330  0.64200  Biso   1.000  H
  C27      1.0000 0.35450  0.03550  0.59740  Biso   1.000  C
  H26      1.0000 0.38900  0.99350  0.61360  Biso   1.000  H
  H27      1.0000 0.31900  0.99670  0.58040  Biso   1.000  H
  C28      1.0000 0.25490  0.23770  0.56280  Biso   1.000  C
  H28      1.0000 0.27110  0.30260  0.55560  Biso   1.000  H
  H29      1.0000 0.18590  0.22840  0.56120  Biso   1.000  H
  H30      1.0000 0.28720  0.19190  0.54780  Biso   1.000  H
  C29      1.0000 0.46050  0.24810  0.62450  Biso   1.000  C
  H31      1.0000 0.44710  0.21220  0.64550  Biso   1.000  H
  H32      1.0000 0.44520  0.31540  0.62810  Biso   1.000  H
  H33      1.0000 0.52810  0.24170  0.61870  Biso   1.000  H
  C30      1.0000 0.52630  0.08250  0.58130  Biso   1.000  C
  C31      1.0000 0.25680  0.30090  0.62410  Biso   1.000  C
  C32      1.0000 0.70820  0.75470  0.58240  Biso   1.000  C
  C33      1.0000 0.61610  0.70400  0.60140  Biso   1.000  C
  C34      1.0000 0.61660  0.60090  0.58980  Biso   1.000  C
  H34      1.0000 0.66660  0.56810  0.60380  Biso   1.000  H
  C35      1.0000 0.65200  0.59720  0.55150  Biso   1.000  C
  H35      1.0000 0.59840  0.58550  0.53550  Biso   1.000  H
  H36      1.0000 0.70090  0.54730  0.54830  Biso   1.000  H
  C36      1.0000 0.69560  0.70080  0.54630  Biso   1.000  C
  H37      1.0000 0.65300  0.73860  0.53130  Biso   1.000  H
  H38      1.0000 0.75830  0.69560  0.53490  Biso   1.000  H
  C37      1.0000 0.80910  0.71650  0.59900  Biso   1.000  C
  H39      1.0000 0.81760  0.74400  0.62190  Biso   1.000  H
  H40      1.0000 0.86220  0.73600  0.58420  Biso   1.000  H
  H41      1.0000 0.80770  0.64690  0.60070  Biso   1.000  H
  C38      1.0000 0.52840  0.76210  0.59480  Biso   1.000  C
  H42      1.0000 0.53880  0.82770  0.60250  Biso   1.000  H
  H43      1.0000 0.47460  0.73440  0.60730  Biso   1.000  H
  H44      1.0000 0.51450  0.76210  0.57010  Biso   1.000  H
  C39      1.0000 0.70990  0.86590  0.58270  Biso   1.000  C
  C40      1.0000 0.51930  0.55080  0.59890  Biso   1.000  C
  C41      1.0000 0.95570  0.05880  0.52000  Biso   1.000  C
  C42      1.0000 0.94100  0.10600  0.48030  Biso   1.000  C
  C43      1.0000 0.04800  0.06100  0.54110  Biso   1.000  C
  C44      1.0000 0.87240  0.06220  0.54330  Biso   1.000  C
  In3      1.0000 0.55027  0.78660  0.83505  Biso   1.000  In
  O21      1.0000 0.60700  0.91750  0.80660  Biso   1.000  O
  O22      1.0000 0.54580  0.93880  0.85880  Biso   1.000  O
  O23      1.0000 0.89170  0.23780  0.86210  Biso   1.000  O
  O24      1.0000 0.78800  0.26770  0.90440  Biso   1.000  O
  O25      1.0000 0.41100  0.81540  0.80650  Biso   1.000  O
  O26      1.0000 0.40370  0.76920  0.86130  Biso   1.000  O
  O27      1.0000 0.03300  0.03000  0.82470  Biso   1.000  O
  O28      1.0000 0.03290  0.98890  0.88020  Biso   1.000  O
  O29      1.0000 0.59030  0.70790  0.78240  Biso   1.000  O
  O30      1.0000 0.53110  0.62450  0.82430  Biso   1.000  O
  C45      1.0000 0.61330  0.07680  0.82950  Biso   1.000  C
  H45      1.0000 0.61710  0.09470  0.80460  Biso   1.000  H
  C46      1.0000 0.70960  0.09910  0.84570  Biso   1.000  C
  C47      1.0000 0.72220  0.21330  0.84950  Biso   1.000  C
  C48      1.0000 0.61710  0.21650  0.86780  Biso   1.000  C
  H46      1.0000 0.59360  0.28300  0.86790  Biso   1.000  H
  H47      1.0000 0.62330  0.19550  0.89200  Biso   1.000  H
  C49      1.0000 0.53550  0.14550  0.84740  Biso   1.000  C
  H48      1.0000 0.49350  0.11100  0.86360  Biso   1.000  H
  H49      1.0000 0.49670  0.18100  0.83040  Biso   1.000  H
  C50      1.0000 0.73770  0.24510  0.81280  Biso   1.000  C
  H50      1.0000 0.80260  0.22890  0.80560  Biso   1.000  H
  H51      1.0000 0.72840  0.31410  0.81120  Biso   1.000  H
  H52      1.0000 0.69190  0.21280  0.79780  Biso   1.000  H
  C51      1.0000 0.74810  0.03950  0.87450  Biso   1.000  C
  H53      1.0000 0.71220  0.05290  0.89550  Biso   1.000  H
  H54      1.0000 0.81540  0.05480  0.87810  Biso   1.000  H
  H55      1.0000 0.74170  0.97190  0.86870  Biso   1.000  H
  C52      1.0000 0.58250  0.97370  0.83130  Biso   1.000  C
  C53      1.0000 0.80090  0.24320  0.87410  Biso   1.000  C
  C54      1.0000 0.25470  0.79180  0.83240  Biso   1.000  C
  C55      1.0000 0.20400  0.88390  0.85140  Biso   1.000  C
  C56      1.0000 0.10090  0.88340  0.83980  Biso   1.000  C
  H56      1.0000 0.06810  0.83340  0.85380  Biso   1.000  H
  C57      1.0000 0.09720  0.84800  0.80150  Biso   1.000  C
  H57      1.0000 0.08550  0.90160  0.78550  Biso   1.000  H
  H58      1.0000 0.04730  0.79910  0.79830  Biso   1.000  H
  C58      1.0000 0.20080  0.80440  0.79630  Biso   1.000  C
  H59      1.0000 0.23860  0.84700  0.78130  Biso   1.000  H
  H60      1.0000 0.19560  0.74170  0.78490  Biso   1.000  H
  C59      1.0000 0.21650  0.69090  0.84900  Biso   1.000  C
  H61      1.0000 0.24400  0.68240  0.87190  Biso   1.000  H
  H62      1.0000 0.23600  0.63780  0.83420  Biso   1.000  H
  H63      1.0000 0.14690  0.69230  0.85070  Biso   1.000  H
  C60      1.0000 0.26210  0.97160  0.84480  Biso   1.000  C
  H64      1.0000 0.32770  0.96120  0.85250  Biso   1.000  H
  H65      1.0000 0.23440  0.02540  0.85730  Biso   1.000  H
  H66      1.0000 0.26210  0.98550  0.82010  Biso   1.000  H
  C61      1.0000 0.36590  0.79010  0.83270  Biso   1.000  C
  C62      1.0000 0.05080  0.98070  0.84890  Biso   1.000  C
  C63      1.0000 0.55880  0.54430  0.77000  Biso   1.000  C
  C64      1.0000 0.60600  0.55900  0.73030  Biso   1.000  C
  C65      1.0000 0.56100  0.45200  0.79110  Biso   1.000  C
  C66      1.0000 0.56220  0.62760  0.79330  Biso   1.000  C
  In4      1.0000 0.44973  0.21340  0.33505  Biso   1.000  In
  O31      1.0000 0.39300  0.08250  0.30660  Biso   1.000  O
  O32      1.0000 0.45420  0.06120  0.35880  Biso   1.000  O
  O33      1.0000 0.10830  0.76220  0.36210  Biso   1.000  O
  O34      1.0000 0.21200  0.73230  0.40440  Biso   1.000  O
  O35      1.0000 0.58900  0.18460  0.30650  Biso   1.000  O
  O36      1.0000 0.59630  0.23080  0.36130  Biso   1.000  O
  O37      1.0000 0.96700  0.97000  0.32470  Biso   1.000  O
  O38      1.0000 0.96710  0.01110  0.38020  Biso   1.000  O
  O39      1.0000 0.40970  0.29210  0.28240  Biso   1.000  O
  O40      1.0000 0.46890  0.37550  0.32430  Biso   1.000  O
  C67      1.0000 0.38670  0.92320  0.32950  Biso   1.000  C
  H67      1.0000 0.38290  0.90530  0.30460  Biso   1.000  H
  C68      1.0000 0.29040  0.90090  0.34570  Biso   1.000  C
  C69      1.0000 0.27780  0.78670  0.34950  Biso   1.000  C
  C70      1.0000 0.38290  0.78350  0.36780  Biso   1.000  C
  H68      1.0000 0.40640  0.71700  0.36790  Biso   1.000  H
  H69      1.0000 0.37670  0.80450  0.39200  Biso   1.000  H
  C71      1.0000 0.46450  0.85450  0.34740  Biso   1.000  C
  H70      1.0000 0.50650  0.88900  0.36360  Biso   1.000  H
  H71      1.0000 0.50330  0.81900  0.33040  Biso   1.000  H
  C72      1.0000 0.26230  0.75490  0.31280  Biso   1.000  C
  H72      1.0000 0.19740  0.77110  0.30560  Biso   1.000  H
  H73      1.0000 0.27160  0.68590  0.31120  Biso   1.000  H
  H74      1.0000 0.30810  0.78720  0.29780  Biso   1.000  H
  C73      1.0000 0.25190  0.96050  0.37450  Biso   1.000  C
  H75      1.0000 0.28780  0.94710  0.39550  Biso   1.000  H
  H76      1.0000 0.18460  0.94520  0.37810  Biso   1.000  H
  H77      1.0000 0.25830  0.02810  0.36870  Biso   1.000  H
  C74      1.0000 0.41750  0.02630  0.33130  Biso   1.000  C
  C75      1.0000 0.19910  0.75680  0.37410  Biso   1.000  C
  C76      1.0000 0.74530  0.20820  0.33240  Biso   1.000  C
  C77      1.0000 0.79600  0.11610  0.35140  Biso   1.000  C
  C78      1.0000 0.89910  0.11660  0.33980  Biso   1.000  C
  H78      1.0000 0.93190  0.16660  0.35380  Biso   1.000  H
  C79      1.0000 0.90280  0.15200  0.30150  Biso   1.000  C
  H79      1.0000 0.91450  0.09840  0.28550  Biso   1.000  H
  H80      1.0000 0.95270  0.20090  0.29830  Biso   1.000  H
  C80      1.0000 0.79920  0.19560  0.29630  Biso   1.000  C
  H81      1.0000 0.76140  0.15300  0.28130  Biso   1.000  H
  H82      1.0000 0.80440  0.25830  0.28490  Biso   1.000  H
  C81      1.0000 0.78350  0.30910  0.34900  Biso   1.000  C
  H83      1.0000 0.75600  0.31760  0.37190  Biso   1.000  H
  H84      1.0000 0.76400  0.36220  0.33420  Biso   1.000  H
  H85      1.0000 0.85310  0.30770  0.35070  Biso   1.000  H
  C82      1.0000 0.73790  0.02840  0.34480  Biso   1.000  C
  H86      1.0000 0.67230  0.03880  0.35250  Biso   1.000  H
  H87      1.0000 0.76560  0.97460  0.35730  Biso   1.000  H
  H88      1.0000 0.73790  0.01450  0.32010  Biso   1.000  H
  C83      1.0000 0.63410  0.20990  0.33270  Biso   1.000  C
  C84      1.0000 0.94920  0.01930  0.34890  Biso   1.000  C
  C85      1.0000 0.44120  0.45570  0.27000  Biso   1.000  C
  C86      1.0000 0.39400  0.44100  0.23030  Biso   1.000  C
  C87      1.0000 0.43900  0.54800  0.29110  Biso   1.000  C
  C88      1.0000 0.43780  0.37240  0.29330  Biso   1.000  C
  In5      1.0000 0.21340  0.44973  0.66495  Biso   1.000  In
  O41      1.0000 0.08250  0.39300  0.69340  Biso   1.000  O
  O42      1.0000 0.06120  0.45420  0.64120  Biso   1.000  O
  O43      1.0000 0.76220  0.10830  0.63790  Biso   1.000  O
  O44      1.0000 0.73230  0.21200  0.59560  Biso   1.000  O
  O45      1.0000 0.18460  0.58900  0.69350  Biso   1.000  O
  O46      1.0000 0.23080  0.59630  0.63870  Biso   1.000  O
  O47      1.0000 0.97000  0.96700  0.67530  Biso   1.000  O
  O48      1.0000 0.01110  0.96710  0.61980  Biso   1.000  O
  O49      1.0000 0.29210  0.40970  0.71760  Biso   1.000  O
  O50      1.0000 0.37550  0.46890  0.67570  Biso   1.000  O
  C89      1.0000 0.92320  0.38670  0.67050  Biso   1.000  C
  H89      1.0000 0.90530  0.38290  0.69540  Biso   1.000  H
  C90      1.0000 0.90090  0.29040  0.65430  Biso   1.000  C
  C91      1.0000 0.78670  0.27780  0.65050  Biso   1.000  C
  C92      1.0000 0.78350  0.38290  0.63220  Biso   1.000  C
  H90      1.0000 0.71700  0.40640  0.63210  Biso   1.000  H
  H91      1.0000 0.80450  0.37670  0.60800  Biso   1.000  H
  C93      1.0000 0.85450  0.46450  0.65260  Biso   1.000  C
  H92      1.0000 0.88900  0.50650  0.63640  Biso   1.000  H
  H93      1.0000 0.81900  0.50330  0.66960  Biso   1.000  H
  C94      1.0000 0.75490  0.26230  0.68720  Biso   1.000  C
  H94      1.0000 0.77110  0.19740  0.69440  Biso   1.000  H
  H95      1.0000 0.68590  0.27160  0.68880  Biso   1.000  H
  H96      1.0000 0.78720  0.30810  0.70220  Biso   1.000  H
  C95      1.0000 0.96050  0.25190  0.62550  Biso   1.000  C
  H97      1.0000 0.94710  0.28780  0.60450  Biso   1.000  H
  H98      1.0000 0.94520  0.18460  0.62190  Biso   1.000  H
  H99      1.0000 0.02810  0.25830  0.63130  Biso   1.000  H
  C96      1.0000 0.02630  0.41750  0.66870  Biso   1.000  C
  C97      1.0000 0.75680  0.19910  0.62590  Biso   1.000  C
  C98      1.0000 0.20820  0.74530  0.66760  Biso   1.000  C
  C99      1.0000 0.11610  0.79600  0.64860  Biso   1.000  C
  C100     1.0000 0.11660  0.89910  0.66020  Biso   1.000  C
  H100     1.0000 0.16660  0.93190  0.64620  Biso   1.000  H
  C101     1.0000 0.15200  0.90280  0.69850  Biso   1.000  C
  H101     1.0000 0.09840  0.91450  0.71450  Biso   1.000  H
  H102     1.0000 0.20090  0.95270  0.70170  Biso   1.000  H
  C102     1.0000 0.19560  0.79920  0.70370  Biso   1.000  C
  H103     1.0000 0.15300  0.76140  0.71870  Biso   1.000  H
  H104     1.0000 0.25830  0.80440  0.71510  Biso   1.000  H
  C103     1.0000 0.30910  0.78350  0.65100  Biso   1.000  C
  H105     1.0000 0.31760  0.75600  0.62810  Biso   1.000  H
  H106     1.0000 0.36220  0.76400  0.66580  Biso   1.000  H
  H107     1.0000 0.30770  0.85310  0.64930  Biso   1.000  H
  C104     1.0000 0.02840  0.73790  0.65520  Biso   1.000  C
  H108     1.0000 0.03880  0.67230  0.64750  Biso   1.000  H
  H109     1.0000 0.97460  0.76560  0.64270  Biso   1.000  H
  H110     1.0000 0.01450  0.73790  0.67990  Biso   1.000  H
  C105     1.0000 0.20990  0.63410  0.66730  Biso   1.000  C
  C106     1.0000 0.01930  0.94920  0.65110  Biso   1.000  C
  C107     1.0000 0.45570  0.44120  0.73000  Biso   1.000  C
  C108     1.0000 0.44100  0.39400  0.76970  Biso   1.000  C
  C109     1.0000 0.54800  0.43900  0.70890  Biso   1.000  C
  C110     1.0000 0.37240  0.43780  0.70670  Biso   1.000  C
  In6      1.0000 0.78660  0.55027  0.16495  Biso   1.000  In
  O51      1.0000 0.91750  0.60700  0.19340  Biso   1.000  O
  O52      1.0000 0.93880  0.54580  0.14120  Biso   1.000  O
  O53      1.0000 0.23780  0.89170  0.13790  Biso   1.000  O
  O54      1.0000 0.26770  0.78800  0.09560  Biso   1.000  O
  O55      1.0000 0.81540  0.41100  0.19350  Biso   1.000  O
  O56      1.0000 0.76920  0.40370  0.13870  Biso   1.000  O
  O57      1.0000 0.03000  0.03300  0.17530  Biso   1.000  O
  O58      1.0000 0.98890  0.03290  0.11980  Biso   1.000  O
  O59      1.0000 0.70790  0.59030  0.21760  Biso   1.000  O
  O60      1.0000 0.62450  0.53110  0.17570  Biso   1.000  O
  C111     1.0000 0.07680  0.61330  0.17050  Biso   1.000  C
  H111     1.0000 0.09470  0.61710  0.19540  Biso   1.000  H
  C112     1.0000 0.09910  0.70960  0.15430  Biso   1.000  C
  C113     1.0000 0.21330  0.72220  0.15050  Biso   1.000  C
  C114     1.0000 0.21650  0.61710  0.13220  Biso   1.000  C
  H112     1.0000 0.28300  0.59360  0.13210  Biso   1.000  H
  H113     1.0000 0.19550  0.62330  0.10800  Biso   1.000  H
  C115     1.0000 0.14550  0.53550  0.15260  Biso   1.000  C
  H114     1.0000 0.11100  0.49350  0.13640  Biso   1.000  H
  H115     1.0000 0.18100  0.49670  0.16960  Biso   1.000  H
  C116     1.0000 0.24510  0.73770  0.18720  Biso   1.000  C
  H116     1.0000 0.22890  0.80260  0.19440  Biso   1.000  H
  H117     1.0000 0.31410  0.72840  0.18880  Biso   1.000  H
  H118     1.0000 0.21280  0.69190  0.20220  Biso   1.000  H
  C117     1.0000 0.03950  0.74810  0.12550  Biso   1.000  C
  H119     1.0000 0.05290  0.71220  0.10450  Biso   1.000  H
  H120     1.0000 0.05480  0.81540  0.12190  Biso   1.000  H
  H121     1.0000 0.97190  0.74170  0.13130  Biso   1.000  H
  C118     1.0000 0.97370  0.58250  0.16870  Biso   1.000  C
  C119     1.0000 0.24320  0.80090  0.12590  Biso   1.000  C
  C120     1.0000 0.79180  0.25470  0.16760  Biso   1.000  C
  C121     1.0000 0.88390  0.20400  0.14860  Biso   1.000  C
  C122     1.0000 0.88340  0.10090  0.16020  Biso   1.000  C
  H122     1.0000 0.83340  0.06810  0.14620  Biso   1.000  H
  C123     1.0000 0.84800  0.09720  0.19850  Biso   1.000  C
  H123     1.0000 0.90160  0.08550  0.21450  Biso   1.000  H
  H124     1.0000 0.79910  0.04730  0.20170  Biso   1.000  H
  C124     1.0000 0.80440  0.20080  0.20370  Biso   1.000  C
  H125     1.0000 0.84700  0.23860  0.21870  Biso   1.000  H
  H126     1.0000 0.74170  0.19560  0.21510  Biso   1.000  H
  C125     1.0000 0.69090  0.21650  0.15100  Biso   1.000  C
  H127     1.0000 0.68240  0.24400  0.12810  Biso   1.000  H
  H128     1.0000 0.63780  0.23600  0.16580  Biso   1.000  H
  H129     1.0000 0.69230  0.14690  0.14930  Biso   1.000  H
  C126     1.0000 0.97160  0.26210  0.15520  Biso   1.000  C
  H130     1.0000 0.96120  0.32770  0.14750  Biso   1.000  H
  H131     1.0000 0.02540  0.23440  0.14270  Biso   1.000  H
  H132     1.0000 0.98550  0.26210  0.17990  Biso   1.000  H
  C127     1.0000 0.79010  0.36590  0.16730  Biso   1.000  C
  C128     1.0000 0.98070  0.05080  0.15110  Biso   1.000  C
  C129     1.0000 0.54430  0.55880  0.23000  Biso   1.000  C
  C130     1.0000 0.55900  0.60600  0.26970  Biso   1.000  C
  C131     1.0000 0.45200  0.56100  0.20890  Biso   1.000  C
  C132     1.0000 0.62760  0.56220  0.20670  Biso   1.000  C
  In7      1.0000 0.94973  0.28660  0.91495  Biso   1.000  In
  O61      1.0000 0.89300  0.41750  0.94340  Biso   1.000  O
  O62      1.0000 0.95420  0.43880  0.89120  Biso   1.000  O
  O63      1.0000 0.60830  0.73780  0.88790  Biso   1.000  O
  O64      1.0000 0.71200  0.76770  0.84560  Biso   1.000  O
  O65      1.0000 0.08900  0.31540  0.94350  Biso   1.000  O
  O66      1.0000 0.09630  0.26920  0.88870  Biso   1.000  O
  O67      1.0000 0.46700  0.53000  0.92530  Biso   1.000  O
  O68      1.0000 0.46710  0.48890  0.86980  Biso   1.000  O
  O69      1.0000 0.90970  0.20790  0.96760  Biso   1.000  O
  O70      1.0000 0.96890  0.12450  0.92570  Biso   1.000  O
  C133     1.0000 0.88670  0.57680  0.92050  Biso   1.000  C
  H133     1.0000 0.88290  0.59470  0.94540  Biso   1.000  H
  C134     1.0000 0.79040  0.59910  0.90430  Biso   1.000  C
  C135     1.0000 0.77780  0.71330  0.90050  Biso   1.000  C
  C136     1.0000 0.88290  0.71650  0.88220  Biso   1.000  C
  H134     1.0000 0.90640  0.78300  0.88210  Biso   1.000  H
  H135     1.0000 0.87670  0.69550  0.85800  Biso   1.000  H
  C137     1.0000 0.96450  0.64550  0.90260  Biso   1.000  C
  H136     1.0000 0.00650  0.61100  0.88640  Biso   1.000  H
  H137     1.0000 0.00330  0.68100  0.91960  Biso   1.000  H
  C138     1.0000 0.76230  0.74510  0.93720  Biso   1.000  C
  H138     1.0000 0.69740  0.72890  0.94440  Biso   1.000  H
  H139     1.0000 0.77160  0.81410  0.93880  Biso   1.000  H
  H140     1.0000 0.80810  0.71280  0.95220  Biso   1.000  H
  C139     1.0000 0.75190  0.53950  0.87550  Biso   1.000  C
  H141     1.0000 0.78780  0.55290  0.85450  Biso   1.000  H
  H142     1.0000 0.68460  0.55480  0.87190  Biso   1.000  H
  H143     1.0000 0.75830  0.47190  0.88130  Biso   1.000  H
  C140     1.0000 0.91750  0.47370  0.91870  Biso   1.000  C
  C141     1.0000 0.69910  0.74320  0.87590  Biso   1.000  C
  C142     1.0000 0.24530  0.29180  0.91760  Biso   1.000  C
  C143     1.0000 0.29600  0.38390  0.89860  Biso   1.000  C
  C144     1.0000 0.39910  0.38340  0.91020  Biso   1.000  C
  H144     1.0000 0.43190  0.33340  0.89620  Biso   1.000  H
  C145     1.0000 0.40280  0.34800  0.94850  Biso   1.000  C
  H145     1.0000 0.41450  0.40160  0.96450  Biso   1.000  H
  H146     1.0000 0.45270  0.29910  0.95170  Biso   1.000  H
  C146     1.0000 0.29920  0.30440  0.95370  Biso   1.000  C
  H147     1.0000 0.26140  0.34700  0.96870  Biso   1.000  H
  H148     1.0000 0.30440  0.24170  0.96510  Biso   1.000  H
  C147     1.0000 0.28350  0.19090  0.90100  Biso   1.000  C
  H149     1.0000 0.25600  0.18240  0.87810  Biso   1.000  H
  H150     1.0000 0.26400  0.13780  0.91580  Biso   1.000  H
  H151     1.0000 0.35310  0.19230  0.89930  Biso   1.000  H
  C148     1.0000 0.23790  0.47160  0.90520  Biso   1.000  C
  H152     1.0000 0.17230  0.46120  0.89750  Biso   1.000  H
  H153     1.0000 0.26560  0.52540  0.89270  Biso   1.000  H
  H154     1.0000 0.23790  0.48550  0.92990  Biso   1.000  H
  C149     1.0000 0.13410  0.29010  0.91730  Biso   1.000  C
  C150     1.0000 0.44920  0.48070  0.90110  Biso   1.000  C
  C151     1.0000 0.94120  0.04430  0.98000  Biso   1.000  C
  C152     1.0000 0.89400  0.05900  0.01970  Biso   1.000  C
  C153     1.0000 0.93900  0.95200  0.95890  Biso   1.000  C
  C154     1.0000 0.93780  0.12760  0.95670  Biso   1.000  C
  In8      1.0000 0.05027  0.71340  0.41495  Biso   1.000  In
  O71      1.0000 0.10700  0.58250  0.44340  Biso   1.000  O
  O72      1.0000 0.04580  0.56120  0.39120  Biso   1.000  O
  O73      1.0000 0.39170  0.26220  0.38790  Biso   1.000  O
  O74      1.0000 0.28800  0.23230  0.34560  Biso   1.000  O
  O75      1.0000 0.91100  0.68460  0.44350  Biso   1.000  O
  O76      1.0000 0.90370  0.73080  0.38870  Biso   1.000  O
  O77      1.0000 0.53300  0.47000  0.42530  Biso   1.000  O
  O78      1.0000 0.53290  0.51110  0.36980  Biso   1.000  O
  O79      1.0000 0.09030  0.79210  0.46760  Biso   1.000  O
  O80      1.0000 0.03110  0.87550  0.42570  Biso   1.000  O
  C155     1.0000 0.11330  0.42320  0.42050  Biso   1.000  C
  H155     1.0000 0.11710  0.40530  0.44540  Biso   1.000  H
  C156     1.0000 0.20960  0.40090  0.40430  Biso   1.000  C
  C157     1.0000 0.22220  0.28670  0.40050  Biso   1.000  C
  C158     1.0000 0.11710  0.28350  0.38220  Biso   1.000  C
  H156     1.0000 0.09360  0.21700  0.38210  Biso   1.000  H
  H157     1.0000 0.12330  0.30450  0.35800  Biso   1.000  H
  C159     1.0000 0.03550  0.35450  0.40260  Biso   1.000  C
  H158     1.0000 0.99350  0.38900  0.38640  Biso   1.000  H
  H159     1.0000 0.99670  0.31900  0.41960  Biso   1.000  H
  C160     1.0000 0.23770  0.25490  0.43720  Biso   1.000  C
  H160     1.0000 0.30260  0.27110  0.44440  Biso   1.000  H
  H161     1.0000 0.22840  0.18590  0.43880  Biso   1.000  H
  H162     1.0000 0.19190  0.28720  0.45220  Biso   1.000  H
  C161     1.0000 0.24810  0.46050  0.37550  Biso   1.000  C
  H163     1.0000 0.21220  0.44710  0.35450  Biso   1.000  H
  H164     1.0000 0.31540  0.44520  0.37190  Biso   1.000  H
  H165     1.0000 0.24170  0.52810  0.38130  Biso   1.000  H
  C162     1.0000 0.08250  0.52630  0.41870  Biso   1.000  C
  C163     1.0000 0.30090  0.25680  0.37590  Biso   1.000  C
  C164     1.0000 0.75470  0.70820  0.41760  Biso   1.000  C
  C165     1.0000 0.70400  0.61610  0.39860  Biso   1.000  C
  C166     1.0000 0.60090  0.61660  0.41020  Biso   1.000  C
  H166     1.0000 0.56810  0.66660  0.39620  Biso   1.000  H
  C167     1.0000 0.59720  0.65200  0.44850  Biso   1.000  C
  H167     1.0000 0.58550  0.59840  0.46450  Biso   1.000  H
  H168     1.0000 0.54730  0.70090  0.45170  Biso   1.000  H
  C168     1.0000 0.70080  0.69560  0.45370  Biso   1.000  C
  H169     1.0000 0.73860  0.65300  0.46870  Biso   1.000  H
  H170     1.0000 0.69560  0.75830  0.46510  Biso   1.000  H
  C169     1.0000 0.71650  0.80910  0.40100  Biso   1.000  C
  H171     1.0000 0.74400  0.81760  0.37810  Biso   1.000  H
  H172     1.0000 0.73600  0.86220  0.41580  Biso   1.000  H
  H173     1.0000 0.64690  0.80770  0.39930  Biso   1.000  H
  C170     1.0000 0.76210  0.52840  0.40520  Biso   1.000  C
  H174     1.0000 0.82770  0.53880  0.39750  Biso   1.000  H
  H175     1.0000 0.73440  0.47460  0.39270  Biso   1.000  H
  H176     1.0000 0.76210  0.51450  0.42990  Biso   1.000  H
  C171     1.0000 0.86590  0.70990  0.41730  Biso   1.000  C
  C172     1.0000 0.55080  0.51930  0.40110  Biso   1.000  C
  C173     1.0000 0.05880  0.95570  0.48000  Biso   1.000  C
  C174     1.0000 0.10600  0.94100  0.51970  Biso   1.000  C
  C175     1.0000 0.06100  0.04800  0.45890  Biso   1.000  C
  C176     1.0000 0.06220  0.87240  0.45670  Biso   1.000  C
  C177     1.0000 0.03600  0.03600  0.00000  Biso   1.000  C
  C178     1.0000 0.09800  0.09800  0.00000  Biso   1.000  C
  C179     1.0000 0.96400  0.96400  0.50000  Biso   1.000  C
  C180     1.0000 0.90200  0.90200  0.50000  Biso   1.000  C
  C181     1.0000 0.46400  0.53600  0.75000  Biso   1.000  C
  C182     1.0000 0.40200  0.59800  0.75000  Biso   1.000  C
  C183     1.0000 0.53600  0.46400  0.25000  Biso   1.000  C
  C184     1.0000 0.59800  0.40200  0.25000  Biso   1.000  C
