data_image0
_cell_length_a       13.3346
_cell_length_b       13.4613
_cell_length_c       17.5115
_cell_angle_alpha    90
_cell_angle_beta     90
_cell_angle_gamma    90

_symmetry_space_group_name_H-M    "P 1"
_symmetry_int_tables_number       1

loop_
  _symmetry_equiv_pos_as_xyz
  'x, y, z'

loop_
  _atom_site_label
  _atom_site_occupancy
  _atom_site_fract_x
  _atom_site_fract_y
  _atom_site_fract_z
  _atom_site_thermal_displace_type
  _atom_site_B_iso_or_equiv
  _atom_site_type_symbol
  Co1      1.0000 0.73306  0.50992  0.57402  Biso   1.000  Co
  Co2      1.0000 0.76574  0.49107  0.41613  Biso   1.000  Co
  O1       1.0000 0.59650  0.47170  0.53010  Biso   1.000  O
  O2       1.0000 0.62110  0.44150  0.40680  Biso   1.000  O
  O3       1.0000 0.30560  0.15100  0.55060  Biso   1.000  O
  O4       1.0000 0.26890  0.13760  0.42540  Biso   1.000  O
  O5       1.0000 0.70660  0.65230  0.54390  Biso   1.000  O
  O6       1.0000 0.71560  0.63430  0.41880  Biso   1.000  O
  O7       1.0000 0.38000  0.95680  0.42230  Biso   1.000  O
  O8       1.0000 0.40330  0.96190  0.54780  Biso   1.000  O
  O9       1.0000 0.68630  0.52480  0.80770  Biso   1.000  O
  O10      1.0000 0.68690  0.52210  0.68300  Biso   1.000  O
  C1       1.0000 0.45380  0.41930  0.45520  Biso   1.000  C
  C2       1.0000 0.44320  0.30370  0.44650  Biso   1.000  C
  C3       1.0000 0.33130  0.29160  0.46970  Biso   1.000  C
  H1       1.0000 0.29030  0.31840  0.42810  Biso   1.000  H
  C4       1.0000 0.31740  0.36080  0.53980  Biso   1.000  C
  H2       1.0000 0.24920  0.38570  0.54230  Biso   1.000  H
  H3       1.0000 0.33230  0.32580  0.58690  Biso   1.000  H
  C5       1.0000 0.39020  0.44420  0.52740  Biso   1.000  C
  H4       1.0000 0.43350  0.45130  0.57150  Biso   1.000  H
  H5       1.0000 0.35430  0.50610  0.51990  Biso   1.000  H
  C6       1.0000 0.41500  0.47700  0.38830  Biso   1.000  C
  H6       1.0000 0.42280  0.54680  0.39800  Biso   1.000  H
  H7       1.0000 0.34540  0.46210  0.38070  Biso   1.000  H
  H8       1.0000 0.45220  0.45920  0.34340  Biso   1.000  H
  C7       1.0000 0.46270  0.26740  0.36550  Biso   1.000  C
  H9       1.0000 0.42030  0.30280  0.33050  Biso   1.000  H
  H10      1.0000 0.44840  0.19760  0.36240  Biso   1.000  H
  H11      1.0000 0.53170  0.27880  0.35250  Biso   1.000  H
  C8       1.0000 0.51620  0.24370  0.50050  Biso   1.000  C
  H12      1.0000 0.50810  0.26620  0.55220  Biso   1.000  H
  H13      1.0000 0.58430  0.25420  0.48460  Biso   1.000  H
  H14      1.0000 0.50060  0.17410  0.49760  Biso   1.000  H
  C9       1.0000 0.56880  0.44710  0.46800  Biso   1.000  C
  C10      1.0000 0.29890  0.18610  0.48270  Biso   1.000  C
  C11      1.0000 0.67370  0.79460  0.46610  Biso   1.000  C
  C12      1.0000 0.55740  0.80810  0.45030  Biso   1.000  C
  C13      1.0000 0.54290  0.92120  0.46720  Biso   1.000  C
  H15      1.0000 0.56820  0.95810  0.42300  Biso   1.000  H
  C14      1.0000 0.61150  0.94360  0.53380  Biso   1.000  C
  H16      1.0000 0.57320  0.94950  0.58070  Biso   1.000  H
  H17      1.0000 0.64750  0.00520  0.52530  Biso   1.000  H
  C15      1.0000 0.68540  0.85500  0.53860  Biso   1.000  C
  H18      1.0000 0.75370  0.87900  0.54320  Biso   1.000  H
  H19      1.0000 0.67020  0.81440  0.58290  Biso   1.000  H
  C16      1.0000 0.73480  0.83730  0.39980  Biso   1.000  C
  H20      1.0000 0.80500  0.82870  0.40990  Biso   1.000  H
  H21      1.0000 0.72030  0.90680  0.39440  Biso   1.000  H
  H22      1.0000 0.71740  0.80330  0.35350  Biso   1.000  H
  C17      1.0000 0.52800  0.77920  0.36790  Biso   1.000  C
  H23      1.0000 0.45740  0.78940  0.36090  Biso   1.000  H
  H24      1.0000 0.54380  0.71050  0.35930  Biso   1.000  H
  H25      1.0000 0.56450  0.81970  0.33240  Biso   1.000  H
  C18      1.0000 0.49600  0.75000  0.50170  Biso   1.000  C
  H26      1.0000 0.42640  0.76040  0.48990  Biso   1.000  H
  H27      1.0000 0.50870  0.77020  0.55340  Biso   1.000  H
  H28      1.0000 0.51190  0.68080  0.49600  Biso   1.000  H
  C19      1.0000 0.69990  0.68380  0.47810  Biso   1.000  C
  C20      1.0000 0.43650  0.94840  0.47750  Biso   1.000  C
  C21      1.0000 0.82740  0.45130  0.74400  Biso   1.000  C
  H29      1.0000 0.84780  0.44120  0.69200  Biso   1.000  H
  H30      1.0000 0.82150  0.38820  0.76920  Biso   1.000  H
  H31      1.0000 0.87660  0.49120  0.76980  Biso   1.000  H
  C22      1.0000 0.72980  0.50260  0.74540  Biso   1.000  C
  Co3      1.0000 0.76694  0.49008  0.07402  Biso   1.000  Co
  Co4      1.0000 0.73426  0.50893  0.91613  Biso   1.000  Co
  O11      1.0000 0.90350  0.52830  0.03010  Biso   1.000  O
  O12      1.0000 0.87890  0.55850  0.90680  Biso   1.000  O
  O13      1.0000 0.19440  0.84900  0.05060  Biso   1.000  O
  O14      1.0000 0.23110  0.86240  0.92540  Biso   1.000  O
  O15      1.0000 0.79340  0.34770  0.04390  Biso   1.000  O
  O16      1.0000 0.78440  0.36570  0.91880  Biso   1.000  O
  O17      1.0000 0.12000  0.04320  0.92230  Biso   1.000  O
  O18      1.0000 0.09670  0.03810  0.04780  Biso   1.000  O
  O19      1.0000 0.81370  0.47520  0.30770  Biso   1.000  O
  O20      1.0000 0.81310  0.47790  0.18300  Biso   1.000  O
  C23      1.0000 0.04620  0.58070  0.95520  Biso   1.000  C
  C24      1.0000 0.05680  0.69630  0.94650  Biso   1.000  C
  C25      1.0000 0.16870  0.70840  0.96970  Biso   1.000  C
  H32      1.0000 0.20970  0.68160  0.92810  Biso   1.000  H
  C26      1.0000 0.18260  0.63920  0.03980  Biso   1.000  C
  H33      1.0000 0.25080  0.61430  0.04230  Biso   1.000  H
  H34      1.0000 0.16770  0.67420  0.08690  Biso   1.000  H
  C27      1.0000 0.10980  0.55580  0.02740  Biso   1.000  C
  H35      1.0000 0.06650  0.54870  0.07150  Biso   1.000  H
  H36      1.0000 0.14570  0.49390  0.01990  Biso   1.000  H
  C28      1.0000 0.08500  0.52300  0.88830  Biso   1.000  C
  H37      1.0000 0.07720  0.45320  0.89800  Biso   1.000  H
  H38      1.0000 0.15460  0.53790  0.88070  Biso   1.000  H
  H39      1.0000 0.04780  0.54080  0.84340  Biso   1.000  H
  C29      1.0000 0.03730  0.73260  0.86550  Biso   1.000  C
  H40      1.0000 0.07970  0.69720  0.83050  Biso   1.000  H
  H41      1.0000 0.05160  0.80240  0.86240  Biso   1.000  H
  H42      1.0000 0.96830  0.72120  0.85250  Biso   1.000  H
  C30      1.0000 0.98380  0.75630  0.00050  Biso   1.000  C
  H43      1.0000 0.99190  0.73380  0.05220  Biso   1.000  H
  H44      1.0000 0.91570  0.74580  0.98460  Biso   1.000  H
  H45      1.0000 0.99940  0.82590  0.99760  Biso   1.000  H
  C31      1.0000 0.93120  0.55290  0.96800  Biso   1.000  C
  C32      1.0000 0.20110  0.81390  0.98270  Biso   1.000  C
  C33      1.0000 0.82630  0.20540  0.96610  Biso   1.000  C
  C34      1.0000 0.94260  0.19190  0.95030  Biso   1.000  C
  C35      1.0000 0.95710  0.07880  0.96720  Biso   1.000  C
  H46      1.0000 0.93180  0.04190  0.92300  Biso   1.000  H
  C36      1.0000 0.88850  0.05640  0.03380  Biso   1.000  C
  H47      1.0000 0.92680  0.05050  0.08070  Biso   1.000  H
  H48      1.0000 0.85250  0.99480  0.02530  Biso   1.000  H
  C37      1.0000 0.81460  0.14500  0.03860  Biso   1.000  C
  H49      1.0000 0.74630  0.12100  0.04320  Biso   1.000  H
  H50      1.0000 0.82980  0.18560  0.08290  Biso   1.000  H
  C38      1.0000 0.76520  0.16270  0.89980  Biso   1.000  C
  H51      1.0000 0.69500  0.17130  0.90990  Biso   1.000  H
  H52      1.0000 0.77970  0.09320  0.89440  Biso   1.000  H
  H53      1.0000 0.78260  0.19670  0.85350  Biso   1.000  H
  C39      1.0000 0.97200  0.22080  0.86790  Biso   1.000  C
  H54      1.0000 0.04260  0.21060  0.86090  Biso   1.000  H
  H55      1.0000 0.95620  0.28950  0.85930  Biso   1.000  H
  H56      1.0000 0.93550  0.18030  0.83240  Biso   1.000  H
  C40      1.0000 0.00400  0.25000  0.00170  Biso   1.000  C
  H57      1.0000 0.07360  0.23960  0.98990  Biso   1.000  H
  H58      1.0000 0.99130  0.22980  0.05340  Biso   1.000  H
  H59      1.0000 0.98810  0.31920  0.99600  Biso   1.000  H
  C41      1.0000 0.80010  0.31620  0.97810  Biso   1.000  C
  C42      1.0000 0.06350  0.05160  0.97750  Biso   1.000  C
  C43      1.0000 0.67260  0.54870  0.24400  Biso   1.000  C
  H60      1.0000 0.65220  0.55880  0.19200  Biso   1.000  H
  H61      1.0000 0.67850  0.61180  0.26920  Biso   1.000  H
  H62      1.0000 0.62340  0.50880  0.26980  Biso   1.000  H
  C44      1.0000 0.77020  0.49740  0.24540  Biso   1.000  C
  Co5      1.0000 0.26694  0.00992  0.92598  Biso   1.000  Co
  Co6      1.0000 0.23426  0.99107  0.08387  Biso   1.000  Co
  O21      1.0000 0.40350  0.97170  0.96990  Biso   1.000  O
  O22      1.0000 0.37890  0.94150  0.09320  Biso   1.000  O
  O23      1.0000 0.69440  0.65100  0.94940  Biso   1.000  O
  O24      1.0000 0.73110  0.63760  0.07460  Biso   1.000  O
  O25      1.0000 0.29340  0.15230  0.95610  Biso   1.000  O
  O26      1.0000 0.28440  0.13430  0.08120  Biso   1.000  O
  O27      1.0000 0.62000  0.45680  0.07770  Biso   1.000  O
  O28      1.0000 0.59670  0.46190  0.95220  Biso   1.000  O
  O29      1.0000 0.31370  0.02480  0.69230  Biso   1.000  O
  O30      1.0000 0.31310  0.02210  0.81700  Biso   1.000  O
  C45      1.0000 0.54620  0.91930  0.04480  Biso   1.000  C
  C46      1.0000 0.55680  0.80370  0.05350  Biso   1.000  C
  C47      1.0000 0.66870  0.79160  0.03030  Biso   1.000  C
  H63      1.0000 0.70970  0.81840  0.07190  Biso   1.000  H
  C48      1.0000 0.68260  0.86080  0.96020  Biso   1.000  C
  H64      1.0000 0.75080  0.88570  0.95770  Biso   1.000  H
  H65      1.0000 0.66770  0.82580  0.91310  Biso   1.000  H
  C49      1.0000 0.60980  0.94420  0.97260  Biso   1.000  C
  H66      1.0000 0.56650  0.95130  0.92850  Biso   1.000  H
  H67      1.0000 0.64570  0.00610  0.98010  Biso   1.000  H
  C50      1.0000 0.58500  0.97700  0.11170  Biso   1.000  C
  H68      1.0000 0.57720  0.04680  0.10200  Biso   1.000  H
  H69      1.0000 0.65460  0.96210  0.11930  Biso   1.000  H
  H70      1.0000 0.54780  0.95920  0.15660  Biso   1.000  H
  C51      1.0000 0.53730  0.76740  0.13450  Biso   1.000  C
  H71      1.0000 0.57970  0.80280  0.16950  Biso   1.000  H
  H72      1.0000 0.55160  0.69760  0.13760  Biso   1.000  H
  H73      1.0000 0.46830  0.77880  0.14750  Biso   1.000  H
  C52      1.0000 0.48380  0.74370  0.99950  Biso   1.000  C
  H74      1.0000 0.49190  0.76620  0.94780  Biso   1.000  H
  H75      1.0000 0.41570  0.75420  0.01540  Biso   1.000  H
  H76      1.0000 0.49940  0.67410  0.00240  Biso   1.000  H
  C53      1.0000 0.43120  0.94710  0.03200  Biso   1.000  C
  C54      1.0000 0.70110  0.68610  0.01730  Biso   1.000  C
  C55      1.0000 0.32630  0.29460  0.03390  Biso   1.000  C
  C56      1.0000 0.44260  0.30810  0.04970  Biso   1.000  C
  C57      1.0000 0.45710  0.42120  0.03280  Biso   1.000  C
  H77      1.0000 0.43180  0.45810  0.07700  Biso   1.000  H
  C58      1.0000 0.38850  0.44360  0.96620  Biso   1.000  C
  H78      1.0000 0.42680  0.44950  0.91930  Biso   1.000  H
  H79      1.0000 0.35250  0.50520  0.97470  Biso   1.000  H
  C59      1.0000 0.31460  0.35500  0.96140  Biso   1.000  C
  H80      1.0000 0.24630  0.37900  0.95680  Biso   1.000  H
  H81      1.0000 0.32980  0.31440  0.91710  Biso   1.000  H
  C60      1.0000 0.26520  0.33730  0.10020  Biso   1.000  C
  H82      1.0000 0.19500  0.32870  0.09010  Biso   1.000  H
  H83      1.0000 0.27970  0.40680  0.10560  Biso   1.000  H
  H84      1.0000 0.28260  0.30330  0.14650  Biso   1.000  H
  C61      1.0000 0.47200  0.27920  0.13210  Biso   1.000  C
  H85      1.0000 0.54260  0.28940  0.13910  Biso   1.000  H
  H86      1.0000 0.45620  0.21050  0.14070  Biso   1.000  H
  H87      1.0000 0.43550  0.31970  0.16760  Biso   1.000  H
  C62      1.0000 0.50400  0.25000  0.99830  Biso   1.000  C
  H88      1.0000 0.57360  0.26040  0.01010  Biso   1.000  H
  H89      1.0000 0.49130  0.27020  0.94660  Biso   1.000  H
  H90      1.0000 0.48810  0.18080  0.00400  Biso   1.000  H
  C63      1.0000 0.30010  0.18380  0.02190  Biso   1.000  C
  C64      1.0000 0.56350  0.44840  0.02250  Biso   1.000  C
  C65      1.0000 0.17260  0.95130  0.75600  Biso   1.000  C
  H91      1.0000 0.15220  0.94120  0.80800  Biso   1.000  H
  H92      1.0000 0.17850  0.88820  0.73080  Biso   1.000  H
  H93      1.0000 0.12340  0.99120  0.73020  Biso   1.000  H
  C66      1.0000 0.27020  0.00260  0.75460  Biso   1.000  C
  Co7      1.0000 0.23306  0.99008  0.42598  Biso   1.000  Co
  Co8      1.0000 0.26574  0.00893  0.58387  Biso   1.000  Co
  O31      1.0000 0.09650  0.02830  0.46990  Biso   1.000  O
  O32      1.0000 0.12110  0.05850  0.59320  Biso   1.000  O
  O33      1.0000 0.80560  0.34900  0.44940  Biso   1.000  O
  O34      1.0000 0.76890  0.36240  0.57460  Biso   1.000  O
  O35      1.0000 0.20660  0.84770  0.45610  Biso   1.000  O
  O36      1.0000 0.21560  0.86570  0.58120  Biso   1.000  O
  O37      1.0000 0.88000  0.54320  0.57770  Biso   1.000  O
  O38      1.0000 0.90330  0.53810  0.45220  Biso   1.000  O
  O39      1.0000 0.18630  0.97520  0.19230  Biso   1.000  O
  O40      1.0000 0.18690  0.97790  0.31700  Biso   1.000  O
  C67      1.0000 0.95380  0.08070  0.54480  Biso   1.000  C
  C68      1.0000 0.94320  0.19630  0.55350  Biso   1.000  C
  C69      1.0000 0.83130  0.20840  0.53030  Biso   1.000  C
  H94      1.0000 0.79030  0.18160  0.57190  Biso   1.000  H
  C70      1.0000 0.81740  0.13920  0.46020  Biso   1.000  C
  H95      1.0000 0.74920  0.11430  0.45770  Biso   1.000  H
  H96      1.0000 0.83230  0.17420  0.41310  Biso   1.000  H
  C71      1.0000 0.89020  0.05580  0.47260  Biso   1.000  C
  H97      1.0000 0.93350  0.04870  0.42850  Biso   1.000  H
  H98      1.0000 0.85430  0.99390  0.48010  Biso   1.000  H
  C72      1.0000 0.91500  0.02300  0.61170  Biso   1.000  C
  H99      1.0000 0.92280  0.95320  0.60200  Biso   1.000  H
  H100     1.0000 0.84540  0.03790  0.61930  Biso   1.000  H
  H101     1.0000 0.95220  0.04080  0.65660  Biso   1.000  H
  C73      1.0000 0.96270  0.23260  0.63450  Biso   1.000  C
  H102     1.0000 0.92030  0.19720  0.66950  Biso   1.000  H
  H103     1.0000 0.94840  0.30240  0.63760  Biso   1.000  H
  H104     1.0000 0.03170  0.22120  0.64750  Biso   1.000  H
  C74      1.0000 0.01620  0.25630  0.49950  Biso   1.000  C
  H105     1.0000 0.00810  0.23380  0.44780  Biso   1.000  H
  H106     1.0000 0.08430  0.24580  0.51540  Biso   1.000  H
  H107     1.0000 0.00060  0.32590  0.50240  Biso   1.000  H
  C75      1.0000 0.06880  0.05290  0.53200  Biso   1.000  C
  C76      1.0000 0.79890  0.31390  0.51730  Biso   1.000  C
  C77      1.0000 0.17370  0.70540  0.53390  Biso   1.000  C
  C78      1.0000 0.05740  0.69190  0.54970  Biso   1.000  C
  C79      1.0000 0.04290  0.57880  0.53280  Biso   1.000  C
  H108     1.0000 0.06820  0.54190  0.57700  Biso   1.000  H
  C80      1.0000 0.11150  0.55640  0.46620  Biso   1.000  C
  H109     1.0000 0.07320  0.55050  0.41930  Biso   1.000  H
  H110     1.0000 0.14750  0.49480  0.47470  Biso   1.000  H
  C81      1.0000 0.18540  0.64500  0.46140  Biso   1.000  C
  H111     1.0000 0.25370  0.62100  0.45680  Biso   1.000  H
  H112     1.0000 0.17020  0.68560  0.41710  Biso   1.000  H
  C82      1.0000 0.23480  0.66270  0.60020  Biso   1.000  C
  H113     1.0000 0.30500  0.67130  0.59010  Biso   1.000  H
  H114     1.0000 0.22030  0.59320  0.60560  Biso   1.000  H
  H115     1.0000 0.21740  0.69670  0.64650  Biso   1.000  H
  C83      1.0000 0.02800  0.72080  0.63210  Biso   1.000  C
  H116     1.0000 0.95740  0.71060  0.63910  Biso   1.000  H
  H117     1.0000 0.04380  0.78950  0.64070  Biso   1.000  H
  H118     1.0000 0.06450  0.68030  0.66760  Biso   1.000  H
  C84      1.0000 0.99600  0.75000  0.49830  Biso   1.000  C
  H119     1.0000 0.92640  0.73960  0.51010  Biso   1.000  H
  H120     1.0000 0.00870  0.72980  0.44660  Biso   1.000  H
  H121     1.0000 0.01190  0.81920  0.50400  Biso   1.000  H
  C85      1.0000 0.19990  0.81620  0.52190  Biso   1.000  C
  C86      1.0000 0.93650  0.55160  0.52250  Biso   1.000  C
  C87      1.0000 0.32740  0.04870  0.25600  Biso   1.000  C
  H122     1.0000 0.34780  0.05880  0.30800  Biso   1.000  H
  H123     1.0000 0.32150  0.11180  0.23080  Biso   1.000  H
  H124     1.0000 0.37660  0.00880  0.23020  Biso   1.000  H
  C88      1.0000 0.22980  0.99740  0.25460  Biso   1.000  C
