data_NOFHOG_clean
_audit_creation_date              2014-07-02
_audit_creation_method            'Materials Studio'
_symmetry_space_group_name_H-M    'P1'
_symmetry_Int_Tables_number       1
_symmetry_cell_setting            triclinic
loop_
_symmetry_equiv_pos_as_xyz
  x,y,z
_cell_length_a                    10.4299
_cell_length_b                    13.5219
_cell_length_c                    31.6642
_cell_angle_alpha                 90.0000
_cell_angle_beta                  97.6208
_cell_angle_gamma                 90.0000
loop_
_atom_site_label
_atom_site_type_symbol
_atom_site_fract_x
_atom_site_fract_y
_atom_site_fract_z
_atom_site_U_iso_or_equiv
_atom_site_adp_type
_atom_site_occupancy
Eu1    Eu    0.91552   0.90392   0.53900   0.01267  Uiso   1.00
Eu2    Eu    0.08448   0.40392   0.96100   0.01267  Uiso   1.00
Eu3    Eu    0.08448   0.09608   0.46100   0.01267  Uiso   1.00
Eu4    Eu    0.91552   0.59608   0.03900   0.01267  Uiso   1.00
H1     H     0.78010   0.01960   0.35480   0.01267  Uiso   1.00
H2     H     0.63510   0.96910   0.29650   0.01267  Uiso   1.00
H3     H     0.46010   0.78770   0.37000   0.01267  Uiso   1.00
H4     H     0.60800   0.83580   0.43020   0.01267  Uiso   1.00
H5     H     0.75760   0.20980   0.87760   0.01267  Uiso   1.00
H6     H     0.62520   0.14880   0.81860   0.01267  Uiso   1.00
H7     H     0.82660   0.30600   0.74180   0.01267  Uiso   1.00
H8     H     0.96790   0.36110   0.80030   0.01267  Uiso   1.00
H9     H     0.14740   0.74170   0.52330   0.01267  Uiso   1.00
H10    H     0.26860   0.59220   0.53450   0.01267  Uiso   1.00
H11    H     0.46550   0.67060   0.43720   0.01267  Uiso   1.00
H12    H     0.34330   0.81660   0.42940   0.01267  Uiso   1.00
H13    H     0.21990   0.51960   0.14520   0.01267  Uiso   1.00
H14    H     0.36490   0.46910   0.20350   0.01267  Uiso   1.00
H15    H     0.53990   0.28770   0.13000   0.01267  Uiso   1.00
H16    H     0.39200   0.33580   0.06980   0.01267  Uiso   1.00
H17    H     0.24240   0.70980   0.62240   0.01267  Uiso   1.00
H18    H     0.37480   0.64880   0.68140   0.01267  Uiso   1.00
H19    H     0.17340   0.80600   0.75820   0.01267  Uiso   1.00
H20    H     0.03210   0.86110   0.69970   0.01267  Uiso   1.00
H21    H     0.85260   0.24170   0.97670   0.01267  Uiso   1.00
H22    H     0.73140   0.09220   0.96550   0.01267  Uiso   1.00
H23    H     0.53450   0.17060   0.06280   0.01267  Uiso   1.00
H24    H     0.65670   0.31660   0.07060   0.01267  Uiso   1.00
H25    H     0.21990   0.98040   0.64520   0.01267  Uiso   1.00
H26    H     0.36490   0.03090   0.70350   0.01267  Uiso   1.00
H27    H     0.53990   0.21230   0.63000   0.01267  Uiso   1.00
H28    H     0.39200   0.16420   0.56980   0.01267  Uiso   1.00
H29    H     0.24240   0.79020   0.12240   0.01267  Uiso   1.00
H30    H     0.37480   0.85120   0.18140   0.01267  Uiso   1.00
H31    H     0.17340   0.69400   0.25820   0.01267  Uiso   1.00
H32    H     0.03210   0.63890   0.19970   0.01267  Uiso   1.00
H33    H     0.85260   0.25830   0.47670   0.01267  Uiso   1.00
H34    H     0.73140   0.40780   0.46550   0.01267  Uiso   1.00
H35    H     0.53450   0.32940   0.56280   0.01267  Uiso   1.00
H36    H     0.65670   0.18340   0.57060   0.01267  Uiso   1.00
H37    H     0.78010   0.48040   0.85480   0.01267  Uiso   1.00
H38    H     0.63510   0.53090   0.79650   0.01267  Uiso   1.00
H39    H     0.46010   0.71230   0.87000   0.01267  Uiso   1.00
H40    H     0.60800   0.66420   0.93020   0.01267  Uiso   1.00
H41    H     0.75760   0.29020   0.37760   0.01267  Uiso   1.00
H42    H     0.62520   0.35120   0.31860   0.01267  Uiso   1.00
H43    H     0.82660   0.19400   0.24180   0.01267  Uiso   1.00
H44    H     0.96790   0.13890   0.30030   0.01267  Uiso   1.00
H45    H     0.14740   0.75830   0.02330   0.01267  Uiso   1.00
H46    H     0.26860   0.90780   0.03450   0.01267  Uiso   1.00
H47    H     0.46550   0.82940   0.93720   0.01267  Uiso   1.00
H48    H     0.34330   0.68340   0.92940   0.01267  Uiso   1.00
C1     C     0.19770   0.04010   0.56370   0.01267  Uiso   1.00
C2     C     0.29380   0.06970   0.60190   0.01267  Uiso   1.00
C3     C     0.28440   0.02830   0.64180   0.01267  Uiso   1.00
C4     C     0.37070   0.05840   0.67630   0.01267  Uiso   1.00
C5     C     0.46270   0.12550   0.67200   0.01267  Uiso   1.00
C6     C     0.52620   0.83450   0.36700   0.01267  Uiso   1.00
C7     C     0.61420   0.86350   0.40300   0.01267  Uiso   1.00
C8     C     0.55020   0.16200   0.70930   0.01267  Uiso   1.00
C9     C     0.97520   0.31760   0.88310   0.01267  Uiso   1.00
C10    C     0.88330   0.28340   0.84480   0.01267  Uiso   1.00
C11    C     0.77520   0.22610   0.84980   0.01267  Uiso   1.00
C12    C     0.69380   0.19280   0.81500   0.01267  Uiso   1.00
C13    C     0.71290   0.22440   0.77420   0.01267  Uiso   1.00
C14    C     0.81400   0.28500   0.76960   0.01267  Uiso   1.00
C15    C     0.89950   0.31700   0.80420   0.01267  Uiso   1.00
C16    C     0.62630   0.18980   0.73800   0.01267  Uiso   1.00
C17    C     0.16100   0.88550   0.46960   0.01267  Uiso   1.00
C18    C     0.23600   0.79090   0.47610   0.01267  Uiso   1.00
C19    C     0.21350   0.72760   0.50620   0.01267  Uiso   1.00
C20    C     0.28720   0.63810   0.51350   0.01267  Uiso   1.00
C21    C     0.38280   0.62050   0.49010   0.01267  Uiso   1.00
C22    C     0.40360   0.68540   0.45580   0.01267  Uiso   1.00
C23    C     0.32890   0.77070   0.45100   0.01267  Uiso   1.00
C24    C     0.46530   0.53660   0.49750   0.01267  Uiso   1.00
C25    C     0.80230   0.54010   0.93630   0.01267  Uiso   1.00
C26    C     0.70620   0.56970   0.89810   0.01267  Uiso   1.00
C27    C     0.71560   0.52830   0.85820   0.01267  Uiso   1.00
C28    C     0.62930   0.55840   0.82370   0.01267  Uiso   1.00
C29    C     0.53730   0.62550   0.82800   0.01267  Uiso   1.00
C30    C     0.47380   0.33450   0.13300   0.01267  Uiso   1.00
C31    C     0.38580   0.36350   0.09700   0.01267  Uiso   1.00
C32    C     0.44980   0.66200   0.79070   0.01267  Uiso   1.00
C33    C     0.02480   0.81760   0.61690   0.01267  Uiso   1.00
C34    C     0.11670   0.78340   0.65520   0.01267  Uiso   1.00
C35    C     0.22480   0.72610   0.65020   0.01267  Uiso   1.00
C36    C     0.30620   0.69280   0.68500   0.01267  Uiso   1.00
C37    C     0.28710   0.72440   0.72580   0.01267  Uiso   1.00
C38    C     0.18600   0.78500   0.73040   0.01267  Uiso   1.00
C39    C     0.10050   0.81700   0.69580   0.01267  Uiso   1.00
C40    C     0.37370   0.68980   0.76200   0.01267  Uiso   1.00
C41    C     0.83900   0.38550   0.03040   0.01267  Uiso   1.00
C42    C     0.76400   0.29090   0.02390   0.01267  Uiso   1.00
C43    C     0.78650   0.22760   0.99380   0.01267  Uiso   1.00
C44    C     0.71280   0.13810   0.98650   0.01267  Uiso   1.00
C45    C     0.61720   0.12050   0.00990   0.01267  Uiso   1.00
C46    C     0.59640   0.18540   0.04420   0.01267  Uiso   1.00
C47    C     0.67110   0.27070   0.04900   0.01267  Uiso   1.00
C48    C     0.53470   0.03660   0.00250   0.01267  Uiso   1.00
C49    C     0.80230   0.95990   0.43630   0.01267  Uiso   1.00
C50    C     0.70620   0.93030   0.39810   0.01267  Uiso   1.00
C51    C     0.71560   0.97170   0.35820   0.01267  Uiso   1.00
C52    C     0.62930   0.94160   0.32370   0.01267  Uiso   1.00
C53    C     0.53730   0.87450   0.32800   0.01267  Uiso   1.00
C54    C     0.47380   0.16550   0.63300   0.01267  Uiso   1.00
C55    C     0.38580   0.13650   0.59700   0.01267  Uiso   1.00
C56    C     0.44980   0.83800   0.29070   0.01267  Uiso   1.00
C57    C     0.02480   0.68240   0.11690   0.01267  Uiso   1.00
C58    C     0.11670   0.71660   0.15520   0.01267  Uiso   1.00
C59    C     0.22480   0.77390   0.15020   0.01267  Uiso   1.00
C60    C     0.30620   0.80720   0.18500   0.01267  Uiso   1.00
C61    C     0.28710   0.77560   0.22580   0.01267  Uiso   1.00
C62    C     0.18600   0.71500   0.23040   0.01267  Uiso   1.00
C63    C     0.10050   0.68300   0.19580   0.01267  Uiso   1.00
C64    C     0.37370   0.81020   0.26200   0.01267  Uiso   1.00
C65    C     0.83900   0.11450   0.53040   0.01267  Uiso   1.00
C66    C     0.76400   0.20910   0.52390   0.01267  Uiso   1.00
C67    C     0.78650   0.27240   0.49380   0.01267  Uiso   1.00
C68    C     0.71280   0.36190   0.48650   0.01267  Uiso   1.00
C69    C     0.61720   0.37950   0.50990   0.01267  Uiso   1.00
C70    C     0.59640   0.31460   0.54420   0.01267  Uiso   1.00
C71    C     0.67110   0.22930   0.54900   0.01267  Uiso   1.00
C72    C     0.53470   0.46340   0.50250   0.01267  Uiso   1.00
C73    C     0.19770   0.45990   0.06370   0.01267  Uiso   1.00
C74    C     0.29380   0.43030   0.10190   0.01267  Uiso   1.00
C75    C     0.28440   0.47170   0.14180   0.01267  Uiso   1.00
C76    C     0.37070   0.44160   0.17630   0.01267  Uiso   1.00
C77    C     0.46270   0.37450   0.17200   0.01267  Uiso   1.00
C78    C     0.52620   0.66550   0.86700   0.01267  Uiso   1.00
C79    C     0.61420   0.63650   0.90300   0.01267  Uiso   1.00
C80    C     0.55020   0.33800   0.20930   0.01267  Uiso   1.00
C81    C     0.97520   0.18240   0.38310   0.01267  Uiso   1.00
C82    C     0.88330   0.21660   0.34480   0.01267  Uiso   1.00
C83    C     0.77520   0.27390   0.34980   0.01267  Uiso   1.00
C84    C     0.69380   0.30720   0.31500   0.01267  Uiso   1.00
C85    C     0.71290   0.27560   0.27420   0.01267  Uiso   1.00
C86    C     0.81400   0.21500   0.26960   0.01267  Uiso   1.00
C87    C     0.89950   0.18300   0.30420   0.01267  Uiso   1.00
C88    C     0.62630   0.31020   0.23800   0.01267  Uiso   1.00
C89    C     0.16100   0.61450   0.96960   0.01267  Uiso   1.00
C90    C     0.23600   0.70910   0.97610   0.01267  Uiso   1.00
C91    C     0.21350   0.77240   0.00620   0.01267  Uiso   1.00
C92    C     0.28720   0.86190   0.01350   0.01267  Uiso   1.00
C93    C     0.38280   0.87950   0.99010   0.01267  Uiso   1.00
C94    C     0.40360   0.81460   0.95580   0.01267  Uiso   1.00
C95    C     0.32890   0.72930   0.95100   0.01267  Uiso   1.00
C96    C     0.46530   0.96340   0.99750   0.01267  Uiso   1.00
O1     O     0.10090   0.99080   0.57225   0.01267  Uiso   1.00
O2     O     0.78310   0.93160   0.47200   0.01267  Uiso   1.00
O3     O     0.06000   0.37990   0.87930   0.01267  Uiso   1.00
O4     O     0.95780   0.28060   0.91820   0.01267  Uiso   1.00
O5     O     0.06920   0.90170   0.49100   0.01267  Uiso   1.00
O6     O     0.19250   0.94700   0.44270   0.01267  Uiso   1.00
O7     O     0.89910   0.49080   0.92775   0.01267  Uiso   1.00
O8     O     0.21690   0.43160   0.02800   0.01267  Uiso   1.00
O9     O     0.94000   0.87990   0.62070   0.01267  Uiso   1.00
O10    O     0.04220   0.78060   0.58180   0.01267  Uiso   1.00
O11    O     0.93080   0.40170   0.00900   0.01267  Uiso   1.00
O12    O     0.80750   0.44700   0.05730   0.01267  Uiso   1.00
O13    O     0.89910   0.00920   0.42775   0.01267  Uiso   1.00
O14    O     0.21690   0.06840   0.52800   0.01267  Uiso   1.00
O15    O     0.94000   0.62010   0.12070   0.01267  Uiso   1.00
O16    O     0.04220   0.71940   0.08180   0.01267  Uiso   1.00
O17    O     0.93080   0.09830   0.50900   0.01267  Uiso   1.00
O18    O     0.80750   0.05300   0.55730   0.01267  Uiso   1.00
O19    O     0.10090   0.50920   0.07225   0.01267  Uiso   1.00
O20    O     0.78310   0.56840   0.97200   0.01267  Uiso   1.00
O21    O     0.06000   0.12010   0.37930   0.01267  Uiso   1.00
O22    O     0.95780   0.21940   0.41820   0.01267  Uiso   1.00
O23    O     0.06920   0.59830   0.99100   0.01267  Uiso   1.00
O24    O     0.19250   0.55300   0.94270   0.01267  Uiso   1.00
