data_NOFQII_clean
_audit_creation_date              2014-07-02
_audit_creation_method            'Materials Studio'
_symmetry_space_group_name_H-M    'P1'
_symmetry_Int_Tables_number       1
_symmetry_cell_setting            triclinic
loop_
_symmetry_equiv_pos_as_xyz
  x,y,z
_cell_length_a                    9.2950
_cell_length_b                    9.2950
_cell_length_c                    17.6890
_cell_angle_alpha                 90.0000
_cell_angle_beta                  90.0000
_cell_angle_gamma                 120.0000
loop_
_atom_site_label
_atom_site_type_symbol
_atom_site_fract_x
_atom_site_fract_y
_atom_site_fract_z
_atom_site_U_iso_or_equiv
_atom_site_adp_type
_atom_site_occupancy
Eu1    Eu    0.00000   0.00000   0.00000   0.01267  Uiso   1.00
Eu2    Eu    0.00000   0.00000   0.50000   0.01267  Uiso   1.00
La1    La    0.33333   0.66666   0.75000   0.01267  Uiso   1.00
La2    La    0.66667   0.33334   0.25000   0.01267  Uiso   1.00
H1     H     0.57300   0.59840   0.91720   0.01267  Uiso   1.00
H2     H     0.50900   0.67630   0.97560   0.01267  Uiso   1.00
H3     H     0.02540   0.42700   0.91720   0.01267  Uiso   1.00
H4     H     0.16730   0.49100   0.97560   0.01267  Uiso   1.00
H5     H     0.40160   0.97460   0.91720   0.01267  Uiso   1.00
H6     H     0.32370   0.83270   0.97560   0.01267  Uiso   1.00
H7     H     0.57300   0.59840   0.58280   0.01267  Uiso   1.00
H8     H     0.50900   0.67630   0.52440   0.01267  Uiso   1.00
H9     H     0.02540   0.42700   0.58280   0.01267  Uiso   1.00
H10    H     0.16730   0.49100   0.52440   0.01267  Uiso   1.00
H11    H     0.40160   0.97460   0.58280   0.01267  Uiso   1.00
H12    H     0.32370   0.83270   0.52440   0.01267  Uiso   1.00
H13    H     0.97460   0.40160   0.08280   0.01267  Uiso   1.00
H14    H     0.83270   0.32370   0.02440   0.01267  Uiso   1.00
H15    H     0.59840   0.57300   0.08280   0.01267  Uiso   1.00
H16    H     0.67630   0.50900   0.02440   0.01267  Uiso   1.00
H17    H     0.42700   0.02540   0.08280   0.01267  Uiso   1.00
H18    H     0.49100   0.16730   0.02440   0.01267  Uiso   1.00
H19    H     0.97460   0.40160   0.41720   0.01267  Uiso   1.00
H20    H     0.83270   0.32370   0.47560   0.01267  Uiso   1.00
H21    H     0.59840   0.57300   0.41720   0.01267  Uiso   1.00
H22    H     0.67630   0.50900   0.47560   0.01267  Uiso   1.00
H23    H     0.42700   0.02540   0.41720   0.01267  Uiso   1.00
H24    H     0.49100   0.16730   0.47560   0.01267  Uiso   1.00
C1     C     0.65560   0.83980   0.89500   0.01267  Uiso   1.00
C2     C     0.60280   0.69440   0.94690   0.01267  Uiso   1.00
C3     C     0.18420   0.34440   0.89500   0.01267  Uiso   1.00
C4     C     0.09160   0.39720   0.94690   0.01267  Uiso   1.00
C5     C     0.16020   0.81580   0.89500   0.01267  Uiso   1.00
C6     C     0.30560   0.90840   0.94690   0.01267  Uiso   1.00
C7     C     0.65560   0.83980   0.60500   0.01267  Uiso   1.00
C8     C     0.60280   0.69440   0.55310   0.01267  Uiso   1.00
C9     C     0.18420   0.34440   0.60500   0.01267  Uiso   1.00
C10    C     0.09160   0.39720   0.55310   0.01267  Uiso   1.00
C11    C     0.16020   0.81580   0.60500   0.01267  Uiso   1.00
C12    C     0.30560   0.90840   0.55310   0.01267  Uiso   1.00
C13    C     0.81580   0.16020   0.10500   0.01267  Uiso   1.00
C14    C     0.90840   0.30560   0.05310   0.01267  Uiso   1.00
C15    C     0.83980   0.65560   0.10500   0.01267  Uiso   1.00
C16    C     0.69440   0.60280   0.05310   0.01267  Uiso   1.00
C17    C     0.34440   0.18420   0.10500   0.01267  Uiso   1.00
C18    C     0.39720   0.09160   0.05310   0.01267  Uiso   1.00
C19    C     0.81580   0.16020   0.39500   0.01267  Uiso   1.00
C20    C     0.90840   0.30560   0.44690   0.01267  Uiso   1.00
C21    C     0.83980   0.65560   0.39500   0.01267  Uiso   1.00
C22    C     0.69440   0.60280   0.44690   0.01267  Uiso   1.00
C23    C     0.34440   0.18420   0.39500   0.01267  Uiso   1.00
C24    C     0.39720   0.09160   0.44690   0.01267  Uiso   1.00
O1     O     0.55840   0.82670   0.84430   0.01267  Uiso   1.00
O2     O     0.79380   0.96650   0.90680   0.01267  Uiso   1.00
O3     O     0.26830   0.44160   0.84430   0.01267  Uiso   1.00
O4     O     0.17270   0.20620   0.90680   0.01267  Uiso   1.00
O5     O     0.17330   0.73170   0.84430   0.01267  Uiso   1.00
O6     O     0.03350   0.82730   0.90680   0.01267  Uiso   1.00
O7     O     0.55840   0.82670   0.65570   0.01267  Uiso   1.00
O8     O     0.79380   0.96650   0.59320   0.01267  Uiso   1.00
O9     O     0.26830   0.44160   0.65570   0.01267  Uiso   1.00
O10    O     0.17270   0.20620   0.59320   0.01267  Uiso   1.00
O11    O     0.17330   0.73170   0.65570   0.01267  Uiso   1.00
O12    O     0.03350   0.82730   0.59320   0.01267  Uiso   1.00
O13    O     0.73170   0.17330   0.15570   0.01267  Uiso   1.00
O14    O     0.82730   0.03350   0.09320   0.01267  Uiso   1.00
O15    O     0.82670   0.55840   0.15570   0.01267  Uiso   1.00
O16    O     0.96650   0.79380   0.09320   0.01267  Uiso   1.00
O17    O     0.44160   0.26830   0.15570   0.01267  Uiso   1.00
O18    O     0.20620   0.17270   0.09320   0.01267  Uiso   1.00
O19    O     0.73170   0.17330   0.34430   0.01267  Uiso   1.00
O20    O     0.82730   0.03350   0.40680   0.01267  Uiso   1.00
O21    O     0.82670   0.55840   0.34430   0.01267  Uiso   1.00
O22    O     0.96650   0.79380   0.40680   0.01267  Uiso   1.00
O23    O     0.44160   0.26830   0.34430   0.01267  Uiso   1.00
O24    O     0.20620   0.17270   0.40680   0.01267  Uiso   1.00
O25    O     0.73230   0.73230   0.00000   0.01267  Uiso   1.00
O26    O     0.00000   0.26770   0.00000   0.01267  Uiso   1.00
O27    O     0.26770   0.00000   0.00000   0.01267  Uiso   1.00
O28    O     0.73230   0.73230   0.50000   0.01267  Uiso   1.00
O29    O     0.00000   0.26770   0.50000   0.01267  Uiso   1.00
O30    O     0.26770   0.00000   0.50000   0.01267  Uiso   1.00
