data_image0
_cell_length_a       17.1
_cell_length_b       13.303
_cell_length_c       7.297
_cell_angle_alpha    90
_cell_angle_beta     90
_cell_angle_gamma    90

_symmetry_space_group_name_H-M    "P 1"
_symmetry_int_tables_number       1

loop_
  _symmetry_equiv_pos_as_xyz
  'x, y, z'

loop_
  _atom_site_label
  _atom_site_occupancy
  _atom_site_fract_x
  _atom_site_fract_y
  _atom_site_fract_z
  _atom_site_thermal_displace_type
  _atom_site_B_iso_or_equiv
  _atom_site_type_symbol
  C1       1.0000 0.61150  0.46840  0.76700  Biso   1.000  C
  H1       1.0000 0.58280  0.48970  0.87620  Biso   1.000  H
  H2       1.0000 0.66780  0.46850  0.79280  Biso   1.000  H
  H3       1.0000 0.59500  0.40050  0.73170  Biso   1.000  H
  C2       1.0000 0.59550  0.53680  0.61900  Biso   1.000  C
  C3       1.0000 0.53340  0.53580  0.49300  Biso   1.000  C
  C4       1.0000 0.54570  0.61520  0.37400  Biso   1.000  C
  C5       1.0000 0.50260  0.65200  0.21500  Biso   1.000  C
  H4       1.0000 0.50500  0.72520  0.21070  Biso   1.000  H
  H5       1.0000 0.44800  0.63010  0.22310  Biso   1.000  H
  H6       1.0000 0.52600  0.62410  0.10270  Biso   1.000  H
  N1       1.0000 0.64480  0.61360  0.57830  Biso   1.000  N
  N2       1.0000 0.61220  0.65880  0.42990  Biso   1.000  N
  H7       1.0000 0.63280  0.71160  0.37570  Biso   1.000  H
  C6       1.0000 0.11150  0.96840  0.26700  Biso   1.000  C
  H8       1.0000 0.08280  0.98970  0.37620  Biso   1.000  H
  H9       1.0000 0.16780  0.96850  0.29280  Biso   1.000  H
  H10      1.0000 0.09500  0.90050  0.23170  Biso   1.000  H
  C7       1.0000 0.09550  0.03680  0.11900  Biso   1.000  C
  C8       1.0000 0.03340  0.03580  0.99300  Biso   1.000  C
  C9       1.0000 0.04570  0.11520  0.87400  Biso   1.000  C
  C10      1.0000 0.00260  0.15200  0.71500  Biso   1.000  C
  H11      1.0000 0.00500  0.22520  0.71070  Biso   1.000  H
  H12      1.0000 0.94800  0.13010  0.72310  Biso   1.000  H
  H13      1.0000 0.02600  0.12410  0.60270  Biso   1.000  H
  N3       1.0000 0.14480  0.11360  0.07830  Biso   1.000  N
  N4       1.0000 0.11220  0.15880  0.92990  Biso   1.000  N
  H14      1.0000 0.13280  0.21160  0.87570  Biso   1.000  H
  C11      1.0000 0.38850  0.53160  0.76700  Biso   1.000  C
  H15      1.0000 0.41720  0.51030  0.87620  Biso   1.000  H
  H16      1.0000 0.33220  0.53150  0.79280  Biso   1.000  H
  H17      1.0000 0.40500  0.59950  0.73170  Biso   1.000  H
  C12      1.0000 0.40450  0.46320  0.61900  Biso   1.000  C
  C13      1.0000 0.46660  0.46420  0.49300  Biso   1.000  C
  C14      1.0000 0.45430  0.38480  0.37400  Biso   1.000  C
  C15      1.0000 0.49740  0.34800  0.21500  Biso   1.000  C
  H18      1.0000 0.49500  0.27480  0.21070  Biso   1.000  H
  H19      1.0000 0.55200  0.36990  0.22310  Biso   1.000  H
  H20      1.0000 0.47400  0.37590  0.10270  Biso   1.000  H
  N5       1.0000 0.35520  0.38640  0.57830  Biso   1.000  N
  N6       1.0000 0.38780  0.34120  0.42990  Biso   1.000  N
  H21      1.0000 0.36720  0.28840  0.37570  Biso   1.000  H
  C16      1.0000 0.88850  0.03160  0.26700  Biso   1.000  C
  H22      1.0000 0.91720  0.01030  0.37620  Biso   1.000  H
  H23      1.0000 0.83220  0.03150  0.29280  Biso   1.000  H
  H24      1.0000 0.90500  0.09950  0.23170  Biso   1.000  H
  C17      1.0000 0.90450  0.96320  0.11900  Biso   1.000  C
  C18      1.0000 0.96660  0.96420  0.99300  Biso   1.000  C
  C19      1.0000 0.95430  0.88480  0.87400  Biso   1.000  C
  C20      1.0000 0.99740  0.84800  0.71500  Biso   1.000  C
  H25      1.0000 0.99500  0.77480  0.71070  Biso   1.000  H
  H26      1.0000 0.05200  0.86990  0.72310  Biso   1.000  H
  H27      1.0000 0.97400  0.87590  0.60270  Biso   1.000  H
  N7       1.0000 0.85520  0.88640  0.07830  Biso   1.000  N
  N8       1.0000 0.88780  0.84120  0.92990  Biso   1.000  N
  H28      1.0000 0.86720  0.78840  0.87570  Biso   1.000  H
  C21      1.0000 0.11150  0.53160  0.76700  Biso   1.000  C
  H29      1.0000 0.08280  0.51030  0.87620  Biso   1.000  H
  H30      1.0000 0.16780  0.53150  0.79280  Biso   1.000  H
  H31      1.0000 0.09500  0.59950  0.73170  Biso   1.000  H
  C22      1.0000 0.09550  0.46320  0.61900  Biso   1.000  C
  C23      1.0000 0.03340  0.46420  0.49300  Biso   1.000  C
  C24      1.0000 0.04570  0.38480  0.37400  Biso   1.000  C
  C25      1.0000 0.00260  0.34800  0.21500  Biso   1.000  C
  H32      1.0000 0.00500  0.27480  0.21070  Biso   1.000  H
  H33      1.0000 0.94800  0.36990  0.22310  Biso   1.000  H
  H34      1.0000 0.02600  0.37590  0.10270  Biso   1.000  H
  N9       1.0000 0.14480  0.38640  0.57830  Biso   1.000  N
  N10      1.0000 0.11220  0.34120  0.42990  Biso   1.000  N
  H35      1.0000 0.13280  0.28840  0.37570  Biso   1.000  H
  C26      1.0000 0.61150  0.03160  0.26700  Biso   1.000  C
  H36      1.0000 0.58280  0.01030  0.37620  Biso   1.000  H
  H37      1.0000 0.66780  0.03150  0.29280  Biso   1.000  H
  H38      1.0000 0.59500  0.09950  0.23170  Biso   1.000  H
  C27      1.0000 0.59550  0.96320  0.11900  Biso   1.000  C
  C28      1.0000 0.53340  0.96420  0.99300  Biso   1.000  C
  C29      1.0000 0.54570  0.88480  0.87400  Biso   1.000  C
  C30      1.0000 0.50260  0.84800  0.71500  Biso   1.000  C
  H39      1.0000 0.50500  0.77480  0.71070  Biso   1.000  H
  H40      1.0000 0.44800  0.86990  0.72310  Biso   1.000  H
  H41      1.0000 0.52600  0.87590  0.60270  Biso   1.000  H
  N11      1.0000 0.64480  0.88640  0.07830  Biso   1.000  N
  N12      1.0000 0.61220  0.84120  0.92990  Biso   1.000  N
  H42      1.0000 0.63280  0.78840  0.87570  Biso   1.000  H
  C31      1.0000 0.88850  0.46840  0.76700  Biso   1.000  C
  H43      1.0000 0.91720  0.48970  0.87620  Biso   1.000  H
  H44      1.0000 0.83220  0.46850  0.79280  Biso   1.000  H
  H45      1.0000 0.90500  0.40050  0.73170  Biso   1.000  H
  C32      1.0000 0.90450  0.53680  0.61900  Biso   1.000  C
  C33      1.0000 0.96660  0.53580  0.49300  Biso   1.000  C
  C34      1.0000 0.95430  0.61520  0.37400  Biso   1.000  C
  C35      1.0000 0.99740  0.65200  0.21500  Biso   1.000  C
  H46      1.0000 0.99500  0.72520  0.21070  Biso   1.000  H
  H47      1.0000 0.05200  0.63010  0.22310  Biso   1.000  H
  H48      1.0000 0.97400  0.62410  0.10270  Biso   1.000  H
  N13      1.0000 0.85520  0.61360  0.57830  Biso   1.000  N
  N14      1.0000 0.88780  0.65880  0.42990  Biso   1.000  N
  H49      1.0000 0.86720  0.71160  0.37570  Biso   1.000  H
  C36      1.0000 0.38850  0.96840  0.26700  Biso   1.000  C
  H50      1.0000 0.41720  0.98970  0.37620  Biso   1.000  H
  H51      1.0000 0.33220  0.96850  0.29280  Biso   1.000  H
  H52      1.0000 0.40500  0.90050  0.23170  Biso   1.000  H
  C37      1.0000 0.40450  0.03680  0.11900  Biso   1.000  C
  C38      1.0000 0.46660  0.03580  0.99300  Biso   1.000  C
  C39      1.0000 0.45430  0.11520  0.87400  Biso   1.000  C
  C40      1.0000 0.49740  0.15200  0.71500  Biso   1.000  C
  H53      1.0000 0.49500  0.22520  0.71070  Biso   1.000  H
  H54      1.0000 0.55200  0.13010  0.72310  Biso   1.000  H
  H55      1.0000 0.47400  0.12410  0.60270  Biso   1.000  H
  N15      1.0000 0.35520  0.11360  0.07830  Biso   1.000  N
  N16      1.0000 0.38780  0.15880  0.92990  Biso   1.000  N
  H56      1.0000 0.36720  0.21160  0.87570  Biso   1.000  H
  Cu1      1.0000 0.75000  0.65160  0.66790  Biso   1.000  Cu
  I1       1.0000 0.75000  0.84764  0.53478  Biso   1.000  I
  Cu2      1.0000 0.25000  0.15160  0.16790  Biso   1.000  Cu
  I2       1.0000 0.25000  0.34764  0.03478  Biso   1.000  I
  Cu3      1.0000 0.25000  0.34840  0.66790  Biso   1.000  Cu
  I3       1.0000 0.25000  0.15236  0.53478  Biso   1.000  I
  Cu4      1.0000 0.75000  0.84840  0.16790  Biso   1.000  Cu
  I4       1.0000 0.75000  0.65236  0.03478  Biso   1.000  I
