data_image0
_cell_length_a       13.87
_cell_length_b       13.87
_cell_length_c       15.222
_cell_angle_alpha    90
_cell_angle_beta     90
_cell_angle_gamma    120

_symmetry_space_group_name_H-M    "P 1"
_symmetry_int_tables_number       1

loop_
  _symmetry_equiv_pos_as_xyz
  'x, y, z'

loop_
  _atom_site_label
  _atom_site_occupancy
  _atom_site_fract_x
  _atom_site_fract_y
  _atom_site_fract_z
  _atom_site_thermal_displace_type
  _atom_site_B_iso_or_equiv
  _atom_site_type_symbol
  Al1      1.0000 0.56603  0.67507  0.26611  Biso   1.000  Al
  P1       1.0000 0.56852  0.67509  0.05768  Biso   1.000  P
  O1       1.0000 0.60300  0.67610  0.15120  Biso   1.000  O
  O2       1.0000 0.64820  0.66250  0.99760  Biso   1.000  O
  O3       1.0000 0.44990  0.58200  0.04360  Biso   1.000  O
  O4       1.0000 0.57660  0.78380  0.03560  Biso   1.000  O
  Al2      1.0000 0.23270  0.00840  0.59944  Biso   1.000  Al
  P2       1.0000 0.23519  0.00842  0.39101  Biso   1.000  P
  O5       1.0000 0.26967  0.00943  0.48453  Biso   1.000  O
  O6       1.0000 0.31487  0.99583  0.33093  Biso   1.000  O
  O7       1.0000 0.11657  0.91533  0.37693  Biso   1.000  O
  O8       1.0000 0.24327  0.11713  0.36893  Biso   1.000  O
  Al3      1.0000 0.89936  0.34174  0.93278  Biso   1.000  Al
  P3       1.0000 0.90185  0.34176  0.72435  Biso   1.000  P
  O9       1.0000 0.93633  0.34277  0.81787  Biso   1.000  O
  O10      1.0000 0.98153  0.32917  0.66427  Biso   1.000  O
  O11      1.0000 0.78323  0.24867  0.71027  Biso   1.000  O
  O12      1.0000 0.90993  0.45047  0.70227  Biso   1.000  O
  Al4      1.0000 0.32493  0.89096  0.26611  Biso   1.000  Al
  P4       1.0000 0.32491  0.89343  0.05768  Biso   1.000  P
  O13      1.0000 0.32390  0.92690  0.15120  Biso   1.000  O
  O14      1.0000 0.33750  0.98570  0.99760  Biso   1.000  O
  O15      1.0000 0.41800  0.86790  0.04360  Biso   1.000  O
  O16      1.0000 0.21620  0.79280  0.03560  Biso   1.000  O
  Al5      1.0000 0.99160  0.22429  0.59944  Biso   1.000  Al
  P5       1.0000 0.99158  0.22676  0.39101  Biso   1.000  P
  O17      1.0000 0.99057  0.26023  0.48453  Biso   1.000  O
  O18      1.0000 0.00417  0.31903  0.33093  Biso   1.000  O
  O19      1.0000 0.08467  0.20123  0.37693  Biso   1.000  O
  O20      1.0000 0.88287  0.12613  0.36893  Biso   1.000  O
  Al6      1.0000 0.65826  0.55763  0.93278  Biso   1.000  Al
  P6       1.0000 0.65824  0.56010  0.72435  Biso   1.000  P
  O21      1.0000 0.65723  0.59357  0.81787  Biso   1.000  O
  O22      1.0000 0.67083  0.65237  0.66427  Biso   1.000  O
  O23      1.0000 0.75133  0.53457  0.71027  Biso   1.000  O
  O24      1.0000 0.54953  0.45947  0.70227  Biso   1.000  O
  Al7      1.0000 0.10904  0.43397  0.26611  Biso   1.000  Al
  P7       1.0000 0.10657  0.43148  0.05768  Biso   1.000  P
  O25      1.0000 0.07310  0.39700  0.15120  Biso   1.000  O
  O26      1.0000 0.01430  0.35180  0.99760  Biso   1.000  O
  O27      1.0000 0.13210  0.55010  0.04360  Biso   1.000  O
  O28      1.0000 0.20720  0.42340  0.03560  Biso   1.000  O
  Al8      1.0000 0.77571  0.76730  0.59944  Biso   1.000  Al
  P8       1.0000 0.77324  0.76481  0.39101  Biso   1.000  P
  O29      1.0000 0.73977  0.73033  0.48453  Biso   1.000  O
  O30      1.0000 0.68097  0.68513  0.33093  Biso   1.000  O
  O31      1.0000 0.79877  0.88343  0.37693  Biso   1.000  O
  O32      1.0000 0.87387  0.75673  0.36893  Biso   1.000  O
  Al9      1.0000 0.44237  0.10064  0.93278  Biso   1.000  Al
  P9       1.0000 0.43990  0.09815  0.72435  Biso   1.000  P
  O33      1.0000 0.40643  0.06367  0.81787  Biso   1.000  O
  O34      1.0000 0.34763  0.01847  0.66427  Biso   1.000  O
  O35      1.0000 0.46543  0.21677  0.71027  Biso   1.000  O
  O36      1.0000 0.54053  0.09007  0.70227  Biso   1.000  O
  Al10     1.0000 0.43397  0.32493  0.73389  Biso   1.000  Al
  P10      1.0000 0.43148  0.32491  0.94232  Biso   1.000  P
  O37      1.0000 0.39700  0.32390  0.84880  Biso   1.000  O
  O38      1.0000 0.35180  0.33750  0.00240  Biso   1.000  O
  O39      1.0000 0.55010  0.41800  0.95640  Biso   1.000  O
  O40      1.0000 0.42340  0.21620  0.96440  Biso   1.000  O
  Al11     1.0000 0.10064  0.65826  0.06722  Biso   1.000  Al
  P11      1.0000 0.09815  0.65824  0.27565  Biso   1.000  P
  O41      1.0000 0.06367  0.65723  0.18213  Biso   1.000  O
  O42      1.0000 0.01847  0.67083  0.33573  Biso   1.000  O
  O43      1.0000 0.21677  0.75133  0.28973  Biso   1.000  O
  O44      1.0000 0.09007  0.54953  0.29773  Biso   1.000  O
  Al12     1.0000 0.76730  0.99160  0.40056  Biso   1.000  Al
  P12      1.0000 0.76481  0.99158  0.60899  Biso   1.000  P
  O45      1.0000 0.73033  0.99057  0.51547  Biso   1.000  O
  O46      1.0000 0.68513  0.00417  0.66907  Biso   1.000  O
  O47      1.0000 0.88343  0.08467  0.62307  Biso   1.000  O
  O48      1.0000 0.75673  0.88287  0.63107  Biso   1.000  O
  Al13     1.0000 0.67507  0.10904  0.73389  Biso   1.000  Al
  P13      1.0000 0.67509  0.10657  0.94232  Biso   1.000  P
  O49      1.0000 0.67610  0.07310  0.84880  Biso   1.000  O
  O50      1.0000 0.66250  0.01430  0.00240  Biso   1.000  O
  O51      1.0000 0.58200  0.13210  0.95640  Biso   1.000  O
  O52      1.0000 0.78380  0.20720  0.96440  Biso   1.000  O
  Al14     1.0000 0.34174  0.44237  0.06722  Biso   1.000  Al
  P14      1.0000 0.34176  0.43990  0.27565  Biso   1.000  P
  O53      1.0000 0.34277  0.40643  0.18213  Biso   1.000  O
  O54      1.0000 0.32917  0.34763  0.33573  Biso   1.000  O
  O55      1.0000 0.24867  0.46543  0.28973  Biso   1.000  O
  O56      1.0000 0.45047  0.54053  0.29773  Biso   1.000  O
  Al15     1.0000 0.00840  0.77571  0.40056  Biso   1.000  Al
  P15      1.0000 0.00842  0.77324  0.60899  Biso   1.000  P
  O57      1.0000 0.00943  0.73977  0.51547  Biso   1.000  O
  O58      1.0000 0.99583  0.68097  0.66907  Biso   1.000  O
  O59      1.0000 0.91533  0.79877  0.62307  Biso   1.000  O
  O60      1.0000 0.11713  0.87387  0.63107  Biso   1.000  O
  Al16     1.0000 0.89096  0.56603  0.73389  Biso   1.000  Al
  P16      1.0000 0.89343  0.56852  0.94232  Biso   1.000  P
  O61      1.0000 0.92690  0.60300  0.84880  Biso   1.000  O
  O62      1.0000 0.98570  0.64820  0.00240  Biso   1.000  O
  O63      1.0000 0.86790  0.44990  0.95640  Biso   1.000  O
  O64      1.0000 0.79280  0.57660  0.96440  Biso   1.000  O
  Al17     1.0000 0.55763  0.89936  0.06722  Biso   1.000  Al
  P17      1.0000 0.56010  0.90185  0.27565  Biso   1.000  P
  O65      1.0000 0.59357  0.93633  0.18213  Biso   1.000  O
  O66      1.0000 0.65237  0.98153  0.33573  Biso   1.000  O
  O67      1.0000 0.53457  0.78323  0.28973  Biso   1.000  O
  O68      1.0000 0.45947  0.90993  0.29773  Biso   1.000  O
  Al18     1.0000 0.22429  0.23270  0.40056  Biso   1.000  Al
  P18      1.0000 0.22676  0.23519  0.60899  Biso   1.000  P
  O69      1.0000 0.26023  0.26967  0.51547  Biso   1.000  O
  O70      1.0000 0.31903  0.31487  0.66907  Biso   1.000  O
  O71      1.0000 0.20123  0.11657  0.62307  Biso   1.000  O
  O72      1.0000 0.12613  0.24327  0.63107  Biso   1.000  O
