data_NOHFOG_clean
_audit_creation_date              2014-07-02
_audit_creation_method            'Materials Studio'
_symmetry_space_group_name_H-M    'P1'
_symmetry_Int_Tables_number       1
_symmetry_cell_setting            triclinic
loop_
_symmetry_equiv_pos_as_xyz
  x,y,z
_cell_length_a                    9.8442
_cell_length_b                    10.8795
_cell_length_c                    29.2288
_cell_angle_alpha                 90.0000
_cell_angle_beta                  90.0000
_cell_angle_gamma                 92.1770
loop_
_atom_site_label
_atom_site_type_symbol
_atom_site_fract_x
_atom_site_fract_y
_atom_site_fract_z
_atom_site_U_iso_or_equiv
_atom_site_adp_type
_atom_site_occupancy
Er1    Er    0.54517   0.04156   0.91851   0.01267  Uiso   1.00
Er2    Er    0.54026   0.26342   0.74846   0.01267  Uiso   1.00
Er3    Er    0.45483   0.45844   0.41851   0.01267  Uiso   1.00
Er4    Er    0.45974   0.23658   0.24846   0.01267  Uiso   1.00
Er5    Er    0.45483   0.95844   0.08149   0.01267  Uiso   1.00
Er6    Er    0.45974   0.73658   0.25154   0.01267  Uiso   1.00
Er7    Er    0.54517   0.54156   0.58149   0.01267  Uiso   1.00
Er8    Er    0.54026   0.76342   0.75154   0.01267  Uiso   1.00
H1     H     0.86590   0.89320   0.71320   0.01267  Uiso   1.00
H2     H     0.09400   0.84510   0.70930   0.01267  Uiso   1.00
H3     H     0.22000   0.16260   0.89300   0.01267  Uiso   1.00
H4     H     0.98670   0.16450   0.90760   0.01267  Uiso   1.00
H5     H     0.94310   0.68940   0.98260   0.01267  Uiso   1.00
H6     H     0.17520   0.73540   0.98720   0.01267  Uiso   1.00
H7     H     0.13410   0.60680   0.21320   0.01267  Uiso   1.00
H8     H     0.90600   0.65490   0.20930   0.01267  Uiso   1.00
H9     H     0.78000   0.33740   0.39300   0.01267  Uiso   1.00
H10    H     0.01330   0.33550   0.40760   0.01267  Uiso   1.00
H11    H     0.05690   0.81060   0.48260   0.01267  Uiso   1.00
H12    H     0.82480   0.76460   0.48720   0.01267  Uiso   1.00
H13    H     0.13410   0.10680   0.28680   0.01267  Uiso   1.00
H14    H     0.90600   0.15490   0.29070   0.01267  Uiso   1.00
H15    H     0.78000   0.83740   0.10700   0.01267  Uiso   1.00
H16    H     0.01330   0.83550   0.09240   0.01267  Uiso   1.00
H17    H     0.05690   0.31060   0.01740   0.01267  Uiso   1.00
H18    H     0.82480   0.26460   0.01280   0.01267  Uiso   1.00
H19    H     0.86590   0.39320   0.78680   0.01267  Uiso   1.00
H20    H     0.09400   0.34510   0.79070   0.01267  Uiso   1.00
H21    H     0.22000   0.66260   0.60700   0.01267  Uiso   1.00
H22    H     0.98670   0.66450   0.59240   0.01267  Uiso   1.00
H23    H     0.94310   0.18940   0.51740   0.01267  Uiso   1.00
H24    H     0.17520   0.23540   0.51280   0.01267  Uiso   1.00
C1     C     0.92480   0.08740   0.84871   0.01267  Uiso   1.00
C2     C     0.96910   0.03230   0.80702   0.01267  Uiso   1.00
C3     C     0.87900   0.99050   0.77145   0.01267  Uiso   1.00
C4     C     0.92600   0.92200   0.73567   0.01267  Uiso   1.00
C5     C     0.06450   0.89500   0.73282   0.01267  Uiso   1.00
C6     C     0.15700   0.94140   0.76429   0.01267  Uiso   1.00
C7     C     0.11190   0.01680   0.80113   0.01267  Uiso   1.00
C8     C     0.20540   0.07510   0.83274   0.01267  Uiso   1.00
C9     C     0.15870   0.12850   0.87188   0.01267  Uiso   1.00
C10    C     0.01730   0.13170   0.88026   0.01267  Uiso   1.00
C11    C     0.78110   0.07910   0.86496   0.01267  Uiso   1.00
C12    C     0.73300   0.02910   0.76708   0.01267  Uiso   1.00
C13    C     0.35350   0.09910   0.82227   0.01267  Uiso   1.00
C14    C     0.29820   0.89530   0.76138   0.01267  Uiso   1.00
C15    C     0.88160   0.86130   0.98931   0.01267  Uiso   1.00
C16    C     0.97380   0.77060   0.98633   0.01267  Uiso   1.00
C17    C     0.11410   0.79840   0.98888   0.01267  Uiso   1.00
C18    C     0.16140   0.91690   0.99382   0.01267  Uiso   1.00
C19    C     0.92820   0.98580   0.99883   0.01267  Uiso   1.00
C20    C     0.73700   0.82710   0.97647   0.01267  Uiso   1.00
C21    C     0.31120   0.94080   0.98583   0.01267  Uiso   1.00
C22    C     0.07520   0.41260   0.34871   0.01267  Uiso   1.00
C23    C     0.03090   0.46770   0.30702   0.01267  Uiso   1.00
C24    C     0.12100   0.50950   0.27145   0.01267  Uiso   1.00
C25    C     0.07400   0.57800   0.23567   0.01267  Uiso   1.00
C26    C     0.93550   0.60500   0.23282   0.01267  Uiso   1.00
C27    C     0.84300   0.55860   0.26429   0.01267  Uiso   1.00
C28    C     0.88810   0.48320   0.30113   0.01267  Uiso   1.00
C29    C     0.79460   0.42490   0.33274   0.01267  Uiso   1.00
C30    C     0.84130   0.37150   0.37188   0.01267  Uiso   1.00
C31    C     0.98270   0.36830   0.38026   0.01267  Uiso   1.00
C32    C     0.21890   0.42090   0.36496   0.01267  Uiso   1.00
C33    C     0.26700   0.47090   0.26708   0.01267  Uiso   1.00
C34    C     0.64650   0.40090   0.32227   0.01267  Uiso   1.00
C35    C     0.70180   0.60470   0.26138   0.01267  Uiso   1.00
C36    C     0.11840   0.63870   0.48931   0.01267  Uiso   1.00
C37    C     0.02620   0.72940   0.48633   0.01267  Uiso   1.00
C38    C     0.88590   0.70160   0.48888   0.01267  Uiso   1.00
C39    C     0.83860   0.58310   0.49382   0.01267  Uiso   1.00
C40    C     0.07180   0.51420   0.49883   0.01267  Uiso   1.00
C41    C     0.26300   0.67290   0.47647   0.01267  Uiso   1.00
C42    C     0.68880   0.55920   0.48583   0.01267  Uiso   1.00
C43    C     0.07520   0.91260   0.15129   0.01267  Uiso   1.00
C44    C     0.03090   0.96770   0.19298   0.01267  Uiso   1.00
C45    C     0.12100   0.00950   0.22855   0.01267  Uiso   1.00
C46    C     0.07400   0.07800   0.26433   0.01267  Uiso   1.00
C47    C     0.93550   0.10500   0.26718   0.01267  Uiso   1.00
C48    C     0.84300   0.05860   0.23571   0.01267  Uiso   1.00
C49    C     0.88810   0.98320   0.19887   0.01267  Uiso   1.00
C50    C     0.79460   0.92490   0.16726   0.01267  Uiso   1.00
C51    C     0.84130   0.87150   0.12812   0.01267  Uiso   1.00
C52    C     0.98270   0.86830   0.11974   0.01267  Uiso   1.00
C53    C     0.21890   0.92090   0.13504   0.01267  Uiso   1.00
C54    C     0.26700   0.97090   0.23292   0.01267  Uiso   1.00
C55    C     0.64650   0.90090   0.17773   0.01267  Uiso   1.00
C56    C     0.70180   0.10470   0.23862   0.01267  Uiso   1.00
C57    C     0.11840   0.13870   0.01069   0.01267  Uiso   1.00
C58    C     0.02620   0.22940   0.01367   0.01267  Uiso   1.00
C59    C     0.88590   0.20160   0.01112   0.01267  Uiso   1.00
C60    C     0.83860   0.08310   0.00618   0.01267  Uiso   1.00
C61    C     0.07180   0.01420   0.00117   0.01267  Uiso   1.00
C62    C     0.26300   0.17290   0.02353   0.01267  Uiso   1.00
C63    C     0.68880   0.05920   0.01417   0.01267  Uiso   1.00
C64    C     0.92480   0.58740   0.65129   0.01267  Uiso   1.00
C65    C     0.96910   0.53230   0.69298   0.01267  Uiso   1.00
C66    C     0.87900   0.49050   0.72855   0.01267  Uiso   1.00
C67    C     0.92600   0.42200   0.76433   0.01267  Uiso   1.00
C68    C     0.06450   0.39500   0.76718   0.01267  Uiso   1.00
C69    C     0.15700   0.44140   0.73571   0.01267  Uiso   1.00
C70    C     0.11190   0.51680   0.69887   0.01267  Uiso   1.00
C71    C     0.20540   0.57510   0.66726   0.01267  Uiso   1.00
C72    C     0.15870   0.62850   0.62812   0.01267  Uiso   1.00
C73    C     0.01730   0.63170   0.61974   0.01267  Uiso   1.00
C74    C     0.78110   0.57910   0.63504   0.01267  Uiso   1.00
C75    C     0.73300   0.52910   0.73292   0.01267  Uiso   1.00
C76    C     0.35350   0.59910   0.67773   0.01267  Uiso   1.00
C77    C     0.29820   0.39530   0.73862   0.01267  Uiso   1.00
C78    C     0.88160   0.36130   0.51069   0.01267  Uiso   1.00
C79    C     0.97380   0.27060   0.51367   0.01267  Uiso   1.00
C80    C     0.11410   0.29840   0.51112   0.01267  Uiso   1.00
C81    C     0.16140   0.41690   0.50618   0.01267  Uiso   1.00
C82    C     0.92820   0.48580   0.50117   0.01267  Uiso   1.00
C83    C     0.73700   0.32710   0.52353   0.01267  Uiso   1.00
C84    C     0.31120   0.44080   0.51417   0.01267  Uiso   1.00
O1     O     0.71210   0.14070   0.77251   0.01267  Uiso   1.00
O2     O     0.64360   0.95070   0.75494   0.01267  Uiso   1.00
O3     O     0.70790   0.98440   0.85831   0.01267  Uiso   1.00
O4     O     0.73590   0.16420   0.89045   0.01267  Uiso   1.00
O5     O     0.38390   0.13040   0.78221   0.01267  Uiso   1.00
O6     O     0.43780   0.09630   0.85442   0.01267  Uiso   1.00
O7     O     0.35540   0.88870   0.72276   0.01267  Uiso   1.00
O8     O     0.35540   0.85400   0.79630   0.01267  Uiso   1.00
O9     O     0.67760   0.89930   0.94987   0.01267  Uiso   1.00
O10    O     0.68540   0.72740   0.99068   0.01267  Uiso   1.00
O11    O     0.39400   0.88380   0.00988   0.01267  Uiso   1.00
O12    O     0.34140   0.01410   0.95385   0.01267  Uiso   1.00
O13    O     0.28790   0.35930   0.27251   0.01267  Uiso   1.00
O14    O     0.35640   0.54930   0.25494   0.01267  Uiso   1.00
O15    O     0.29210   0.51560   0.35831   0.01267  Uiso   1.00
O16    O     0.26410   0.33580   0.39045   0.01267  Uiso   1.00
O17    O     0.61610   0.36960   0.28221   0.01267  Uiso   1.00
O18    O     0.56220   0.40370   0.35442   0.01267  Uiso   1.00
O19    O     0.64460   0.61130   0.22276   0.01267  Uiso   1.00
O20    O     0.64460   0.64600   0.29630   0.01267  Uiso   1.00
O21    O     0.32240   0.60070   0.44987   0.01267  Uiso   1.00
O22    O     0.31460   0.77260   0.49068   0.01267  Uiso   1.00
O23    O     0.60600   0.61620   0.50988   0.01267  Uiso   1.00
O24    O     0.65860   0.48590   0.45385   0.01267  Uiso   1.00
O25    O     0.28790   0.85930   0.22749   0.01267  Uiso   1.00
O26    O     0.35640   0.04930   0.24506   0.01267  Uiso   1.00
O27    O     0.29210   0.01560   0.14169   0.01267  Uiso   1.00
O28    O     0.26410   0.83580   0.10955   0.01267  Uiso   1.00
O29    O     0.61610   0.86960   0.21779   0.01267  Uiso   1.00
O30    O     0.56220   0.90370   0.14558   0.01267  Uiso   1.00
O31    O     0.64460   0.11130   0.27724   0.01267  Uiso   1.00
O32    O     0.64460   0.14600   0.20370   0.01267  Uiso   1.00
O33    O     0.32240   0.10070   0.05013   0.01267  Uiso   1.00
O34    O     0.31460   0.27260   0.00932   0.01267  Uiso   1.00
O35    O     0.60600   0.11620   0.99012   0.01267  Uiso   1.00
O36    O     0.65860   0.98590   0.04615   0.01267  Uiso   1.00
O37    O     0.71210   0.64070   0.72749   0.01267  Uiso   1.00
O38    O     0.64360   0.45070   0.74506   0.01267  Uiso   1.00
O39    O     0.70790   0.48440   0.64169   0.01267  Uiso   1.00
O40    O     0.73590   0.66420   0.60955   0.01267  Uiso   1.00
O41    O     0.38390   0.63040   0.71779   0.01267  Uiso   1.00
O42    O     0.43780   0.59630   0.64558   0.01267  Uiso   1.00
O43    O     0.35540   0.38870   0.77724   0.01267  Uiso   1.00
O44    O     0.35540   0.35400   0.70370   0.01267  Uiso   1.00
O45    O     0.67760   0.39930   0.55013   0.01267  Uiso   1.00
O46    O     0.68540   0.22740   0.50932   0.01267  Uiso   1.00
O47    O     0.39400   0.38380   0.49012   0.01267  Uiso   1.00
O48    O     0.34140   0.51410   0.54615   0.01267  Uiso   1.00
