data_image0
_cell_length_a       10.3314
_cell_length_b       12.3196
_cell_length_c       19.042
_cell_angle_alpha    106.785
_cell_angle_beta     93.694
_cell_angle_gamma    94.284

_symmetry_space_group_name_H-M    "P 1"
_symmetry_int_tables_number       1

loop_
  _symmetry_equiv_pos_as_xyz
  'x, y, z'

loop_
  _atom_site_label
  _atom_site_occupancy
  _atom_site_fract_x
  _atom_site_fract_y
  _atom_site_fract_z
  _atom_site_thermal_displace_type
  _atom_site_B_iso_or_equiv
  _atom_site_type_symbol
  Cu1      1.0000 0.10869  0.47926  0.22495  Biso   1.000  Cu
  Cu2      1.0000 0.34595  0.54578  0.28994  Biso   1.000  Cu
  Cu3      1.0000 0.58850  0.20678  0.39764  Biso   1.000  Cu
  Cu4      1.0000 0.88105  0.83383  0.03246  Biso   1.000  Cu
  O1       1.0000 0.16940  0.32780  0.19270  Biso   1.000  O
  O2       1.0000 0.74800  0.29870  0.43700  Biso   1.000  O
  O3       1.0000 0.71770  0.74410  0.99110  Biso   1.000  O
  O4       1.0000 0.37340  0.57220  0.19680  Biso   1.000  O
  O5       1.0000 0.08430  0.63970  0.26330  Biso   1.000  O
  O6       1.0000 0.08250  0.45770  0.32100  Biso   1.000  O
  O7       1.0000 0.28560  0.70000  0.31940  Biso   1.000  O
  O8       1.0000 0.28630  0.50460  0.37380  Biso   1.000  O
  N1       1.0000 0.38300  0.42720  0.62080  Biso   1.000  N
  O9       1.0000 0.04250  0.92760  0.07010  Biso   1.000  O
  O10      1.0000 0.43220  0.10700  0.35740  Biso   1.000  O
  O11      1.0000 0.17860  0.50860  0.13480  Biso   1.000  O
  O12      1.0000 0.73370  0.73040  0.10460  Biso   1.000  O
  N2       1.0000 0.09580  0.55690  0.81000  Biso   1.000  N
  N3       1.0000 0.28330  0.34750  0.59270  Biso   1.000  N
  O13      1.0000 0.29130  0.22590  0.34000  Biso   1.000  O
  O14      1.0000 0.37440  0.38520  0.24120  Biso   1.000  O
  N4       1.0000 0.78680  0.96810  0.08220  Biso   1.000  N
  N5       1.0000 0.26480  0.57080  0.88340  Biso   1.000  N
  N6       1.0000 0.68970  0.08160  0.33190  Biso   1.000  N
  N7       1.0000 0.85310  0.99120  0.29860  Biso   1.000  N
  C1       1.0000 0.06030  0.31600  0.53850  Biso   1.000  C
  H1       1.0000 0.03700  0.28140  0.57390  Biso   1.000  H
  C2       1.0000 0.46330  0.64260  0.96390  Biso   1.000  C
  H2       1.0000 0.50070  0.66310  0.92590  Biso   1.000  H
  C3       1.0000 0.33700  0.59200  0.95360  Biso   1.000  C
  N8       1.0000 0.13540  0.57760  0.87940  Biso   1.000  N
  N9       1.0000 0.81730  0.08590  0.34540  Biso   1.000  N
  N10      1.0000 0.45600  0.38890  0.66510  Biso   1.000  N
  C4       1.0000 0.18710  0.36060  0.53880  Biso   1.000  C
  N11      1.0000 0.65880  0.95830  0.07860  Biso   1.000  N
  N12      1.0000 0.62350  0.05650  0.11840  Biso   1.000  N
  C5       1.0000 0.29030  0.25900  0.62010  Biso   1.000  C
  H3       1.0000 0.23250  0.19360  0.60970  Biso   1.000  H
  O15      1.0000 0.80550  0.20990  0.51950  Biso   1.000  O
  C6       1.0000 0.17010  0.46360  0.37150  Biso   1.000  C
  C7       1.0000 0.53310  0.66250  0.03110  Biso   1.000  C
  C8       1.0000 0.27710  0.56290  0.00960  Biso   1.000  C
  H4       1.0000 0.19160  0.52950  0.00180  Biso   1.000  H
  C9       1.0000 0.22970  0.10570  0.13380  Biso   1.000  C
  H5       1.0000 0.14210  0.11760  0.13660  Biso   1.000  H
  C10      1.0000 0.82980  0.27230  0.48100  Biso   1.000  C
  C11      1.0000 0.22530  0.41220  0.48650  Biso   1.000  C
  H6       1.0000 0.31100  0.44220  0.48790  Biso   1.000  H
  C12      1.0000 0.96740  0.32400  0.48370  Biso   1.000  C
  C13      1.0000 0.08410  0.05750  0.31730  Biso   1.000  C
  H7       1.0000 0.06360  0.13060  0.31980  Biso   1.000  H
  C14      1.0000 0.98610  0.96800  0.30340  Biso   1.000  C
  C15      1.0000 0.47460  0.63430  0.08760  Biso   1.000  C
  H8       1.0000 0.52140  0.64900  0.13330  Biso   1.000  H
  C16      1.0000 0.39360  0.98170  0.09180  Biso   1.000  C
  H9       1.0000 0.41780  0.91040  0.06710  Biso   1.000  H
  C17      1.0000 0.29340  0.55240  0.14090  Biso   1.000  C
  C18      1.0000 0.31880  0.13310  0.34300  Biso   1.000  C
  C19      1.0000 0.40180  0.28700  0.66670  Biso   1.000  C
  H10      1.0000 0.43470  0.24300  0.69470  Biso   1.000  H
  C20      1.0000 0.00390  0.37260  0.43140  Biso   1.000  C
  H11      1.0000 0.94230  0.37590  0.39440  Biso   1.000  H
  C21      1.0000 0.13220  0.41760  0.43220  Biso   1.000  C
  C22      1.0000 0.21200  0.03580  0.32740  Biso   1.000  C
  C23      1.0000 0.30680  0.54560  0.81580  Biso   1.000  C
  H12      1.0000 0.39160  0.53580  0.80320  Biso   1.000  H
  O16      1.0000 0.19140  0.81420  0.02070  Biso   1.000  O
  C24      1.0000 0.64490  0.98540  0.27840  Biso   1.000  C
  H13      1.0000 0.55850  0.96320  0.25970  Biso   1.000  H
  C25      1.0000 0.19810  0.53750  0.77000  Biso   1.000  C
  H14      1.0000 0.19510  0.52120  0.71900  Biso   1.000  H
  C26      1.0000 0.67110  0.71440  0.04410  Biso   1.000  C
  C27      1.0000 0.17400  0.71660  0.29680  Biso   1.000  C
  C28      1.0000 0.48770  0.07350  0.12520  Biso   1.000  C
  C29      1.0000 0.74930  0.92640  0.25640  Biso   1.000  C
  H15      1.0000 0.74900  0.85690  0.22030  Biso   1.000  H
  C30      1.0000 0.14330  0.83680  0.30570  Biso   1.000  C
  C31      1.0000 0.01440  0.85870  0.29570  Biso   1.000  C
  H16      1.0000 0.94790  0.79950  0.28390  Biso   1.000  H
  C32      1.0000 0.24200  0.92630  0.32250  Biso   1.000  C
  H17      1.0000 0.32820  0.91250  0.33040  Biso   1.000  H
  C33      1.0000 0.34760  0.58480  0.07740  Biso   1.000  C
  C34      1.0000 0.32320  0.19490  0.16710  Biso   1.000  C
  C35      1.0000 0.15990  0.90430  0.05930  Biso   1.000  C
  C36      1.0000 0.28620  0.31130  0.20430  Biso   1.000  C
  C37      1.0000 0.26250  0.00080  0.09690  Biso   1.000  C
  C38      1.0000 0.45510  0.17740  0.16370  Biso   1.000  C
  H18      1.0000 0.51930  0.23590  0.18750  Biso   1.000  H
  C39      1.0000 0.72970  0.13040  0.14890  Biso   1.000  C
  H19      1.0000 0.73160  0.20460  0.17960  Biso   1.000  H
  C40      1.0000 0.83230  0.07280  0.12510  Biso   1.000  C
  H20      1.0000 0.91960  0.10080  0.13650  Biso   1.000  H
  Cu5      1.0000 0.89131  0.52074  0.77505  Biso   1.000  Cu
  Cu6      1.0000 0.65405  0.45422  0.71006  Biso   1.000  Cu
  Cu7      1.0000 0.41150  0.79322  0.60236  Biso   1.000  Cu
  Cu8      1.0000 0.11895  0.16617  0.96754  Biso   1.000  Cu
  O17      1.0000 0.83060  0.67220  0.80730  Biso   1.000  O
  O18      1.0000 0.25200  0.70130  0.56300  Biso   1.000  O
  O19      1.0000 0.28230  0.25590  0.00890  Biso   1.000  O
  O20      1.0000 0.62660  0.42780  0.80320  Biso   1.000  O
  O21      1.0000 0.91570  0.36030  0.73670  Biso   1.000  O
  O22      1.0000 0.91750  0.54230  0.67900  Biso   1.000  O
  O23      1.0000 0.71440  0.30000  0.68060  Biso   1.000  O
  O24      1.0000 0.71370  0.49540  0.62620  Biso   1.000  O
  N13      1.0000 0.61700  0.57280  0.37920  Biso   1.000  N
  O25      1.0000 0.95750  0.07240  0.92990  Biso   1.000  O
  O26      1.0000 0.56780  0.89300  0.64260  Biso   1.000  O
  O27      1.0000 0.82140  0.49140  0.86520  Biso   1.000  O
  O28      1.0000 0.26630  0.26960  0.89540  Biso   1.000  O
  N14      1.0000 0.90420  0.44310  0.19000  Biso   1.000  N
  N15      1.0000 0.71670  0.65250  0.40730  Biso   1.000  N
  O29      1.0000 0.70870  0.77410  0.66000  Biso   1.000  O
  O30      1.0000 0.62560  0.61480  0.75880  Biso   1.000  O
  N16      1.0000 0.21320  0.03190  0.91780  Biso   1.000  N
  N17      1.0000 0.73520  0.42920  0.11660  Biso   1.000  N
  N18      1.0000 0.31030  0.91840  0.66810  Biso   1.000  N
  N19      1.0000 0.14690  0.00880  0.70140  Biso   1.000  N
  C41      1.0000 0.93970  0.68400  0.46150  Biso   1.000  C
  H21      1.0000 0.96300  0.71860  0.42610  Biso   1.000  H
  C42      1.0000 0.53670  0.35740  0.03610  Biso   1.000  C
  H22      1.0000 0.49930  0.33690  0.07410  Biso   1.000  H
  C43      1.0000 0.66300  0.40800  0.04640  Biso   1.000  C
  N20      1.0000 0.86460  0.42240  0.12060  Biso   1.000  N
  N21      1.0000 0.18270  0.91410  0.65460  Biso   1.000  N
  N22      1.0000 0.54400  0.61110  0.33490  Biso   1.000  N
  C44      1.0000 0.81290  0.63940  0.46120  Biso   1.000  C
  N23      1.0000 0.34120  0.04170  0.92140  Biso   1.000  N
  N24      1.0000 0.37650  0.94350  0.88160  Biso   1.000  N
  C45      1.0000 0.70970  0.74100  0.37990  Biso   1.000  C
  H23      1.0000 0.76750  0.80640  0.39030  Biso   1.000  H
  O31      1.0000 0.19450  0.79010  0.48050  Biso   1.000  O
  C46      1.0000 0.82990  0.53640  0.62850  Biso   1.000  C
  C47      1.0000 0.46690  0.33750  0.96890  Biso   1.000  C
  C48      1.0000 0.72290  0.43710  0.99040  Biso   1.000  C
  H24      1.0000 0.80840  0.47050  0.99820  Biso   1.000  H
  C49      1.0000 0.77030  0.89430  0.86620  Biso   1.000  C
  H25      1.0000 0.85790  0.88240  0.86340  Biso   1.000  H
  C50      1.0000 0.17020  0.72770  0.51900  Biso   1.000  C
  C51      1.0000 0.77470  0.58780  0.51350  Biso   1.000  C
  H26      1.0000 0.68900  0.55780  0.51210  Biso   1.000  H
  C52      1.0000 0.03260  0.67600  0.51630  Biso   1.000  C
  C53      1.0000 0.91590  0.94250  0.68270  Biso   1.000  C
  H27      1.0000 0.93640  0.86940  0.68020  Biso   1.000  H
  C54      1.0000 0.01390  0.03200  0.69660  Biso   1.000  C
  C55      1.0000 0.52540  0.36570  0.91240  Biso   1.000  C
  H28      1.0000 0.47860  0.35100  0.86670  Biso   1.000  H
  C56      1.0000 0.60640  0.01830  0.90820  Biso   1.000  C
  H29      1.0000 0.58220  0.08960  0.93290  Biso   1.000  H
  C57      1.0000 0.70660  0.44760  0.85910  Biso   1.000  C
  C58      1.0000 0.68120  0.86690  0.65700  Biso   1.000  C
  C59      1.0000 0.59820  0.71300  0.33330  Biso   1.000  C
  H30      1.0000 0.56530  0.75700  0.30530  Biso   1.000  H
  C60      1.0000 0.99610  0.62740  0.56860  Biso   1.000  C
  H31      1.0000 0.05770  0.62410  0.60560  Biso   1.000  H
  C61      1.0000 0.86780  0.58240  0.56780  Biso   1.000  C
  C62      1.0000 0.78800  0.96420  0.67260  Biso   1.000  C
  C63      1.0000 0.69320  0.45440  0.18420  Biso   1.000  C
  H32      1.0000 0.60840  0.46420  0.19680  Biso   1.000  H
  O32      1.0000 0.80860  0.18580  0.97930  Biso   1.000  O
  C64      1.0000 0.35510  0.01460  0.72160  Biso   1.000  C
  H33      1.0000 0.44150  0.03680  0.74030  Biso   1.000  H
  C65      1.0000 0.80190  0.46250  0.23000  Biso   1.000  C
  H34      1.0000 0.80490  0.47880  0.28100  Biso   1.000  H
  C66      1.0000 0.32890  0.28560  0.95590  Biso   1.000  C
  C67      1.0000 0.82600  0.28340  0.70320  Biso   1.000  C
  C68      1.0000 0.51230  0.92650  0.87480  Biso   1.000  C
  C69      1.0000 0.25070  0.07360  0.74360  Biso   1.000  C
  H35      1.0000 0.25100  0.14310  0.77970  Biso   1.000  H
  C70      1.0000 0.85670  0.16320  0.69430  Biso   1.000  C
  C71      1.0000 0.98560  0.14130  0.70430  Biso   1.000  C
  H36      1.0000 0.05210  0.20050  0.71610  Biso   1.000  H
  C72      1.0000 0.75800  0.07370  0.67750  Biso   1.000  C
  H37      1.0000 0.67180  0.08750  0.66960  Biso   1.000  H
  C73      1.0000 0.65240  0.41520  0.92260  Biso   1.000  C
  C74      1.0000 0.67680  0.80510  0.83290  Biso   1.000  C
  C75      1.0000 0.84010  0.09570  0.94070  Biso   1.000  C
  C76      1.0000 0.71380  0.68870  0.79570  Biso   1.000  C
  C77      1.0000 0.73750  0.99920  0.90310  Biso   1.000  C
  C78      1.0000 0.54490  0.82260  0.83630  Biso   1.000  C
  H38      1.0000 0.48070  0.76410  0.81250  Biso   1.000  H
  C79      1.0000 0.27030  0.86960  0.85110  Biso   1.000  C
  H39      1.0000 0.26840  0.79540  0.82040  Biso   1.000  H
  C80      1.0000 0.16770  0.92720  0.87490  Biso   1.000  C
  H40      1.0000 0.08040  0.89920  0.86350  Biso   1.000  H
