data_image0
_cell_length_a       15.147
_cell_length_b       6.6763
_cell_length_c       14.375
_cell_angle_alpha    90
_cell_angle_beta     90
_cell_angle_gamma    90

_symmetry_space_group_name_H-M    "P 1"
_symmetry_int_tables_number       1

loop_
  _symmetry_equiv_pos_as_xyz
  'x, y, z'

loop_
  _atom_site_label
  _atom_site_occupancy
  _atom_site_fract_x
  _atom_site_fract_y
  _atom_site_fract_z
  _atom_site_thermal_displace_type
  _atom_site_B_iso_or_equiv
  _atom_site_type_symbol
  O1       1.0000 0.85190  0.08440  0.63700  Biso   1.000  O
  O2       1.0000 0.70330  0.58400  0.74180  Biso   1.000  O
  O3       1.0000 0.64810  0.91560  0.13700  Biso   1.000  O
  O4       1.0000 0.79670  0.41600  0.24180  Biso   1.000  O
  O5       1.0000 0.14810  0.58440  0.36300  Biso   1.000  O
  O6       1.0000 0.29670  0.08400  0.25820  Biso   1.000  O
  O7       1.0000 0.35190  0.41560  0.86300  Biso   1.000  O
  O8       1.0000 0.20330  0.91600  0.75820  Biso   1.000  O
  O9       1.0000 0.14810  0.91560  0.36300  Biso   1.000  O
  O10      1.0000 0.29670  0.41600  0.25820  Biso   1.000  O
  O11      1.0000 0.35190  0.08440  0.86300  Biso   1.000  O
  O12      1.0000 0.20330  0.58400  0.75820  Biso   1.000  O
  O13      1.0000 0.85190  0.41560  0.63700  Biso   1.000  O
  O14      1.0000 0.70330  0.91600  0.74180  Biso   1.000  O
  O15      1.0000 0.64810  0.58440  0.13700  Biso   1.000  O
  O16      1.0000 0.79670  0.08400  0.24180  Biso   1.000  O
  Tb1      1.0000 0.80031  0.75000  0.62023  Biso   1.000  Tb
  O17      1.0000 0.84730  0.75000  0.46330  Biso   1.000  O
  O18      1.0000 0.88940  0.75000  0.75720  Biso   1.000  O
  N1       1.0000 0.96470  0.75000  0.59480  Biso   1.000  N
  C1       1.0000 0.92750  0.75000  0.43380  Biso   1.000  C
  Na1      1.0000 0.73460  0.75000  0.31000  Biso   1.000  Na
  C2       1.0000 0.96910  0.75000  0.75870  Biso   1.000  C
  C3       1.0000 0.99640  0.75000  0.50820  Biso   1.000  C
  C4       1.0000 0.01790  0.75000  0.66700  Biso   1.000  C
  O19      1.0000 0.94830  0.75000  0.35250  Biso   1.000  O
  O20      1.0000 0.01850  0.75000  0.83000  Biso   1.000  O
  C5       1.0000 0.08720  0.75000  0.49400  Biso   1.000  C
  C6       1.0000 0.10660  0.75000  0.65270  Biso   1.000  C
  N2       1.0000 0.14270  0.75000  0.56600  Biso   1.000  N
  C7       1.0000 0.12960  0.75000  0.39940  Biso   1.000  C
  C8       1.0000 0.17670  0.75000  0.72980  Biso   1.000  C
  Tb2      1.0000 0.69969  0.25000  0.12023  Biso   1.000  Tb
  O21      1.0000 0.65270  0.25000  0.96330  Biso   1.000  O
  O22      1.0000 0.61060  0.25000  0.25720  Biso   1.000  O
  N3       1.0000 0.53530  0.25000  0.09480  Biso   1.000  N
  C9       1.0000 0.57250  0.25000  0.93380  Biso   1.000  C
  Na2      1.0000 0.76540  0.25000  0.81000  Biso   1.000  Na
  C10      1.0000 0.53090  0.25000  0.25870  Biso   1.000  C
  C11      1.0000 0.50360  0.25000  0.00820  Biso   1.000  C
  C12      1.0000 0.48210  0.25000  0.16700  Biso   1.000  C
  O23      1.0000 0.55170  0.25000  0.85250  Biso   1.000  O
  O24      1.0000 0.48150  0.25000  0.33000  Biso   1.000  O
  C13      1.0000 0.41280  0.25000  0.99400  Biso   1.000  C
  C14      1.0000 0.39340  0.25000  0.15270  Biso   1.000  C
  N4       1.0000 0.35730  0.25000  0.06600  Biso   1.000  N
  C15      1.0000 0.37040  0.25000  0.89940  Biso   1.000  C
  C16      1.0000 0.32330  0.25000  0.22980  Biso   1.000  C
  Tb3      1.0000 0.19969  0.25000  0.37977  Biso   1.000  Tb
  O25      1.0000 0.15270  0.25000  0.53670  Biso   1.000  O
  O26      1.0000 0.11060  0.25000  0.24280  Biso   1.000  O
  N5       1.0000 0.03530  0.25000  0.40520  Biso   1.000  N
  C17      1.0000 0.07250  0.25000  0.56620  Biso   1.000  C
  Na3      1.0000 0.26540  0.25000  0.69000  Biso   1.000  Na
  C18      1.0000 0.03090  0.25000  0.24130  Biso   1.000  C
  C19      1.0000 0.00360  0.25000  0.49180  Biso   1.000  C
  C20      1.0000 0.98210  0.25000  0.33300  Biso   1.000  C
  O27      1.0000 0.05170  0.25000  0.64750  Biso   1.000  O
  O28      1.0000 0.98150  0.25000  0.17000  Biso   1.000  O
  C21      1.0000 0.91280  0.25000  0.50600  Biso   1.000  C
  C22      1.0000 0.89340  0.25000  0.34730  Biso   1.000  C
  N6       1.0000 0.85730  0.25000  0.43400  Biso   1.000  N
  C23      1.0000 0.87040  0.25000  0.60060  Biso   1.000  C
  C24      1.0000 0.82330  0.25000  0.27020  Biso   1.000  C
  Tb4      1.0000 0.30031  0.75000  0.87977  Biso   1.000  Tb
  O29      1.0000 0.34730  0.75000  0.03670  Biso   1.000  O
  O30      1.0000 0.38940  0.75000  0.74280  Biso   1.000  O
  N7       1.0000 0.46470  0.75000  0.90520  Biso   1.000  N
  C25      1.0000 0.42750  0.75000  0.06620  Biso   1.000  C
  Na4      1.0000 0.23460  0.75000  0.19000  Biso   1.000  Na
  C26      1.0000 0.46910  0.75000  0.74130  Biso   1.000  C
  C27      1.0000 0.49640  0.75000  0.99180  Biso   1.000  C
  C28      1.0000 0.51790  0.75000  0.83300  Biso   1.000  C
  O31      1.0000 0.44830  0.75000  0.14750  Biso   1.000  O
  O32      1.0000 0.51850  0.75000  0.67000  Biso   1.000  O
  C29      1.0000 0.58720  0.75000  0.00600  Biso   1.000  C
  C30      1.0000 0.60660  0.75000  0.84730  Biso   1.000  C
  N8       1.0000 0.64270  0.75000  0.93400  Biso   1.000  N
  C31      1.0000 0.62960  0.75000  0.10060  Biso   1.000  C
  C32      1.0000 0.67670  0.75000  0.77020  Biso   1.000  C
