data_image0
_cell_length_a       15.306
_cell_length_b       6.726
_cell_length_c       14.386
_cell_angle_alpha    90
_cell_angle_beta     90
_cell_angle_gamma    90

_symmetry_space_group_name_H-M    "P 1"
_symmetry_int_tables_number       1

loop_
  _symmetry_equiv_pos_as_xyz
  'x, y, z'

loop_
  _atom_site_label
  _atom_site_occupancy
  _atom_site_fract_x
  _atom_site_fract_y
  _atom_site_fract_z
  _atom_site_thermal_displace_type
  _atom_site_B_iso_or_equiv
  _atom_site_type_symbol
  O1       1.0000 0.14790  0.58690  0.36240  Biso   1.000  O
  O2       1.0000 0.20560  0.91500  0.75490  Biso   1.000  O
  O3       1.0000 0.35210  0.41310  0.86240  Biso   1.000  O
  O4       1.0000 0.29440  0.08500  0.25490  Biso   1.000  O
  O5       1.0000 0.85210  0.08690  0.63760  Biso   1.000  O
  O6       1.0000 0.79440  0.41500  0.24510  Biso   1.000  O
  O7       1.0000 0.64790  0.91310  0.13760  Biso   1.000  O
  O8       1.0000 0.70560  0.58500  0.74510  Biso   1.000  O
  O9       1.0000 0.85210  0.41310  0.63760  Biso   1.000  O
  O10      1.0000 0.79440  0.08500  0.24510  Biso   1.000  O
  O11      1.0000 0.64790  0.58690  0.13760  Biso   1.000  O
  O12      1.0000 0.70560  0.91500  0.74510  Biso   1.000  O
  O13      1.0000 0.14790  0.91310  0.36240  Biso   1.000  O
  O14      1.0000 0.20560  0.58500  0.75490  Biso   1.000  O
  O15      1.0000 0.35210  0.08690  0.86240  Biso   1.000  O
  O16      1.0000 0.29440  0.41500  0.25490  Biso   1.000  O
  Eu1      1.0000 0.80154  0.75000  0.62110  Biso   1.000  Eu
  O17      1.0000 0.84980  0.75000  0.46290  Biso   1.000  O
  O18      1.0000 0.95050  0.75000  0.35250  Biso   1.000  O
  O19      1.0000 0.02290  0.75000  0.83010  Biso   1.000  O
  O20      1.0000 0.89160  0.75000  0.75890  Biso   1.000  O
  N1       1.0000 0.96650  0.75000  0.59550  Biso   1.000  N
  N2       1.0000 0.14300  0.75000  0.56310  Biso   1.000  N
  C1       1.0000 0.99790  0.75000  0.50820  Biso   1.000  C
  C2       1.0000 0.08570  0.75000  0.49250  Biso   1.000  C
  C3       1.0000 0.10650  0.75000  0.65210  Biso   1.000  C
  C4       1.0000 0.02000  0.75000  0.66690  Biso   1.000  C
  C5       1.0000 0.92880  0.75000  0.43360  Biso   1.000  C
  C6       1.0000 0.12910  0.75000  0.39930  Biso   1.000  C
  C7       1.0000 0.17340  0.75000  0.72900  Biso   1.000  C
  C8       1.0000 0.97290  0.75000  0.75990  Biso   1.000  C
  Eu2      1.0000 0.69846  0.25000  0.12110  Biso   1.000  Eu
  O21      1.0000 0.65020  0.25000  0.96290  Biso   1.000  O
  O22      1.0000 0.54950  0.25000  0.85250  Biso   1.000  O
  O23      1.0000 0.47710  0.25000  0.33010  Biso   1.000  O
  O24      1.0000 0.60840  0.25000  0.25890  Biso   1.000  O
  N3       1.0000 0.53350  0.25000  0.09550  Biso   1.000  N
  N4       1.0000 0.35700  0.25000  0.06310  Biso   1.000  N
  C9       1.0000 0.50210  0.25000  0.00820  Biso   1.000  C
  C10      1.0000 0.41430  0.25000  0.99250  Biso   1.000  C
  C11      1.0000 0.39350  0.25000  0.15210  Biso   1.000  C
  C12      1.0000 0.48000  0.25000  0.16690  Biso   1.000  C
  C13      1.0000 0.57120  0.25000  0.93360  Biso   1.000  C
  C14      1.0000 0.37090  0.25000  0.89930  Biso   1.000  C
  C15      1.0000 0.32660  0.25000  0.22900  Biso   1.000  C
  C16      1.0000 0.52710  0.25000  0.25990  Biso   1.000  C
  Eu3      1.0000 0.19846  0.25000  0.37890  Biso   1.000  Eu
  O25      1.0000 0.15020  0.25000  0.53710  Biso   1.000  O
  O26      1.0000 0.04950  0.25000  0.64750  Biso   1.000  O
  O27      1.0000 0.97710  0.25000  0.16990  Biso   1.000  O
  O28      1.0000 0.10840  0.25000  0.24110  Biso   1.000  O
  N5       1.0000 0.03350  0.25000  0.40450  Biso   1.000  N
  N6       1.0000 0.85700  0.25000  0.43690  Biso   1.000  N
  C17      1.0000 0.00210  0.25000  0.49180  Biso   1.000  C
  C18      1.0000 0.91430  0.25000  0.50750  Biso   1.000  C
  C19      1.0000 0.89350  0.25000  0.34790  Biso   1.000  C
  C20      1.0000 0.98000  0.25000  0.33310  Biso   1.000  C
  C21      1.0000 0.07120  0.25000  0.56640  Biso   1.000  C
  C22      1.0000 0.87090  0.25000  0.60070  Biso   1.000  C
  C23      1.0000 0.82660  0.25000  0.27100  Biso   1.000  C
  C24      1.0000 0.02710  0.25000  0.24010  Biso   1.000  C
  Eu4      1.0000 0.30154  0.75000  0.87890  Biso   1.000  Eu
  O29      1.0000 0.34980  0.75000  0.03710  Biso   1.000  O
  O30      1.0000 0.45050  0.75000  0.14750  Biso   1.000  O
  O31      1.0000 0.52290  0.75000  0.66990  Biso   1.000  O
  O32      1.0000 0.39160  0.75000  0.74110  Biso   1.000  O
  N7       1.0000 0.46650  0.75000  0.90450  Biso   1.000  N
  N8       1.0000 0.64300  0.75000  0.93690  Biso   1.000  N
  C25      1.0000 0.49790  0.75000  0.99180  Biso   1.000  C
  C26      1.0000 0.58570  0.75000  0.00750  Biso   1.000  C
  C27      1.0000 0.60650  0.75000  0.84790  Biso   1.000  C
  C28      1.0000 0.52000  0.75000  0.83310  Biso   1.000  C
  C29      1.0000 0.42880  0.75000  0.06640  Biso   1.000  C
  C30      1.0000 0.62910  0.75000  0.10070  Biso   1.000  C
  C31      1.0000 0.67340  0.75000  0.77100  Biso   1.000  C
  C32      1.0000 0.47290  0.75000  0.74010  Biso   1.000  C
  Na1      1.0000 0.26390  0.25000  0.68900  Biso   1.000  Na
  Na2      1.0000 0.23610  0.75000  0.18900  Biso   1.000  Na
  Na3      1.0000 0.73610  0.75000  0.31100  Biso   1.000  Na
  Na4      1.0000 0.76390  0.25000  0.81100  Biso   1.000  Na
