data_image0
_cell_length_a       15.414
_cell_length_b       6.718
_cell_length_c       14.322
_cell_angle_alpha    90
_cell_angle_beta     90
_cell_angle_gamma    90

_symmetry_space_group_name_H-M    "P 1"
_symmetry_int_tables_number       1

loop_
  _symmetry_equiv_pos_as_xyz
  'x, y, z'

loop_
  _atom_site_label
  _atom_site_occupancy
  _atom_site_fract_x
  _atom_site_fract_y
  _atom_site_fract_z
  _atom_site_thermal_displace_type
  _atom_site_B_iso_or_equiv
  _atom_site_type_symbol
  O1       1.0000 0.14470  0.58680  0.35850  Biso   1.000  O
  O2       1.0000 0.20690  0.91510  0.75220  Biso   1.000  O
  O3       1.0000 0.70450  0.97800  0.54450  Biso   1.000  O
  H1       1.0000 0.69090  0.03360  0.59520  Biso   1.000  H
  H2       1.0000 0.67000  0.88510  0.53350  Biso   1.000  H
  O4       1.0000 0.35530  0.41320  0.85850  Biso   1.000  O
  O5       1.0000 0.29310  0.08490  0.25220  Biso   1.000  O
  O6       1.0000 0.79550  0.02200  0.04450  Biso   1.000  O
  H3       1.0000 0.80910  0.96640  0.09520  Biso   1.000  H
  H4       1.0000 0.83000  0.11490  0.03350  Biso   1.000  H
  O7       1.0000 0.85530  0.08680  0.64150  Biso   1.000  O
  O8       1.0000 0.79310  0.41510  0.24780  Biso   1.000  O
  O9       1.0000 0.29550  0.47800  0.45550  Biso   1.000  O
  H5       1.0000 0.30910  0.53360  0.40480  Biso   1.000  H
  H6       1.0000 0.33000  0.38510  0.46650  Biso   1.000  H
  O10      1.0000 0.64470  0.91320  0.14150  Biso   1.000  O
  O11      1.0000 0.70690  0.58490  0.74780  Biso   1.000  O
  O12      1.0000 0.20450  0.52200  0.95550  Biso   1.000  O
  H7       1.0000 0.19090  0.46640  0.90480  Biso   1.000  H
  H8       1.0000 0.17000  0.61490  0.96650  Biso   1.000  H
  O13      1.0000 0.85530  0.41320  0.64150  Biso   1.000  O
  O14      1.0000 0.79310  0.08490  0.24780  Biso   1.000  O
  O15      1.0000 0.29550  0.02200  0.45550  Biso   1.000  O
  H9       1.0000 0.30910  0.96640  0.40480  Biso   1.000  H
  H10      1.0000 0.33000  0.11490  0.46650  Biso   1.000  H
  O16      1.0000 0.64470  0.58680  0.14150  Biso   1.000  O
  O17      1.0000 0.70690  0.91510  0.74780  Biso   1.000  O
  O18      1.0000 0.20450  0.97800  0.95550  Biso   1.000  O
  H11      1.0000 0.19090  0.03360  0.90480  Biso   1.000  H
  H12      1.0000 0.17000  0.88510  0.96650  Biso   1.000  H
  O19      1.0000 0.14470  0.91320  0.35850  Biso   1.000  O
  O20      1.0000 0.20690  0.58490  0.75220  Biso   1.000  O
  O21      1.0000 0.70450  0.52200  0.54450  Biso   1.000  O
  H13      1.0000 0.69090  0.46640  0.59520  Biso   1.000  H
  H14      1.0000 0.67000  0.61490  0.53350  Biso   1.000  H
  O22      1.0000 0.35530  0.08680  0.85850  Biso   1.000  O
  O23      1.0000 0.29310  0.41510  0.25220  Biso   1.000  O
  O24      1.0000 0.79550  0.47800  0.04450  Biso   1.000  O
  H15      1.0000 0.80910  0.53360  0.09520  Biso   1.000  H
  H16      1.0000 0.83000  0.38510  0.03350  Biso   1.000  H
  Ce1      1.0000 0.80334  0.75000  0.62343  Biso   1.000  Ce
  O25      1.0000 0.84970  0.75000  0.46220  Biso   1.000  O
  O26      1.0000 0.94980  0.75000  0.34980  Biso   1.000  O
  O27      1.0000 0.02730  0.75000  0.82860  Biso   1.000  O
  O28      1.0000 0.89720  0.75000  0.75980  Biso   1.000  O
  N1       1.0000 0.96660  0.75000  0.59480  Biso   1.000  N
  N2       1.0000 0.14250  0.75000  0.56200  Biso   1.000  N
  C1       1.0000 0.99710  0.75000  0.50700  Biso   1.000  C
  C2       1.0000 0.08520  0.75000  0.49030  Biso   1.000  C
  C3       1.0000 0.11130  0.75000  0.64810  Biso   1.000  C
  C4       1.0000 0.02140  0.75000  0.66510  Biso   1.000  C
  C5       1.0000 0.92730  0.75000  0.43070  Biso   1.000  C
  C6       1.0000 0.12560  0.75000  0.39200  Biso   1.000  C
  C7       1.0000 0.17800  0.75000  0.72250  Biso   1.000  C
  C8       1.0000 0.97910  0.75000  0.75960  Biso   1.000  C
  Ce2      1.0000 0.69666  0.25000  0.12343  Biso   1.000  Ce
  O29      1.0000 0.65030  0.25000  0.96220  Biso   1.000  O
  O30      1.0000 0.55020  0.25000  0.84980  Biso   1.000  O
  O31      1.0000 0.47270  0.25000  0.32860  Biso   1.000  O
  O32      1.0000 0.60280  0.25000  0.25980  Biso   1.000  O
  N3       1.0000 0.53340  0.25000  0.09480  Biso   1.000  N
  N4       1.0000 0.35750  0.25000  0.06200  Biso   1.000  N
  C9       1.0000 0.50290  0.25000  0.00700  Biso   1.000  C
  C10      1.0000 0.41480  0.25000  0.99030  Biso   1.000  C
  C11      1.0000 0.38870  0.25000  0.14810  Biso   1.000  C
  C12      1.0000 0.47860  0.25000  0.16510  Biso   1.000  C
  C13      1.0000 0.57270  0.25000  0.93070  Biso   1.000  C
  C14      1.0000 0.37440  0.25000  0.89200  Biso   1.000  C
  C15      1.0000 0.32200  0.25000  0.22250  Biso   1.000  C
  C16      1.0000 0.52090  0.25000  0.25960  Biso   1.000  C
  Ce3      1.0000 0.19666  0.25000  0.37657  Biso   1.000  Ce
  O33      1.0000 0.15030  0.25000  0.53780  Biso   1.000  O
  O34      1.0000 0.05020  0.25000  0.65020  Biso   1.000  O
  O35      1.0000 0.97270  0.25000  0.17140  Biso   1.000  O
  O36      1.0000 0.10280  0.25000  0.24020  Biso   1.000  O
  N5       1.0000 0.03340  0.25000  0.40520  Biso   1.000  N
  N6       1.0000 0.85750  0.25000  0.43800  Biso   1.000  N
  C17      1.0000 0.00290  0.25000  0.49300  Biso   1.000  C
  C18      1.0000 0.91480  0.25000  0.50970  Biso   1.000  C
  C19      1.0000 0.88870  0.25000  0.35190  Biso   1.000  C
  C20      1.0000 0.97860  0.25000  0.33490  Biso   1.000  C
  C21      1.0000 0.07270  0.25000  0.56930  Biso   1.000  C
  C22      1.0000 0.87440  0.25000  0.60800  Biso   1.000  C
  C23      1.0000 0.82200  0.25000  0.27750  Biso   1.000  C
  C24      1.0000 0.02090  0.25000  0.24040  Biso   1.000  C
  Ce4      1.0000 0.30334  0.75000  0.87657  Biso   1.000  Ce
  O37      1.0000 0.34970  0.75000  0.03780  Biso   1.000  O
  O38      1.0000 0.44980  0.75000  0.15020  Biso   1.000  O
  O39      1.0000 0.52730  0.75000  0.67140  Biso   1.000  O
  O40      1.0000 0.39720  0.75000  0.74020  Biso   1.000  O
  N7       1.0000 0.46660  0.75000  0.90520  Biso   1.000  N
  N8       1.0000 0.64250  0.75000  0.93800  Biso   1.000  N
  C25      1.0000 0.49710  0.75000  0.99300  Biso   1.000  C
  C26      1.0000 0.58520  0.75000  0.00970  Biso   1.000  C
  C27      1.0000 0.61130  0.75000  0.85190  Biso   1.000  C
  C28      1.0000 0.52140  0.75000  0.83490  Biso   1.000  C
  C29      1.0000 0.42730  0.75000  0.06930  Biso   1.000  C
  C30      1.0000 0.62560  0.75000  0.10800  Biso   1.000  C
  C31      1.0000 0.67800  0.75000  0.77750  Biso   1.000  C
  C32      1.0000 0.47910  0.75000  0.74040  Biso   1.000  C
  Na1      1.0000 0.25860  0.25000  0.69090  Biso   1.000  Na
  Na2      1.0000 0.24140  0.75000  0.19090  Biso   1.000  Na
  Na3      1.0000 0.74140  0.75000  0.30910  Biso   1.000  Na
  Na4      1.0000 0.75860  0.25000  0.80910  Biso   1.000  Na
