data_image0
_cell_length_a       15.569
_cell_length_b       6.8533
_cell_length_c       14.397
_cell_angle_alpha    90
_cell_angle_beta     90
_cell_angle_gamma    90

_symmetry_space_group_name_H-M    "P 1"
_symmetry_int_tables_number       1

loop_
  _symmetry_equiv_pos_as_xyz
  'x, y, z'

loop_
  _atom_site_label
  _atom_site_occupancy
  _atom_site_fract_x
  _atom_site_fract_y
  _atom_site_fract_z
  _atom_site_thermal_displace_type
  _atom_site_B_iso_or_equiv
  _atom_site_type_symbol
  O1       1.0000 0.14740  0.58930  0.36150  Biso   1.000  O
  O2       1.0000 0.20640  0.90900  0.74970  Biso   1.000  O
  O3       1.0000 0.35260  0.41070  0.86150  Biso   1.000  O
  O4       1.0000 0.29360  0.09100  0.24970  Biso   1.000  O
  O5       1.0000 0.85260  0.08930  0.63850  Biso   1.000  O
  O6       1.0000 0.79360  0.40900  0.25030  Biso   1.000  O
  O7       1.0000 0.64740  0.91070  0.13850  Biso   1.000  O
  O8       1.0000 0.70640  0.59100  0.75030  Biso   1.000  O
  O9       1.0000 0.85260  0.41070  0.63850  Biso   1.000  O
  O10      1.0000 0.79360  0.09100  0.25030  Biso   1.000  O
  O11      1.0000 0.64740  0.58930  0.13850  Biso   1.000  O
  O12      1.0000 0.70640  0.90900  0.75030  Biso   1.000  O
  O13      1.0000 0.14740  0.91070  0.36150  Biso   1.000  O
  O14      1.0000 0.20640  0.59100  0.74970  Biso   1.000  O
  O15      1.0000 0.35260  0.08930  0.86150  Biso   1.000  O
  O16      1.0000 0.29360  0.40900  0.24970  Biso   1.000  O
  Sm1      1.0000 0.80181  0.75000  0.62143  Biso   1.000  Sm
  O17      1.0000 0.85400  0.75000  0.45910  Biso   1.000  O
  O18      1.0000 0.95550  0.75000  0.34990  Biso   1.000  O
  O19      1.0000 0.02830  0.75000  0.82650  Biso   1.000  O
  O20      1.0000 0.90120  0.75000  0.75910  Biso   1.000  O
  N1       1.0000 0.96810  0.75000  0.59340  Biso   1.000  N
  N2       1.0000 0.14220  0.75000  0.56170  Biso   1.000  N
  C1       1.0000 0.99880  0.75000  0.50660  Biso   1.000  C
  C2       1.0000 0.08740  0.75000  0.49100  Biso   1.000  C
  C3       1.0000 0.11090  0.75000  0.64740  Biso   1.000  C
  C4       1.0000 0.02230  0.75000  0.66350  Biso   1.000  C
  C5       1.0000 0.93070  0.75000  0.43100  Biso   1.000  C
  C6       1.0000 0.12920  0.75000  0.39600  Biso   1.000  C
  C7       1.0000 0.17890  0.75000  0.72250  Biso   1.000  C
  C8       1.0000 0.98170  0.75000  0.75820  Biso   1.000  C
  Sm2      1.0000 0.69819  0.25000  0.12143  Biso   1.000  Sm
  O21      1.0000 0.64600  0.25000  0.95910  Biso   1.000  O
  O22      1.0000 0.54450  0.25000  0.84990  Biso   1.000  O
  O23      1.0000 0.47170  0.25000  0.32650  Biso   1.000  O
  O24      1.0000 0.59880  0.25000  0.25910  Biso   1.000  O
  N3       1.0000 0.53190  0.25000  0.09340  Biso   1.000  N
  N4       1.0000 0.35780  0.25000  0.06170  Biso   1.000  N
  C9       1.0000 0.50120  0.25000  0.00660  Biso   1.000  C
  C10      1.0000 0.41260  0.25000  0.99100  Biso   1.000  C
  C11      1.0000 0.38910  0.25000  0.14740  Biso   1.000  C
  C12      1.0000 0.47770  0.25000  0.16350  Biso   1.000  C
  C13      1.0000 0.56930  0.25000  0.93100  Biso   1.000  C
  C14      1.0000 0.37080  0.25000  0.89600  Biso   1.000  C
  C15      1.0000 0.32110  0.25000  0.22250  Biso   1.000  C
  C16      1.0000 0.51830  0.25000  0.25820  Biso   1.000  C
  Sm3      1.0000 0.19819  0.25000  0.37857  Biso   1.000  Sm
  O25      1.0000 0.14600  0.25000  0.54090  Biso   1.000  O
  O26      1.0000 0.04450  0.25000  0.65010  Biso   1.000  O
  O27      1.0000 0.97170  0.25000  0.17350  Biso   1.000  O
  O28      1.0000 0.09880  0.25000  0.24090  Biso   1.000  O
  N5       1.0000 0.03190  0.25000  0.40660  Biso   1.000  N
  N6       1.0000 0.85780  0.25000  0.43830  Biso   1.000  N
  C17      1.0000 0.00120  0.25000  0.49340  Biso   1.000  C
  C18      1.0000 0.91260  0.25000  0.50900  Biso   1.000  C
  C19      1.0000 0.88910  0.25000  0.35260  Biso   1.000  C
  C20      1.0000 0.97770  0.25000  0.33650  Biso   1.000  C
  C21      1.0000 0.06930  0.25000  0.56900  Biso   1.000  C
  C22      1.0000 0.87080  0.25000  0.60400  Biso   1.000  C
  C23      1.0000 0.82110  0.25000  0.27750  Biso   1.000  C
  C24      1.0000 0.01830  0.25000  0.24180  Biso   1.000  C
  Sm4      1.0000 0.30181  0.75000  0.87857  Biso   1.000  Sm
  O29      1.0000 0.35400  0.75000  0.04090  Biso   1.000  O
  O30      1.0000 0.45550  0.75000  0.15010  Biso   1.000  O
  O31      1.0000 0.52830  0.75000  0.67350  Biso   1.000  O
  O32      1.0000 0.40120  0.75000  0.74090  Biso   1.000  O
  N7       1.0000 0.46810  0.75000  0.90660  Biso   1.000  N
  N8       1.0000 0.64220  0.75000  0.93830  Biso   1.000  N
  C25      1.0000 0.49880  0.75000  0.99340  Biso   1.000  C
  C26      1.0000 0.58740  0.75000  0.00900  Biso   1.000  C
  C27      1.0000 0.61090  0.75000  0.85260  Biso   1.000  C
  C28      1.0000 0.52230  0.75000  0.83650  Biso   1.000  C
  C29      1.0000 0.43070  0.75000  0.06900  Biso   1.000  C
  C30      1.0000 0.62920  0.75000  0.10400  Biso   1.000  C
  C31      1.0000 0.67890  0.75000  0.77750  Biso   1.000  C
  C32      1.0000 0.48170  0.75000  0.74180  Biso   1.000  C
  Na1      1.0000 0.25950  0.25000  0.69210  Biso   1.000  Na
  Na2      1.0000 0.24050  0.75000  0.19210  Biso   1.000  Na
  Na3      1.0000 0.74050  0.75000  0.30790  Biso   1.000  Na
  Na4      1.0000 0.75950  0.25000  0.80790  Biso   1.000  Na
