data_image0
_cell_length_a       16.135
_cell_length_b       26.792
_cell_length_c       18.63
_cell_angle_alpha    90
_cell_angle_beta     110.57
_cell_angle_gamma    90

_symmetry_space_group_name_H-M    "P 1"
_symmetry_int_tables_number       1

loop_
  _symmetry_equiv_pos_as_xyz
  'x, y, z'

loop_
  _atom_site_label
  _atom_site_occupancy
  _atom_site_fract_x
  _atom_site_fract_y
  _atom_site_fract_z
  _atom_site_thermal_displace_type
  _atom_site_B_iso_or_equiv
  _atom_site_type_symbol
  Ca1      1.0000 0.95226  0.43205  0.97084  Biso   1.000  Ca
  Ca2      1.0000 0.27871  0.93699  0.44478  Biso   1.000  Ca
  O1       1.0000 0.06307  0.49387  0.95642  Biso   1.000  O
  H1       1.0000 0.11410  0.48170  0.97620  Biso   1.000  H
  H2       1.0000 0.05450  0.49730  0.90950  Biso   1.000  H
  O2       1.0000 0.85245  0.36484  0.90870  Biso   1.000  O
  O3       1.0000 0.78752  0.41468  0.96482  Biso   1.000  O
  O4       1.0000 0.02382  0.38481  0.89772  Biso   1.000  O
  O5       1.0000 0.93898  0.32073  0.83680  Biso   1.000  O
  H3       1.0000 0.91080  0.33340  0.86200  Biso   1.000  H
  O6       1.0000 0.24076  0.01694  0.48378  Biso   1.000  O
  O7       1.0000 0.38053  0.99525  0.54573  Biso   1.000  O
  O8       1.0000 0.37590  0.99385  0.38663  Biso   1.000  O
  O9       1.0000 0.23427  0.97678  0.32494  Biso   1.000  O
  O10      1.0000 0.97041  0.11738  0.58757  Biso   1.000  O
  O11      1.0000 0.08430  0.07399  0.58407  Biso   1.000  O
  O12      1.0000 0.50263  0.41519  0.99554  Biso   1.000  O
  O13      1.0000 0.62665  0.37679  0.06676  Biso   1.000  O
  C1       1.0000 0.45210  0.27240  0.78950  Biso   1.000  C
  C2       1.0000 0.37740  0.29126  0.80170  Biso   1.000  C
  H4       1.0000 0.38360  0.31970  0.83360  Biso   1.000  H
  C3       1.0000 0.29420  0.26948  0.76840  Biso   1.000  C
  C4       1.0000 0.28660  0.22717  0.72320  Biso   1.000  C
  H5       1.0000 0.23030  0.21210  0.69980  Biso   1.000  H
  C5       1.0000 0.36040  0.20651  0.71160  Biso   1.000  C
  C6       1.0000 0.44240  0.22993  0.74430  Biso   1.000  C
  H6       1.0000 0.49260  0.21660  0.73570  Biso   1.000  H
  C7       1.0000 0.53890  0.29910  0.82360  Biso   1.000  C
  C8       1.0000 0.61840  0.27674  0.82700  Biso   1.000  C
  H7       1.0000 0.61820  0.24380  0.80820  Biso   1.000  H
  C9       1.0000 0.69770  0.30259  0.85770  Biso   1.000  C
  H8       1.0000 0.75110  0.28740  0.85830  Biso   1.000  H
  C10      1.0000 0.70010  0.34999  0.88730  Biso   1.000  C
  C11      1.0000 0.62100  0.37187  0.88400  Biso   1.000  C
  H9       1.0000 0.62130  0.40450  0.90390  Biso   1.000  H
  C12      1.0000 0.54230  0.34685  0.85240  Biso   1.000  C
  H10      1.0000 0.48880  0.36280  0.85030  Biso   1.000  H
  C13      1.0000 0.78480  0.37835  0.92270  Biso   1.000  C
  C14      1.0000 0.21740  0.29015  0.78530  Biso   1.000  C
  C15      1.0000 0.21560  0.34047  0.80450  Biso   1.000  C
  H11      1.0000 0.26080  0.36220  0.80150  Biso   1.000  H
  C16      1.0000 0.14900  0.35922  0.82790  Biso   1.000  C
  H12      1.0000 0.14990  0.39320  0.84290  Biso   1.000  H
  C17      1.0000 0.08050  0.32774  0.82910  Biso   1.000  C
  C18      1.0000 0.07910  0.27795  0.80560  Biso   1.000  C
  H13      1.0000 0.03120  0.25680  0.80420  Biso   1.000  H
  C19      1.0000 0.14730  0.25958  0.78450  Biso   1.000  C
  H14      1.0000 0.14630  0.22570  0.76920  Biso   1.000  H
  C20      1.0000 0.01230  0.34747  0.85790  Biso   1.000  C
  C21      1.0000 0.35040  0.16058  0.66470  Biso   1.000  C
  C22      1.0000 0.27260  0.15167  0.60200  Biso   1.000  C
  H15      1.0000 0.22670  0.17590  0.58820  Biso   1.000  H
  C23      1.0000 0.26180  0.10813  0.56020  Biso   1.000  C
  H16      1.0000 0.20870  0.10260  0.51790  Biso   1.000  H
  C24      1.0000 0.32830  0.07221  0.57960  Biso   1.000  C
  C25      1.0000 0.40680  0.08100  0.64140  Biso   1.000  C
  H17      1.0000 0.45320  0.05710  0.65410  Biso   1.000  H
  C26      1.0000 0.41720  0.12438  0.68390  Biso   1.000  C
  H18      1.0000 0.47010  0.12970  0.72650  Biso   1.000  H
  C27      1.0000 0.31560  0.02585  0.53350  Biso   1.000  C
  C28      1.0000 0.29530  0.12610  0.07650  Biso   1.000  C
  C29      1.0000 0.24140  0.11279  0.00280  Biso   1.000  C
  H19      1.0000 0.20450  0.08420  0.99530  Biso   1.000  H
  C30      1.0000 0.24080  0.14091  0.93930  Biso   1.000  C
  C31      1.0000 0.29340  0.18259  0.95090  Biso   1.000  C
  H20      1.0000 0.29410  0.20130  0.90780  Biso   1.000  H
  C32      1.0000 0.34610  0.19827  0.02470  Biso   1.000  C
  C33      1.0000 0.34730  0.16940  0.08690  Biso   1.000  C
  H21      1.0000 0.38380  0.17910  0.13720  Biso   1.000  H
  C34      1.0000 0.29780  0.09477  0.14240  Biso   1.000  C
  C35      1.0000 0.37640  0.08721  0.20470  Biso   1.000  C
  H22      1.0000 0.42910  0.10320  0.20500  Biso   1.000  H
  C36      1.0000 0.37920  0.05730  0.26550  Biso   1.000  C
  H23      1.0000 0.43320  0.05350  0.30750  Biso   1.000  H
  C37      1.0000 0.30360  0.03261  0.26580  Biso   1.000  C
  C38      1.0000 0.22370  0.04046  0.20390  Biso   1.000  C
  H24      1.0000 0.17110  0.02450  0.20380  Biso   1.000  H
  C39      1.0000 0.22100  0.07063  0.14440  Biso   1.000  C
  H25      1.0000 0.16640  0.07550  0.10340  Biso   1.000  H
  C40      1.0000 0.30410  0.99879  0.32980  Biso   1.000  C
  C41      1.0000 0.18890  0.12608  0.85940  Biso   1.000  C
  C42      1.0000 0.09750  0.13069  0.83060  Biso   1.000  C
  H26      1.0000 0.06680  0.13980  0.86370  Biso   1.000  H
  C43      1.0000 0.05060  0.12196  0.75310  Biso   1.000  C
  H27      1.0000 0.98810  0.12550  0.73340  Biso   1.000  H
  C44      1.0000 0.09500  0.10815  0.70460  Biso   1.000  C
  C45      1.0000 0.18520  0.10246  0.73360  Biso   1.000  C
  H28      1.0000 0.21550  0.09130  0.70110  Biso   1.000  H
  C46      1.0000 0.23240  0.11287  0.81010  Biso   1.000  C
  H29      1.0000 0.29520  0.11090  0.82880  Biso   1.000  H
  C47      1.0000 0.04650  0.09917  0.62050  Biso   1.000  C
  C48      1.0000 0.39790  0.24495  0.03200  Biso   1.000  C
  C49      1.0000 0.35710  0.28630  0.98860  Biso   1.000  C
  H30      1.0000 0.29630  0.28450  0.95730  Biso   1.000  H
  C50      1.0000 0.40340  0.32957  0.99040  Biso   1.000  C
  H31      1.0000 0.37420  0.35770  0.96140  Biso   1.000  H
  C51      1.0000 0.49360  0.33233  0.03500  Biso   1.000  C
  C52      1.0000 0.53420  0.29118  0.07940  Biso   1.000  C
  H32      1.0000 0.59510  0.29290  0.11050  Biso   1.000  H
  C53      1.0000 0.48750  0.24818  0.07880  Biso   1.000  C
  H33      1.0000 0.51580  0.22070  0.11000  Biso   1.000  H
  C54      1.0000 0.54460  0.37820  0.03240  Biso   1.000  C
  Ca3      1.0000 0.04774  0.93205  0.52916  Biso   1.000  Ca
  Ca4      1.0000 0.72129  0.43699  0.05522  Biso   1.000  Ca
  O14      1.0000 0.93693  0.99387  0.54358  Biso   1.000  O
  H34      1.0000 0.88590  0.98170  0.52380  Biso   1.000  H
  H35      1.0000 0.94550  0.99730  0.59050  Biso   1.000  H
  O15      1.0000 0.14755  0.86484  0.59130  Biso   1.000  O
  O16      1.0000 0.21248  0.91468  0.53518  Biso   1.000  O
  O17      1.0000 0.97618  0.88481  0.60228  Biso   1.000  O
  O18      1.0000 0.06102  0.82073  0.66320  Biso   1.000  O
  H36      1.0000 0.08920  0.83340  0.63800  Biso   1.000  H
  O19      1.0000 0.75924  0.51694  0.01622  Biso   1.000  O
  O20      1.0000 0.61947  0.49525  0.95427  Biso   1.000  O
  O21      1.0000 0.62410  0.49385  0.11337  Biso   1.000  O
  O22      1.0000 0.76573  0.47678  0.17506  Biso   1.000  O
  O23      1.0000 0.02959  0.61738  0.91243  Biso   1.000  O
  O24      1.0000 0.91570  0.57399  0.91593  Biso   1.000  O
  O25      1.0000 0.49737  0.91519  0.50446  Biso   1.000  O
  O26      1.0000 0.37335  0.87679  0.43324  Biso   1.000  O
  C55      1.0000 0.54790  0.77240  0.71050  Biso   1.000  C
  C56      1.0000 0.62260  0.79126  0.69830  Biso   1.000  C
  H37      1.0000 0.61640  0.81970  0.66640  Biso   1.000  H
  C57      1.0000 0.70580  0.76948  0.73160  Biso   1.000  C
  C58      1.0000 0.71340  0.72717  0.77680  Biso   1.000  C
  H38      1.0000 0.76970  0.71210  0.80020  Biso   1.000  H
  C59      1.0000 0.63960  0.70651  0.78840  Biso   1.000  C
  C60      1.0000 0.55760  0.72993  0.75570  Biso   1.000  C
  H39      1.0000 0.50740  0.71660  0.76430  Biso   1.000  H
  C61      1.0000 0.46110  0.79910  0.67640  Biso   1.000  C
  C62      1.0000 0.38160  0.77674  0.67300  Biso   1.000  C
  H40      1.0000 0.38180  0.74380  0.69180  Biso   1.000  H
  C63      1.0000 0.30230  0.80259  0.64230  Biso   1.000  C
  H41      1.0000 0.24890  0.78740  0.64170  Biso   1.000  H
  C64      1.0000 0.29990  0.84999  0.61270  Biso   1.000  C
  C65      1.0000 0.37900  0.87187  0.61600  Biso   1.000  C
  H42      1.0000 0.37870  0.90450  0.59610  Biso   1.000  H
  C66      1.0000 0.45770  0.84685  0.64760  Biso   1.000  C
  H43      1.0000 0.51120  0.86280  0.64970  Biso   1.000  H
  C67      1.0000 0.21520  0.87835  0.57730  Biso   1.000  C
  C68      1.0000 0.78260  0.79015  0.71470  Biso   1.000  C
  C69      1.0000 0.78440  0.84047  0.69550  Biso   1.000  C
  H44      1.0000 0.73920  0.86220  0.69850  Biso   1.000  H
  C70      1.0000 0.85100  0.85922  0.67210  Biso   1.000  C
  H45      1.0000 0.85010  0.89320  0.65710  Biso   1.000  H
  C71      1.0000 0.91950  0.82774  0.67090  Biso   1.000  C
  C72      1.0000 0.92090  0.77795  0.69440  Biso   1.000  C
  H46      1.0000 0.96880  0.75680  0.69580  Biso   1.000  H
  C73      1.0000 0.85270  0.75958  0.71550  Biso   1.000  C
  H47      1.0000 0.85370  0.72570  0.73080  Biso   1.000  H
  C74      1.0000 0.98770  0.84747  0.64210  Biso   1.000  C
  C75      1.0000 0.64960  0.66058  0.83530  Biso   1.000  C
  C76      1.0000 0.72740  0.65167  0.89800  Biso   1.000  C
  H48      1.0000 0.77330  0.67590  0.91180  Biso   1.000  H
  C77      1.0000 0.73820  0.60813  0.93980  Biso   1.000  C
  H49      1.0000 0.79130  0.60260  0.98210  Biso   1.000  H
  C78      1.0000 0.67170  0.57221  0.92040  Biso   1.000  C
  C79      1.0000 0.59320  0.58100  0.85860  Biso   1.000  C
  H50      1.0000 0.54680  0.55710  0.84590  Biso   1.000  H
  C80      1.0000 0.58280  0.62438  0.81610  Biso   1.000  C
  H51      1.0000 0.52990  0.62970  0.77350  Biso   1.000  H
  C81      1.0000 0.68440  0.52585  0.96650  Biso   1.000  C
  C82      1.0000 0.70470  0.62610  0.42350  Biso   1.000  C
  C83      1.0000 0.75860  0.61279  0.49720  Biso   1.000  C
  H52      1.0000 0.79550  0.58420  0.50470  Biso   1.000  H
  C84      1.0000 0.75920  0.64091  0.56070  Biso   1.000  C
  C85      1.0000 0.70660  0.68259  0.54910  Biso   1.000  C
  H53      1.0000 0.70590  0.70130  0.59220  Biso   1.000  H
  C86      1.0000 0.65390  0.69827  0.47530  Biso   1.000  C
  C87      1.0000 0.65270  0.66940  0.41310  Biso   1.000  C
  H54      1.0000 0.61620  0.67910  0.36280  Biso   1.000  H
  C88      1.0000 0.70220  0.59477  0.35760  Biso   1.000  C
  C89      1.0000 0.62360  0.58721  0.29530  Biso   1.000  C
  H55      1.0000 0.57090  0.60320  0.29500  Biso   1.000  H
  C90      1.0000 0.62080  0.55730  0.23450  Biso   1.000  C
  H56      1.0000 0.56680  0.55350  0.19250  Biso   1.000  H
  C91      1.0000 0.69640  0.53261  0.23420  Biso   1.000  C
  C92      1.0000 0.77630  0.54046  0.29610  Biso   1.000  C
  H57      1.0000 0.82890  0.52450  0.29620  Biso   1.000  H
  C93      1.0000 0.77900  0.57063  0.35560  Biso   1.000  C
  H58      1.0000 0.83360  0.57550  0.39660  Biso   1.000  H
  C94      1.0000 0.69590  0.49879  0.17020  Biso   1.000  C
  C95      1.0000 0.81110  0.62608  0.64060  Biso   1.000  C
  C96      1.0000 0.90250  0.63069  0.66940  Biso   1.000  C
  H59      1.0000 0.93320  0.63980  0.63630  Biso   1.000  H
  C97      1.0000 0.94940  0.62196  0.74690  Biso   1.000  C
  H60      1.0000 0.01190  0.62550  0.76660  Biso   1.000  H
  C98      1.0000 0.90500  0.60815  0.79540  Biso   1.000  C
  C99      1.0000 0.81480  0.60246  0.76640  Biso   1.000  C
  H61      1.0000 0.78450  0.59130  0.79890  Biso   1.000  H
  C100     1.0000 0.76760  0.61287  0.68990  Biso   1.000  C
  H62      1.0000 0.70480  0.61090  0.67120  Biso   1.000  H
  C101     1.0000 0.95350  0.59917  0.87950  Biso   1.000  C
  C102     1.0000 0.60210  0.74495  0.46800  Biso   1.000  C
  C103     1.0000 0.64290  0.78630  0.51140  Biso   1.000  C
  H63      1.0000 0.70370  0.78450  0.54270  Biso   1.000  H
  C104     1.0000 0.59660  0.82957  0.50960  Biso   1.000  C
  H64      1.0000 0.62580  0.85770  0.53860  Biso   1.000  H
  C105     1.0000 0.50640  0.83233  0.46500  Biso   1.000  C
  C106     1.0000 0.46580  0.79118  0.42060  Biso   1.000  C
  H65      1.0000 0.40490  0.79290  0.38950  Biso   1.000  H
  C107     1.0000 0.51250  0.74818  0.42120  Biso   1.000  C
  H66      1.0000 0.48420  0.72070  0.39000  Biso   1.000  H
  C108     1.0000 0.45540  0.87820  0.46760  Biso   1.000  C
  Ca5      1.0000 0.04774  0.56795  0.02916  Biso   1.000  Ca
  Ca6      1.0000 0.72129  0.06301  0.55522  Biso   1.000  Ca
  O27      1.0000 0.93693  0.50613  0.04358  Biso   1.000  O
  H67      1.0000 0.88590  0.51830  0.02380  Biso   1.000  H
  H68      1.0000 0.94550  0.50270  0.09050  Biso   1.000  H
  O28      1.0000 0.14755  0.63516  0.09130  Biso   1.000  O
  O29      1.0000 0.21248  0.58532  0.03518  Biso   1.000  O
  O30      1.0000 0.97618  0.61519  0.10228  Biso   1.000  O
  O31      1.0000 0.06102  0.67927  0.16320  Biso   1.000  O
  H69      1.0000 0.08920  0.66660  0.13800  Biso   1.000  H
  O32      1.0000 0.75924  0.98306  0.51622  Biso   1.000  O
  O33      1.0000 0.61947  0.00475  0.45427  Biso   1.000  O
  O34      1.0000 0.62410  0.00615  0.61337  Biso   1.000  O
  O35      1.0000 0.76573  0.02322  0.67506  Biso   1.000  O
  O36      1.0000 0.02959  0.88262  0.41243  Biso   1.000  O
  O37      1.0000 0.91570  0.92601  0.41593  Biso   1.000  O
  O38      1.0000 0.49737  0.58481  0.00446  Biso   1.000  O
  O39      1.0000 0.37335  0.62321  0.93324  Biso   1.000  O
  C109     1.0000 0.54790  0.72760  0.21050  Biso   1.000  C
  C110     1.0000 0.62260  0.70874  0.19830  Biso   1.000  C
  H70      1.0000 0.61640  0.68030  0.16640  Biso   1.000  H
  C111     1.0000 0.70580  0.73052  0.23160  Biso   1.000  C
  C112     1.0000 0.71340  0.77283  0.27680  Biso   1.000  C
  H71      1.0000 0.76970  0.78790  0.30020  Biso   1.000  H
  C113     1.0000 0.63960  0.79349  0.28840  Biso   1.000  C
  C114     1.0000 0.55760  0.77007  0.25570  Biso   1.000  C
  H72      1.0000 0.50740  0.78340  0.26430  Biso   1.000  H
  C115     1.0000 0.46110  0.70090  0.17640  Biso   1.000  C
  C116     1.0000 0.38160  0.72326  0.17300  Biso   1.000  C
  H73      1.0000 0.38180  0.75620  0.19180  Biso   1.000  H
  C117     1.0000 0.30230  0.69741  0.14230  Biso   1.000  C
  H74      1.0000 0.24890  0.71260  0.14170  Biso   1.000  H
  C118     1.0000 0.29990  0.65001  0.11270  Biso   1.000  C
  C119     1.0000 0.37900  0.62813  0.11600  Biso   1.000  C
  H75      1.0000 0.37870  0.59550  0.09610  Biso   1.000  H
  C120     1.0000 0.45770  0.65315  0.14760  Biso   1.000  C
  H76      1.0000 0.51120  0.63720  0.14970  Biso   1.000  H
  C121     1.0000 0.21520  0.62165  0.07730  Biso   1.000  C
  C122     1.0000 0.78260  0.70985  0.21470  Biso   1.000  C
  C123     1.0000 0.78440  0.65953  0.19550  Biso   1.000  C
  H77      1.0000 0.73920  0.63780  0.19850  Biso   1.000  H
  C124     1.0000 0.85100  0.64078  0.17210  Biso   1.000  C
  H78      1.0000 0.85010  0.60680  0.15710  Biso   1.000  H
  C125     1.0000 0.91950  0.67226  0.17090  Biso   1.000  C
  C126     1.0000 0.92090  0.72205  0.19440  Biso   1.000  C
  H79      1.0000 0.96880  0.74320  0.19580  Biso   1.000  H
  C127     1.0000 0.85270  0.74042  0.21550  Biso   1.000  C
  H80      1.0000 0.85370  0.77430  0.23080  Biso   1.000  H
  C128     1.0000 0.98770  0.65253  0.14210  Biso   1.000  C
  C129     1.0000 0.64960  0.83942  0.33530  Biso   1.000  C
  C130     1.0000 0.72740  0.84833  0.39800  Biso   1.000  C
  H81      1.0000 0.77330  0.82410  0.41180  Biso   1.000  H
  C131     1.0000 0.73820  0.89187  0.43980  Biso   1.000  C
  H82      1.0000 0.79130  0.89740  0.48210  Biso   1.000  H
  C132     1.0000 0.67170  0.92779  0.42040  Biso   1.000  C
  C133     1.0000 0.59320  0.91900  0.35860  Biso   1.000  C
  H83      1.0000 0.54680  0.94290  0.34590  Biso   1.000  H
  C134     1.0000 0.58280  0.87562  0.31610  Biso   1.000  C
  H84      1.0000 0.52990  0.87030  0.27350  Biso   1.000  H
  C135     1.0000 0.68440  0.97415  0.46650  Biso   1.000  C
  C136     1.0000 0.70470  0.87390  0.92350  Biso   1.000  C
  C137     1.0000 0.75860  0.88721  0.99720  Biso   1.000  C
  H85      1.0000 0.79550  0.91580  0.00470  Biso   1.000  H
  C138     1.0000 0.75920  0.85909  0.06070  Biso   1.000  C
  C139     1.0000 0.70660  0.81741  0.04910  Biso   1.000  C
  H86      1.0000 0.70590  0.79870  0.09220  Biso   1.000  H
  C140     1.0000 0.65390  0.80173  0.97530  Biso   1.000  C
  C141     1.0000 0.65270  0.83060  0.91310  Biso   1.000  C
  H87      1.0000 0.61620  0.82090  0.86280  Biso   1.000  H
  C142     1.0000 0.70220  0.90523  0.85760  Biso   1.000  C
  C143     1.0000 0.62360  0.91279  0.79530  Biso   1.000  C
  H88      1.0000 0.57090  0.89680  0.79500  Biso   1.000  H
  C144     1.0000 0.62080  0.94270  0.73450  Biso   1.000  C
  H89      1.0000 0.56680  0.94650  0.69250  Biso   1.000  H
  C145     1.0000 0.69640  0.96739  0.73420  Biso   1.000  C
  C146     1.0000 0.77630  0.95954  0.79610  Biso   1.000  C
  H90      1.0000 0.82890  0.97550  0.79620  Biso   1.000  H
  C147     1.0000 0.77900  0.92937  0.85560  Biso   1.000  C
  H91      1.0000 0.83360  0.92450  0.89660  Biso   1.000  H
  C148     1.0000 0.69590  0.00121  0.67020  Biso   1.000  C
  C149     1.0000 0.81110  0.87392  0.14060  Biso   1.000  C
  C150     1.0000 0.90250  0.86931  0.16940  Biso   1.000  C
  H92      1.0000 0.93320  0.86020  0.13630  Biso   1.000  H
  C151     1.0000 0.94940  0.87804  0.24690  Biso   1.000  C
  H93      1.0000 0.01190  0.87450  0.26660  Biso   1.000  H
  C152     1.0000 0.90500  0.89185  0.29540  Biso   1.000  C
  C153     1.0000 0.81480  0.89754  0.26640  Biso   1.000  C
  H94      1.0000 0.78450  0.90870  0.29890  Biso   1.000  H
  C154     1.0000 0.76760  0.88713  0.18990  Biso   1.000  C
  H95      1.0000 0.70480  0.88910  0.17120  Biso   1.000  H
  C155     1.0000 0.95350  0.90083  0.37950  Biso   1.000  C
  C156     1.0000 0.60210  0.75505  0.96800  Biso   1.000  C
  C157     1.0000 0.64290  0.71370  0.01140  Biso   1.000  C
  H96      1.0000 0.70370  0.71550  0.04270  Biso   1.000  H
  C158     1.0000 0.59660  0.67043  0.00960  Biso   1.000  C
  H97      1.0000 0.62580  0.64230  0.03860  Biso   1.000  H
  C159     1.0000 0.50640  0.66767  0.96500  Biso   1.000  C
  C160     1.0000 0.46580  0.70882  0.92060  Biso   1.000  C
  H98      1.0000 0.40490  0.70710  0.88950  Biso   1.000  H
  C161     1.0000 0.51250  0.75182  0.92120  Biso   1.000  C
  H99      1.0000 0.48420  0.77930  0.89000  Biso   1.000  H
  C162     1.0000 0.45540  0.62180  0.96760  Biso   1.000  C
  Ca7      1.0000 0.95226  0.06795  0.47084  Biso   1.000  Ca
  Ca8      1.0000 0.27871  0.56301  0.94478  Biso   1.000  Ca
  O40      1.0000 0.06307  0.00613  0.45642  Biso   1.000  O
  H100     1.0000 0.11410  0.01830  0.47620  Biso   1.000  H
  H101     1.0000 0.05450  0.00270  0.40950  Biso   1.000  H
  O41      1.0000 0.85245  0.13516  0.40870  Biso   1.000  O
  O42      1.0000 0.78752  0.08532  0.46482  Biso   1.000  O
  O43      1.0000 0.02382  0.11519  0.39772  Biso   1.000  O
  O44      1.0000 0.93898  0.17927  0.33680  Biso   1.000  O
  H102     1.0000 0.91080  0.16660  0.36200  Biso   1.000  H
  O45      1.0000 0.24076  0.48306  0.98378  Biso   1.000  O
  O46      1.0000 0.38053  0.50475  0.04573  Biso   1.000  O
  O47      1.0000 0.37590  0.50615  0.88663  Biso   1.000  O
  O48      1.0000 0.23427  0.52322  0.82494  Biso   1.000  O
  O49      1.0000 0.97041  0.38262  0.08757  Biso   1.000  O
  O50      1.0000 0.08430  0.42601  0.08407  Biso   1.000  O
  O51      1.0000 0.50263  0.08481  0.49554  Biso   1.000  O
  O52      1.0000 0.62665  0.12321  0.56676  Biso   1.000  O
  C163     1.0000 0.45210  0.22760  0.28950  Biso   1.000  C
  C164     1.0000 0.37740  0.20874  0.30170  Biso   1.000  C
  H103     1.0000 0.38360  0.18030  0.33360  Biso   1.000  H
  C165     1.0000 0.29420  0.23052  0.26840  Biso   1.000  C
  C166     1.0000 0.28660  0.27283  0.22320  Biso   1.000  C
  H104     1.0000 0.23030  0.28790  0.19980  Biso   1.000  H
  C167     1.0000 0.36040  0.29349  0.21160  Biso   1.000  C
  C168     1.0000 0.44240  0.27007  0.24430  Biso   1.000  C
  H105     1.0000 0.49260  0.28340  0.23570  Biso   1.000  H
  C169     1.0000 0.53890  0.20090  0.32360  Biso   1.000  C
  C170     1.0000 0.61840  0.22326  0.32700  Biso   1.000  C
  H106     1.0000 0.61820  0.25620  0.30820  Biso   1.000  H
  C171     1.0000 0.69770  0.19741  0.35770  Biso   1.000  C
  H107     1.0000 0.75110  0.21260  0.35830  Biso   1.000  H
  C172     1.0000 0.70010  0.15001  0.38730  Biso   1.000  C
  C173     1.0000 0.62100  0.12813  0.38400  Biso   1.000  C
  H108     1.0000 0.62130  0.09550  0.40390  Biso   1.000  H
  C174     1.0000 0.54230  0.15315  0.35240  Biso   1.000  C
  H109     1.0000 0.48880  0.13720  0.35030  Biso   1.000  H
  C175     1.0000 0.78480  0.12165  0.42270  Biso   1.000  C
  C176     1.0000 0.21740  0.20985  0.28530  Biso   1.000  C
  C177     1.0000 0.21560  0.15953  0.30450  Biso   1.000  C
  H110     1.0000 0.26080  0.13780  0.30150  Biso   1.000  H
  C178     1.0000 0.14900  0.14078  0.32790  Biso   1.000  C
  H111     1.0000 0.14990  0.10680  0.34290  Biso   1.000  H
  C179     1.0000 0.08050  0.17226  0.32910  Biso   1.000  C
  C180     1.0000 0.07910  0.22205  0.30560  Biso   1.000  C
  H112     1.0000 0.03120  0.24320  0.30420  Biso   1.000  H
  C181     1.0000 0.14730  0.24042  0.28450  Biso   1.000  C
  H113     1.0000 0.14630  0.27430  0.26920  Biso   1.000  H
  C182     1.0000 0.01230  0.15253  0.35790  Biso   1.000  C
  C183     1.0000 0.35040  0.33942  0.16470  Biso   1.000  C
  C184     1.0000 0.27260  0.34833  0.10200  Biso   1.000  C
  H114     1.0000 0.22670  0.32410  0.08820  Biso   1.000  H
  C185     1.0000 0.26180  0.39187  0.06020  Biso   1.000  C
  H115     1.0000 0.20870  0.39740  0.01790  Biso   1.000  H
  C186     1.0000 0.32830  0.42779  0.07960  Biso   1.000  C
  C187     1.0000 0.40680  0.41900  0.14140  Biso   1.000  C
  H116     1.0000 0.45320  0.44290  0.15410  Biso   1.000  H
  C188     1.0000 0.41720  0.37562  0.18390  Biso   1.000  C
  H117     1.0000 0.47010  0.37030  0.22650  Biso   1.000  H
  C189     1.0000 0.31560  0.47415  0.03350  Biso   1.000  C
  C190     1.0000 0.29530  0.37390  0.57650  Biso   1.000  C
  C191     1.0000 0.24140  0.38721  0.50280  Biso   1.000  C
  H118     1.0000 0.20450  0.41580  0.49530  Biso   1.000  H
  C192     1.0000 0.24080  0.35909  0.43930  Biso   1.000  C
  C193     1.0000 0.29340  0.31741  0.45090  Biso   1.000  C
  H119     1.0000 0.29410  0.29870  0.40780  Biso   1.000  H
  C194     1.0000 0.34610  0.30173  0.52470  Biso   1.000  C
  C195     1.0000 0.34730  0.33060  0.58690  Biso   1.000  C
  H120     1.0000 0.38380  0.32090  0.63720  Biso   1.000  H
  C196     1.0000 0.29780  0.40523  0.64240  Biso   1.000  C
  C197     1.0000 0.37640  0.41279  0.70470  Biso   1.000  C
  H121     1.0000 0.42910  0.39680  0.70500  Biso   1.000  H
  C198     1.0000 0.37920  0.44270  0.76550  Biso   1.000  C
  H122     1.0000 0.43320  0.44650  0.80750  Biso   1.000  H
  C199     1.0000 0.30360  0.46739  0.76580  Biso   1.000  C
  C200     1.0000 0.22370  0.45954  0.70390  Biso   1.000  C
  H123     1.0000 0.17110  0.47550  0.70380  Biso   1.000  H
  C201     1.0000 0.22100  0.42937  0.64440  Biso   1.000  C
  H124     1.0000 0.16640  0.42450  0.60340  Biso   1.000  H
  C202     1.0000 0.30410  0.50121  0.82980  Biso   1.000  C
  C203     1.0000 0.18890  0.37392  0.35940  Biso   1.000  C
  C204     1.0000 0.09750  0.36931  0.33060  Biso   1.000  C
  H125     1.0000 0.06680  0.36020  0.36370  Biso   1.000  H
  C205     1.0000 0.05060  0.37804  0.25310  Biso   1.000  C
  H126     1.0000 0.98810  0.37450  0.23340  Biso   1.000  H
  C206     1.0000 0.09500  0.39185  0.20460  Biso   1.000  C
  C207     1.0000 0.18520  0.39754  0.23360  Biso   1.000  C
  H127     1.0000 0.21550  0.40870  0.20110  Biso   1.000  H
  C208     1.0000 0.23240  0.38713  0.31010  Biso   1.000  C
  H128     1.0000 0.29520  0.38910  0.32880  Biso   1.000  H
  C209     1.0000 0.04650  0.40083  0.12050  Biso   1.000  C
  C210     1.0000 0.39790  0.25505  0.53200  Biso   1.000  C
  C211     1.0000 0.35710  0.21370  0.48860  Biso   1.000  C
  H129     1.0000 0.29630  0.21550  0.45730  Biso   1.000  H
  C212     1.0000 0.40340  0.17043  0.49040  Biso   1.000  C
  H130     1.0000 0.37420  0.14230  0.46140  Biso   1.000  H
  C213     1.0000 0.49360  0.16767  0.53500  Biso   1.000  C
  C214     1.0000 0.53420  0.20882  0.57940  Biso   1.000  C
  H131     1.0000 0.59510  0.20710  0.61050  Biso   1.000  H
  C215     1.0000 0.48750  0.25182  0.57880  Biso   1.000  C
  H132     1.0000 0.51580  0.27930  0.61000  Biso   1.000  H
  C216     1.0000 0.54460  0.12180  0.53240  Biso   1.000  C
  Ca9      1.0000 0.50000  0.00000  0.50000  Biso   1.000  Ca
  Ca10     1.0000 0.50000  0.50000  0.00000  Biso   1.000  Ca
