data_image0
_cell_length_a       8.457
_cell_length_b       13.812
_cell_length_c       10.189
_cell_angle_alpha    90
_cell_angle_beta     91.2
_cell_angle_gamma    90

_symmetry_space_group_name_H-M    "P 1"
_symmetry_int_tables_number       1

loop_
  _symmetry_equiv_pos_as_xyz
  'x, y, z'

loop_
  _atom_site_label
  _atom_site_occupancy
  _atom_site_fract_x
  _atom_site_fract_y
  _atom_site_fract_z
  _atom_site_thermal_displace_type
  _atom_site_B_iso_or_equiv
  _atom_site_type_symbol
  Zn1      1.0000 0.21635  0.57367  0.97524  Biso   1.000  Zn
  Zn2      1.0000 0.71798  0.86908  0.08593  Biso   1.000  Zn
  P1       1.0000 0.24516  0.61313  0.66127  Biso   1.000  P
  P2       1.0000 0.74904  0.03712  0.29524  Biso   1.000  P
  P3       1.0000 0.90554  0.69373  0.96407  Biso   1.000  P
  P4       1.0000 0.40634  0.77324  0.99437  Biso   1.000  P
  O1       1.0000 0.35290  0.67534  0.04230  Biso   1.000  O
  O2       1.0000 0.00140  0.75428  0.86680  Biso   1.000  O
  O3       1.0000 0.99840  0.60622  0.00990  Biso   1.000  O
  O4       1.0000 0.25740  0.83941  0.96400  Biso   1.000  O
  H1       1.0000 0.17000  0.81200  0.93000  Biso   1.000  H
  O5       1.0000 0.50080  0.82737  0.09920  Biso   1.000  O
  O6       1.0000 0.77050  0.93575  0.24730  Biso   1.000  O
  O7       1.0000 0.58600  0.07480  0.24100  Biso   1.000  O
  H2       1.0000 0.54700  0.12900  0.27700  Biso   1.000  H
  O8       1.0000 0.85000  0.75455  0.07800  Biso   1.000  O
  O9       1.0000 0.25380  0.55817  0.78760  Biso   1.000  O
  O10      1.0000 0.50050  0.76504  0.86710  Biso   1.000  O
  O11      1.0000 0.75810  0.65198  0.88500  Biso   1.000  O
  H3       1.0000 0.67400  0.69200  0.88100  Biso   1.000  H
  O12      1.0000 0.37770  0.69120  0.65540  Biso   1.000  O
  H4       1.0000 0.42600  0.72300  0.72200  Biso   1.000  H
  O13      1.0000 0.87840  0.10130  0.23260  Biso   1.000  O
  H5       1.0000 0.93100  0.14900  0.27400  Biso   1.000  H
  O14      1.0000 0.75750  0.04476  0.44150  Biso   1.000  O
  O15      1.0000 0.08600  0.66990  0.64780  Biso   1.000  O
  H6       1.0000 0.04900  0.70100  0.71800  Biso   1.000  H
  O16      1.0000 0.26080  0.55504  0.53820  Biso   1.000  O
  Zn3      1.0000 0.21635  0.42633  0.47524  Biso   1.000  Zn
  Zn4      1.0000 0.71798  0.13092  0.58593  Biso   1.000  Zn
  P5       1.0000 0.24516  0.38687  0.16127  Biso   1.000  P
  P6       1.0000 0.74904  0.96288  0.79524  Biso   1.000  P
  P7       1.0000 0.90554  0.30627  0.46407  Biso   1.000  P
  P8       1.0000 0.40634  0.22676  0.49437  Biso   1.000  P
  O17      1.0000 0.35290  0.32466  0.54230  Biso   1.000  O
  O18      1.0000 0.00140  0.24572  0.36680  Biso   1.000  O
  O19      1.0000 0.99840  0.39378  0.50990  Biso   1.000  O
  O20      1.0000 0.25740  0.16059  0.46400  Biso   1.000  O
  H7       1.0000 0.17000  0.18800  0.43000  Biso   1.000  H
  O21      1.0000 0.50080  0.17263  0.59920  Biso   1.000  O
  O22      1.0000 0.77050  0.06425  0.74730  Biso   1.000  O
  O23      1.0000 0.58600  0.92520  0.74100  Biso   1.000  O
  H8       1.0000 0.54700  0.87100  0.77700  Biso   1.000  H
  O24      1.0000 0.85000  0.24545  0.57800  Biso   1.000  O
  O25      1.0000 0.25380  0.44183  0.28760  Biso   1.000  O
  O26      1.0000 0.50050  0.23496  0.36710  Biso   1.000  O
  O27      1.0000 0.75810  0.34802  0.38500  Biso   1.000  O
  H9       1.0000 0.67400  0.30800  0.38100  Biso   1.000  H
  O28      1.0000 0.37770  0.30880  0.15540  Biso   1.000  O
  H10      1.0000 0.42600  0.27700  0.22200  Biso   1.000  H
  O29      1.0000 0.87840  0.89870  0.73260  Biso   1.000  O
  H11      1.0000 0.93100  0.85100  0.77400  Biso   1.000  H
  O30      1.0000 0.75750  0.95524  0.94150  Biso   1.000  O
  O31      1.0000 0.08600  0.33010  0.14780  Biso   1.000  O
  H12      1.0000 0.04900  0.29900  0.21800  Biso   1.000  H
  O32      1.0000 0.26080  0.44496  0.03820  Biso   1.000  O
