data_image0
_cell_length_a       12.78
_cell_length_b       10.494
_cell_length_c       15.87
_cell_angle_alpha    90
_cell_angle_beta     109.31
_cell_angle_gamma    90

_symmetry_space_group_name_H-M    "P 1"
_symmetry_int_tables_number       1

loop_
  _symmetry_equiv_pos_as_xyz
  'x, y, z'

loop_
  _atom_site_label
  _atom_site_occupancy
  _atom_site_fract_x
  _atom_site_fract_y
  _atom_site_fract_z
  _atom_site_thermal_displace_type
  _atom_site_B_iso_or_equiv
  _atom_site_type_symbol
  Cd1      1.0000 0.63880  0.53251  0.88754  Biso   1.000  Cd
  N1       1.0000 0.73630  0.43210  0.03130  Biso   1.000  N
  N2       1.0000 0.81500  0.46970  0.89360  Biso   1.000  N
  N3       1.0000 0.96860  0.35280  0.95090  Biso   1.000  N
  C1       1.0000 0.56700  0.45820  0.69210  Biso   1.000  C
  C2       1.0000 0.52860  0.47770  0.59230  Biso   1.000  C
  C3       1.0000 0.56210  0.58800  0.55910  Biso   1.000  C
  H1       1.0000 0.60330  0.64800  0.59960  Biso   1.000  H
  C4       1.0000 0.46310  0.38770  0.53130  Biso   1.000  C
  C5       1.0000 0.41950  0.26680  0.55960  Biso   1.000  C
  C6       1.0000 0.08230  0.91560  0.04210  Biso   1.000  C
  H2       1.0000 0.13850  0.85860  0.07080  Biso   1.000  H
  C7       1.0000 0.10580  0.04360  0.04380  Biso   1.000  C
  H3       1.0000 0.17750  0.07200  0.07350  Biso   1.000  H
  C8       1.0000 0.02400  0.13020  0.00190  Biso   1.000  C
  C9       1.0000 0.05210  0.27020  0.00970  Biso   1.000  C
  H4       1.0000 0.06470  0.29660  0.07080  Biso   1.000  H
  H5       1.0000 0.12100  0.28220  0.99750  Biso   1.000  H
  C10      1.0000 0.97190  0.40080  0.87030  Biso   1.000  C
  C11      1.0000 0.04940  0.38780  0.82670  Biso   1.000  C
  H6       1.0000 0.11240  0.33750  0.84970  Biso   1.000  H
  C12      1.0000 0.02800  0.45310  0.74800  Biso   1.000  C
  H7       1.0000 0.07830  0.44770  0.71720  Biso   1.000  H
  C13      1.0000 0.93270  0.52760  0.71260  Biso   1.000  C
  H8       1.0000 0.92080  0.56990  0.65870  Biso   1.000  H
  C14      1.0000 0.85620  0.53950  0.75620  Biso   1.000  C
  H9       1.0000 0.79320  0.58960  0.73270  Biso   1.000  H
  C15      1.0000 0.87550  0.47500  0.83550  Biso   1.000  C
  C16      1.0000 0.87360  0.39570  0.96160  Biso   1.000  C
  C17      1.0000 0.83190  0.36920  0.03510  Biso   1.000  C
  C18      1.0000 0.87130  0.28750  0.10530  Biso   1.000  C
  H10      1.0000 0.93540  0.23880  0.11710  Biso   1.000  H
  C19      1.0000 0.70470  0.39650  0.09780  Biso   1.000  C
  H11      1.0000 0.64110  0.42890  0.10620  Biso   1.000  H
  O1       1.0000 0.57870  0.55550  0.74020  Biso   1.000  O
  O2       1.0000 0.58730  0.34700  0.71930  Biso   1.000  O
  O3       1.0000 0.44950  0.16300  0.53520  Biso   1.000  O
  O4       1.0000 0.35190  0.26880  0.60010  Biso   1.000  O
  S1       1.0000 0.78680  0.28740  0.16827  Biso   1.000  S
  Cd2      1.0000 0.36120  0.03251  0.61246  Biso   1.000  Cd
  N4       1.0000 0.26370  0.93210  0.46870  Biso   1.000  N
  N5       1.0000 0.18500  0.96970  0.60640  Biso   1.000  N
  N6       1.0000 0.03140  0.85280  0.54910  Biso   1.000  N
  C20      1.0000 0.43300  0.95820  0.80790  Biso   1.000  C
  C21      1.0000 0.47140  0.97770  0.90770  Biso   1.000  C
  C22      1.0000 0.43790  0.08800  0.94090  Biso   1.000  C
  H12      1.0000 0.39670  0.14800  0.90040  Biso   1.000  H
  C23      1.0000 0.53690  0.88770  0.96870  Biso   1.000  C
  C24      1.0000 0.58050  0.76680  0.94040  Biso   1.000  C
  C25      1.0000 0.91770  0.41560  0.45790  Biso   1.000  C
  H13      1.0000 0.86150  0.35860  0.42920  Biso   1.000  H
  C26      1.0000 0.89420  0.54360  0.45620  Biso   1.000  C
  H14      1.0000 0.82250  0.57200  0.42650  Biso   1.000  H
  C27      1.0000 0.97600  0.63020  0.49810  Biso   1.000  C
  C28      1.0000 0.94790  0.77020  0.49030  Biso   1.000  C
  H15      1.0000 0.93530  0.79660  0.42920  Biso   1.000  H
  H16      1.0000 0.87900  0.78220  0.50250  Biso   1.000  H
  C29      1.0000 0.02810  0.90080  0.62970  Biso   1.000  C
  C30      1.0000 0.95060  0.88780  0.67330  Biso   1.000  C
  H17      1.0000 0.88760  0.83750  0.65030  Biso   1.000  H
  C31      1.0000 0.97200  0.95310  0.75200  Biso   1.000  C
  H18      1.0000 0.92170  0.94770  0.78280  Biso   1.000  H
  C32      1.0000 0.06730  0.02760  0.78740  Biso   1.000  C
  H19      1.0000 0.07920  0.06990  0.84130  Biso   1.000  H
  C33      1.0000 0.14380  0.03950  0.74380  Biso   1.000  C
  H20      1.0000 0.20680  0.08960  0.76730  Biso   1.000  H
  C34      1.0000 0.12450  0.97500  0.66450  Biso   1.000  C
  C35      1.0000 0.12640  0.89570  0.53840  Biso   1.000  C
  C36      1.0000 0.16810  0.86920  0.46490  Biso   1.000  C
  C37      1.0000 0.12870  0.78750  0.39470  Biso   1.000  C
  H21      1.0000 0.06460  0.73880  0.38290  Biso   1.000  H
  C38      1.0000 0.29530  0.89650  0.40220  Biso   1.000  C
  H22      1.0000 0.35890  0.92890  0.39380  Biso   1.000  H
  O5       1.0000 0.42130  0.05550  0.75980  Biso   1.000  O
  O6       1.0000 0.41270  0.84700  0.78070  Biso   1.000  O
  O7       1.0000 0.55050  0.66300  0.96480  Biso   1.000  O
  O8       1.0000 0.64810  0.76880  0.89990  Biso   1.000  O
  S2       1.0000 0.21320  0.78740  0.33173  Biso   1.000  S
  Cd3      1.0000 0.36120  0.46749  0.11246  Biso   1.000  Cd
  N7       1.0000 0.26370  0.56790  0.96870  Biso   1.000  N
  N8       1.0000 0.18500  0.53030  0.10640  Biso   1.000  N
  N9       1.0000 0.03140  0.64720  0.04910  Biso   1.000  N
  C39      1.0000 0.43300  0.54180  0.30790  Biso   1.000  C
  C40      1.0000 0.47140  0.52230  0.40770  Biso   1.000  C
  C41      1.0000 0.43790  0.41200  0.44090  Biso   1.000  C
  H23      1.0000 0.39670  0.35200  0.40040  Biso   1.000  H
  C42      1.0000 0.53690  0.61230  0.46870  Biso   1.000  C
  C43      1.0000 0.58050  0.73320  0.44040  Biso   1.000  C
  C44      1.0000 0.91770  0.08440  0.95790  Biso   1.000  C
  H24      1.0000 0.86150  0.14140  0.92920  Biso   1.000  H
  C45      1.0000 0.89420  0.95640  0.95620  Biso   1.000  C
  H25      1.0000 0.82250  0.92800  0.92650  Biso   1.000  H
  C46      1.0000 0.97600  0.86980  0.99810  Biso   1.000  C
  C47      1.0000 0.94790  0.72980  0.99030  Biso   1.000  C
  H26      1.0000 0.93530  0.70340  0.92920  Biso   1.000  H
  H27      1.0000 0.87900  0.71780  0.00250  Biso   1.000  H
  C48      1.0000 0.02810  0.59920  0.12970  Biso   1.000  C
  C49      1.0000 0.95060  0.61220  0.17330  Biso   1.000  C
  H28      1.0000 0.88760  0.66250  0.15030  Biso   1.000  H
  C50      1.0000 0.97200  0.54690  0.25200  Biso   1.000  C
  H29      1.0000 0.92170  0.55230  0.28280  Biso   1.000  H
  C51      1.0000 0.06730  0.47240  0.28740  Biso   1.000  C
  H30      1.0000 0.07920  0.43010  0.34130  Biso   1.000  H
  C52      1.0000 0.14380  0.46050  0.24380  Biso   1.000  C
  H31      1.0000 0.20680  0.41040  0.26730  Biso   1.000  H
  C53      1.0000 0.12450  0.52500  0.16450  Biso   1.000  C
  C54      1.0000 0.12640  0.60430  0.03840  Biso   1.000  C
  C55      1.0000 0.16810  0.63080  0.96490  Biso   1.000  C
  C56      1.0000 0.12870  0.71250  0.89470  Biso   1.000  C
  H32      1.0000 0.06460  0.76120  0.88290  Biso   1.000  H
  C57      1.0000 0.29530  0.60350  0.90220  Biso   1.000  C
  H33      1.0000 0.35890  0.57110  0.89380  Biso   1.000  H
  O9       1.0000 0.42130  0.44450  0.25980  Biso   1.000  O
  O10      1.0000 0.41270  0.65300  0.28070  Biso   1.000  O
  O11      1.0000 0.55050  0.83700  0.46480  Biso   1.000  O
  O12      1.0000 0.64810  0.73120  0.39990  Biso   1.000  O
  S3       1.0000 0.21320  0.71260  0.83173  Biso   1.000  S
  Cd4      1.0000 0.63880  0.96749  0.38754  Biso   1.000  Cd
  N10      1.0000 0.73630  0.06790  0.53130  Biso   1.000  N
  N11      1.0000 0.81500  0.03030  0.39360  Biso   1.000  N
  N12      1.0000 0.96860  0.14720  0.45090  Biso   1.000  N
  C58      1.0000 0.56700  0.04180  0.19210  Biso   1.000  C
  C59      1.0000 0.52860  0.02230  0.09230  Biso   1.000  C
  C60      1.0000 0.56210  0.91200  0.05910  Biso   1.000  C
  H34      1.0000 0.60330  0.85200  0.09960  Biso   1.000  H
  C61      1.0000 0.46310  0.11230  0.03130  Biso   1.000  C
  C62      1.0000 0.41950  0.23320  0.05960  Biso   1.000  C
  C63      1.0000 0.08230  0.58440  0.54210  Biso   1.000  C
  H35      1.0000 0.13850  0.64140  0.57080  Biso   1.000  H
  C64      1.0000 0.10580  0.45640  0.54380  Biso   1.000  C
  H36      1.0000 0.17750  0.42800  0.57350  Biso   1.000  H
  C65      1.0000 0.02400  0.36980  0.50190  Biso   1.000  C
  C66      1.0000 0.05210  0.22980  0.50970  Biso   1.000  C
  H37      1.0000 0.06470  0.20340  0.57080  Biso   1.000  H
  H38      1.0000 0.12100  0.21780  0.49750  Biso   1.000  H
  C67      1.0000 0.97190  0.09920  0.37030  Biso   1.000  C
  C68      1.0000 0.04940  0.11220  0.32670  Biso   1.000  C
  H39      1.0000 0.11240  0.16250  0.34970  Biso   1.000  H
  C69      1.0000 0.02800  0.04690  0.24800  Biso   1.000  C
  H40      1.0000 0.07830  0.05230  0.21720  Biso   1.000  H
  C70      1.0000 0.93270  0.97240  0.21260  Biso   1.000  C
  H41      1.0000 0.92080  0.93010  0.15870  Biso   1.000  H
  C71      1.0000 0.85620  0.96050  0.25620  Biso   1.000  C
  H42      1.0000 0.79320  0.91040  0.23270  Biso   1.000  H
  C72      1.0000 0.87550  0.02500  0.33550  Biso   1.000  C
  C73      1.0000 0.87360  0.10430  0.46160  Biso   1.000  C
  C74      1.0000 0.83190  0.13080  0.53510  Biso   1.000  C
  C75      1.0000 0.87130  0.21250  0.60530  Biso   1.000  C
  H43      1.0000 0.93540  0.26120  0.61710  Biso   1.000  H
  C76      1.0000 0.70470  0.10350  0.59780  Biso   1.000  C
  H44      1.0000 0.64110  0.07110  0.60620  Biso   1.000  H
  O13      1.0000 0.57870  0.94450  0.24020  Biso   1.000  O
  O14      1.0000 0.58730  0.15300  0.21930  Biso   1.000  O
  O15      1.0000 0.44950  0.33700  0.03520  Biso   1.000  O
  O16      1.0000 0.35190  0.23120  0.10010  Biso   1.000  O
  S4       1.0000 0.78680  0.21260  0.66827  Biso   1.000  S
