data_image0
_cell_length_a       10.98
_cell_length_b       13.029
_cell_length_c       13.599
_cell_angle_alpha    62.312
_cell_angle_beta     70.921
_cell_angle_gamma    72.954

_symmetry_space_group_name_H-M    "P 1"
_symmetry_int_tables_number       1

loop_
  _symmetry_equiv_pos_as_xyz
  'x, y, z'

loop_
  _atom_site_label
  _atom_site_occupancy
  _atom_site_fract_x
  _atom_site_fract_y
  _atom_site_fract_z
  _atom_site_thermal_displace_type
  _atom_site_B_iso_or_equiv
  _atom_site_type_symbol
  Zn1      1.0000 0.88754  0.47444  0.64676  Biso   1.000  Zn
  U1       1.0000 0.57353  0.37904  0.14296  Biso   1.000  U
  U2       1.0000 0.67639  0.89669  0.47709  Biso   1.000  U
  U3       1.0000 0.67482  0.37505  0.51718  Biso   1.000  U
  P1       1.0000 0.71260  0.37370  0.90260  Biso   1.000  P
  P2       1.0000 0.67540  0.16060  0.40570  Biso   1.000  P
  P3       1.0000 0.61950  0.59540  0.58010  Biso   1.000  P
  P4       1.0000 0.98770  0.70190  0.46570  Biso   1.000  P
  O1       1.0000 0.66410  0.29360  0.86920  Biso   1.000  O
  O2       1.0000 0.82590  0.42570  0.81090  Biso   1.000  O
  O3       1.0000 0.59700  0.46380  0.92870  Biso   1.000  O
  O4       1.0000 0.74590  0.29480  0.01970  Biso   1.000  O
  O5       1.0000 0.55430  0.09770  0.45990  Biso   1.000  O
  O6       1.0000 0.78910  0.05640  0.41730  Biso   1.000  O
  O7       1.0000 0.68140  0.23840  0.28120  Biso   1.000  O
  O8       1.0000 0.67310  0.22620  0.47270  Biso   1.000  O
  O9       1.0000 0.73910  0.49290  0.58490  Biso   1.000  O
  O10      1.0000 0.53490  0.56600  0.52950  Biso   1.000  O
  O11      1.0000 0.66200  0.71380  0.49660  Biso   1.000  O
  O12      1.0000 0.55740  0.59310  0.69720  Biso   1.000  O
  O13      1.0000 0.94540  0.62260  0.59380  Biso   1.000  O
  O14      1.0000 0.12620  0.72480  0.44320  Biso   1.000  O
  O15      1.0000 0.98290  0.64240  0.39370  Biso   1.000  O
  O16      1.0000 0.89340  0.81890  0.43710  Biso   1.000  O
  Zn2      1.0000 0.11246  0.52556  0.35324  Biso   1.000  Zn
  U4       1.0000 0.42647  0.62096  0.85704  Biso   1.000  U
  U5       1.0000 0.32361  0.10331  0.52291  Biso   1.000  U
  U6       1.0000 0.32518  0.62495  0.48282  Biso   1.000  U
  P5       1.0000 0.28740  0.62630  0.09740  Biso   1.000  P
  P6       1.0000 0.32460  0.83940  0.59430  Biso   1.000  P
  P7       1.0000 0.38050  0.40460  0.41990  Biso   1.000  P
  P8       1.0000 0.01230  0.29810  0.53430  Biso   1.000  P
  O17      1.0000 0.33590  0.70640  0.13080  Biso   1.000  O
  O18      1.0000 0.17410  0.57430  0.18910  Biso   1.000  O
  O19      1.0000 0.40300  0.53620  0.07130  Biso   1.000  O
  O20      1.0000 0.25410  0.70520  0.98030  Biso   1.000  O
  O21      1.0000 0.44570  0.90230  0.54010  Biso   1.000  O
  O22      1.0000 0.21090  0.94360  0.58270  Biso   1.000  O
  O23      1.0000 0.31860  0.76160  0.71880  Biso   1.000  O
  O24      1.0000 0.32690  0.77380  0.52730  Biso   1.000  O
  O25      1.0000 0.26090  0.50710  0.41510  Biso   1.000  O
  O26      1.0000 0.46510  0.43400  0.47050  Biso   1.000  O
  O27      1.0000 0.33800  0.28620  0.50340  Biso   1.000  O
  O28      1.0000 0.44260  0.40690  0.30280  Biso   1.000  O
  O29      1.0000 0.05460  0.37740  0.40620  Biso   1.000  O
  O30      1.0000 0.87380  0.27520  0.55680  Biso   1.000  O
  O31      1.0000 0.01710  0.35760  0.60630  Biso   1.000  O
  O32      1.0000 0.10660  0.18110  0.56290  Biso   1.000  O
