data_NOKPEJ_clean
_audit_creation_date              2014-07-02
_audit_creation_method            'Materials Studio'
_symmetry_space_group_name_H-M    'P1'
_symmetry_Int_Tables_number       1
_symmetry_cell_setting            triclinic
loop_
_symmetry_equiv_pos_as_xyz
  x,y,z
_cell_length_a                    8.6482
_cell_length_b                    10.3263
_cell_length_c                    12.9197
_cell_angle_alpha                 112.2480
_cell_angle_beta                  108.0350
_cell_angle_gamma                 93.5997
loop_
_atom_site_label
_atom_site_type_symbol
_atom_site_fract_x
_atom_site_fract_y
_atom_site_fract_z
_atom_site_U_iso_or_equiv
_atom_site_adp_type
_atom_site_occupancy
Cd1    Cd    0.95596   0.47052   0.21379   0.01267  Uiso   1.00
Cd2    Cd    0.30865   0.28980   0.31237   0.01267  Uiso   1.00
Cd3    Cd    0.24217   0.25673   0.78621   0.01267  Uiso   1.00
Cd4    Cd    0.49628   0.97743   0.68763   0.01267  Uiso   1.00
H1     H     0.15590   0.79090   0.45800   0.01267  Uiso   1.00
H2     H     0.50370   0.61080   0.57820   0.01267  Uiso   1.00
H3     H     0.07670   0.45970   0.98380   0.01267  Uiso   1.00
H4     H     0.40020   0.23700   0.05720   0.01267  Uiso   1.00
H5     H     0.88060   0.16430   0.39500   0.01267  Uiso   1.00
H6     H     0.71560   0.11090   0.28320   0.01267  Uiso   1.00
H7     H     0.00730   0.00400   0.27920   0.01267  Uiso   1.00
H8     H     0.84020   0.94930   0.16820   0.01267  Uiso   1.00
H9     H     0.87410   0.92680   0.38280   0.01267  Uiso   1.00
H10    H     0.70970   0.86970   0.27060   0.01267  Uiso   1.00
H11    H     0.19790   0.33290   0.54200   0.01267  Uiso   1.00
H12    H     0.42550   0.03260   0.42180   0.01267  Uiso   1.00
H13    H     0.59290   0.47590   0.01620   0.01267  Uiso   1.00
H14    H     0.84300   0.17980   0.94280   0.01267  Uiso   1.00
H15    H     0.98560   0.76930   0.60500   0.01267  Uiso   1.00
H16    H     0.93240   0.82770   0.71680   0.01267  Uiso   1.00
H17    H     0.22810   0.72480   0.72080   0.01267  Uiso   1.00
H18    H     0.17200   0.78110   0.83180   0.01267  Uiso   1.00
H19    H     0.99130   0.54400   0.61720   0.01267  Uiso   1.00
H20    H     0.93910   0.59910   0.72940   0.01267  Uiso   1.00
C1     C     0.21788   0.72268   0.46656   0.01267  Uiso   1.00
C2     C     0.40648   0.62568   0.53176   0.01267  Uiso   1.00
C3     C     0.14632   0.41372   0.02224   0.01267  Uiso   1.00
C4     C     0.32081   0.29351   0.06202   0.01267  Uiso   1.00
C5     C     0.89031   0.24341   0.27442   0.01267  Uiso   1.00
C6     C     0.83572   0.12872   0.30824   0.01267  Uiso   1.00
C7     C     0.88731   0.98801   0.25502   0.01267  Uiso   1.00
C8     C     0.82977   0.88397   0.29574   0.01267  Uiso   1.00
C9     C     0.87489   0.73899   0.25258   0.01267  Uiso   1.00
C10    C     0.25132   0.25612   0.53344   0.01267  Uiso   1.00
C11    C     0.37472   0.09392   0.46824   0.01267  Uiso   1.00
C12    C     0.62408   0.39148   0.97776   0.01267  Uiso   1.00
C13    C     0.75879   0.23149   0.93798   0.01267  Uiso   1.00
C14    C     0.11589   0.96899   0.72558   0.01267  Uiso   1.00
C15    C     0.02748   0.82048   0.69176   0.01267  Uiso   1.00
C16    C     0.13229   0.73299   0.74498   0.01267  Uiso   1.00
C17    C     0.03403   0.58823   0.70426   0.01267  Uiso   1.00
C18    C     0.12231   0.48641   0.74742   0.01267  Uiso   1.00
N1     N     0.29420   0.52210   0.43560   0.01267  Uiso   1.00
N2     N     0.16997   0.58637   0.39354   0.01267  Uiso   1.00
N3     N     0.36624   0.75374   0.55528   0.01267  Uiso   1.00
N4     N     0.27108   0.33978   0.15336   0.01267  Uiso   1.00
N5     N     0.15652   0.41892   0.12724   0.01267  Uiso   1.00
N6     N     0.24565   0.33595   0.97630   0.01267  Uiso   1.00
N7     N     0.35860   0.08650   0.56440   0.01267  Uiso   1.00
N8     N     0.27643   0.19283   0.60646   0.01267  Uiso   1.00
N9     N     0.31096   0.19846   0.44472   0.01267  Uiso   1.00
N10    N     0.61772   0.18642   0.84664   0.01267  Uiso   1.00
N11    N     0.52928   0.29168   0.87276   0.01267  Uiso   1.00
N12    N     0.76935   0.35965   0.02370   0.01267  Uiso   1.00
O1     O     0.00407   0.23507   0.23214   0.01267  Uiso   1.00
O2     O     0.81894   0.34674   0.29068   0.01267  Uiso   1.00
O3     O     0.97800   0.71440   0.20120   0.01267  Uiso   1.00
O4     O     0.80946   0.64656   0.27532   0.01267  Uiso   1.00
O5     O     0.27193   0.00293   0.76786   0.01267  Uiso   1.00
O6     O     0.02826   0.05606   0.70932   0.01267  Uiso   1.00
O7     O     0.27680   0.51320   0.79880   0.01267  Uiso   1.00
O8     O     0.03414   0.37124   0.72468   0.01267  Uiso   1.00
