data_image0
_cell_length_a       19.524
_cell_length_b       10.049
_cell_length_c       25.359
_cell_angle_alpha    90
_cell_angle_beta     95.409
_cell_angle_gamma    90

_symmetry_space_group_name_H-M    "P 1"
_symmetry_int_tables_number       1

loop_
  _symmetry_equiv_pos_as_xyz
  'x, y, z'

loop_
  _atom_site_label
  _atom_site_occupancy
  _atom_site_fract_x
  _atom_site_fract_y
  _atom_site_fract_z
  _atom_site_thermal_displace_type
  _atom_site_B_iso_or_equiv
  _atom_site_type_symbol
  Cd1      1.0000 0.58928  0.04870  0.98369  Biso   1.000  Cd
  O1       1.0000 0.68891  0.10720  0.94280  Biso   1.000  O
  O2       1.0000 0.60674  0.01250  0.89424  Biso   1.000  O
  O3       1.0000 0.02415  0.58320  0.54768  Biso   1.000  O
  O4       1.0000 0.10823  0.66750  0.50662  Biso   1.000  O
  O5       1.0000 0.07473  0.28240  0.53538  Biso   1.000  O
  O6       1.0000 0.15180  0.14380  0.50677  Biso   1.000  O
  C1       1.0000 0.66590  0.05980  0.89936  Biso   1.000  C
  C2       1.0000 0.70900  0.05200  0.85408  Biso   1.000  C
  C3       1.0000 0.68640  0.98520  0.80831  Biso   1.000  C
  H1       1.0000 0.64270  0.94750  0.80440  Biso   1.000  H
  C4       1.0000 0.72920  0.97480  0.76830  Biso   1.000  C
  H2       1.0000 0.71340  0.93030  0.73730  Biso   1.000  H
  C5       1.0000 0.79540  0.02860  0.77246  Biso   1.000  C
  C6       1.0000 0.81710  0.09750  0.81810  Biso   1.000  C
  H3       1.0000 0.86040  0.13660  0.82180  Biso   1.000  H
  C7       1.0000 0.77360  0.10850  0.85890  Biso   1.000  C
  H4       1.0000 0.78860  0.15460  0.88960  Biso   1.000  H
  C8       1.0000 0.84160  0.01470  0.72875  Biso   1.000  C
  C9       1.0000 0.83350  0.91060  0.69230  Biso   1.000  C
  H5       1.0000 0.79750  0.85090  0.69430  Biso   1.000  H
  C10      1.0000 0.87750  0.89410  0.65374  Biso   1.000  C
  H6       1.0000 0.87160  0.82180  0.63080  Biso   1.000  H
  C11      1.0000 0.93110  0.98430  0.64821  Biso   1.000  C
  C12      1.0000 0.93600  0.08760  0.68380  Biso   1.000  C
  H7       1.0000 0.97110  0.14920  0.68140  Biso   1.000  H
  C13      1.0000 0.89260  0.10640  0.72290  Biso   1.000  C
  H8       1.0000 0.89770  0.18020  0.74500  Biso   1.000  H
  C14      1.0000 0.98130  0.96340  0.60852  Biso   1.000  C
  C15      1.0000 0.99800  0.83560  0.59157  Biso   1.000  C
  H9       1.0000 0.97660  0.76190  0.60490  Biso   1.000  H
  C16      1.0000 0.04610  0.81730  0.55509  Biso   1.000  C
  C17      1.0000 0.07970  0.92590  0.53749  Biso   1.000  C
  H10      1.0000 0.11420  0.91340  0.51510  Biso   1.000  H
  C18      1.0000 0.06360  0.05390  0.55232  Biso   1.000  C
  C19      1.0000 0.01490  0.07190  0.58816  Biso   1.000  C
  H11      1.0000 0.00450  0.15760  0.59880  Biso   1.000  H
  C20      1.0000 0.05990  0.68010  0.53544  Biso   1.000  C
  C21      1.0000 0.09930  0.17070  0.52976  Biso   1.000  C
  Cd2      1.0000 0.08928  0.54870  0.98369  Biso   1.000  Cd
  O7       1.0000 0.18891  0.60720  0.94280  Biso   1.000  O
  O8       1.0000 0.10674  0.51250  0.89424  Biso   1.000  O
  O9       1.0000 0.52415  0.08320  0.54768  Biso   1.000  O
  O10      1.0000 0.60823  0.16750  0.50662  Biso   1.000  O
  O11      1.0000 0.57473  0.78240  0.53538  Biso   1.000  O
  O12      1.0000 0.65180  0.64380  0.50677  Biso   1.000  O
  C22      1.0000 0.16590  0.55980  0.89936  Biso   1.000  C
  C23      1.0000 0.20900  0.55200  0.85408  Biso   1.000  C
  C24      1.0000 0.18640  0.48520  0.80831  Biso   1.000  C
  H12      1.0000 0.14270  0.44750  0.80440  Biso   1.000  H
  C25      1.0000 0.22920  0.47480  0.76830  Biso   1.000  C
  H13      1.0000 0.21340  0.43030  0.73730  Biso   1.000  H
  C26      1.0000 0.29540  0.52860  0.77246  Biso   1.000  C
  C27      1.0000 0.31710  0.59750  0.81810  Biso   1.000  C
  H14      1.0000 0.36040  0.63660  0.82180  Biso   1.000  H
  C28      1.0000 0.27360  0.60850  0.85890  Biso   1.000  C
  H15      1.0000 0.28860  0.65460  0.88960  Biso   1.000  H
  C29      1.0000 0.34160  0.51470  0.72875  Biso   1.000  C
  C30      1.0000 0.33350  0.41060  0.69230  Biso   1.000  C
  H16      1.0000 0.29750  0.35090  0.69430  Biso   1.000  H
  C31      1.0000 0.37750  0.39410  0.65374  Biso   1.000  C
  H17      1.0000 0.37160  0.32180  0.63080  Biso   1.000  H
  C32      1.0000 0.43110  0.48430  0.64821  Biso   1.000  C
  C33      1.0000 0.43600  0.58760  0.68380  Biso   1.000  C
  H18      1.0000 0.47110  0.64920  0.68140  Biso   1.000  H
  C34      1.0000 0.39260  0.60640  0.72290  Biso   1.000  C
  H19      1.0000 0.39770  0.68020  0.74500  Biso   1.000  H
  C35      1.0000 0.48130  0.46340  0.60852  Biso   1.000  C
  C36      1.0000 0.49800  0.33560  0.59157  Biso   1.000  C
  H20      1.0000 0.47660  0.26190  0.60490  Biso   1.000  H
  C37      1.0000 0.54610  0.31730  0.55509  Biso   1.000  C
  C38      1.0000 0.57970  0.42590  0.53749  Biso   1.000  C
  H21      1.0000 0.61420  0.41340  0.51510  Biso   1.000  H
  C39      1.0000 0.56360  0.55390  0.55232  Biso   1.000  C
  C40      1.0000 0.51490  0.57190  0.58816  Biso   1.000  C
  H22      1.0000 0.50450  0.65760  0.59880  Biso   1.000  H
  C41      1.0000 0.55990  0.18010  0.53544  Biso   1.000  C
  C42      1.0000 0.59930  0.67070  0.52976  Biso   1.000  C
  Cd3      1.0000 0.41072  0.04870  0.51631  Biso   1.000  Cd
  O13      1.0000 0.31109  0.10720  0.55720  Biso   1.000  O
  O14      1.0000 0.39326  0.01250  0.60576  Biso   1.000  O
  O15      1.0000 0.97585  0.58320  0.95232  Biso   1.000  O
  O16      1.0000 0.89177  0.66750  0.99338  Biso   1.000  O
  O17      1.0000 0.92527  0.28240  0.96462  Biso   1.000  O
  O18      1.0000 0.84820  0.14380  0.99323  Biso   1.000  O
  C43      1.0000 0.33410  0.05980  0.60064  Biso   1.000  C
  C44      1.0000 0.29100  0.05200  0.64592  Biso   1.000  C
  C45      1.0000 0.31360  0.98520  0.69169  Biso   1.000  C
  H23      1.0000 0.35730  0.94750  0.69560  Biso   1.000  H
  C46      1.0000 0.27080  0.97480  0.73170  Biso   1.000  C
  H24      1.0000 0.28660  0.93030  0.76270  Biso   1.000  H
  C47      1.0000 0.20460  0.02860  0.72754  Biso   1.000  C
  C48      1.0000 0.18290  0.09750  0.68190  Biso   1.000  C
  H25      1.0000 0.13960  0.13660  0.67820  Biso   1.000  H
  C49      1.0000 0.22640  0.10850  0.64110  Biso   1.000  C
  H26      1.0000 0.21140  0.15460  0.61040  Biso   1.000  H
  C50      1.0000 0.15840  0.01470  0.77125  Biso   1.000  C
  C51      1.0000 0.16650  0.91060  0.80770  Biso   1.000  C
  H27      1.0000 0.20250  0.85090  0.80570  Biso   1.000  H
  C52      1.0000 0.12250  0.89410  0.84626  Biso   1.000  C
  H28      1.0000 0.12840  0.82180  0.86920  Biso   1.000  H
  C53      1.0000 0.06890  0.98430  0.85179  Biso   1.000  C
  C54      1.0000 0.06400  0.08760  0.81620  Biso   1.000  C
  H29      1.0000 0.02890  0.14920  0.81860  Biso   1.000  H
  C55      1.0000 0.10740  0.10640  0.77710  Biso   1.000  C
  H30      1.0000 0.10230  0.18020  0.75500  Biso   1.000  H
  C56      1.0000 0.01870  0.96340  0.89148  Biso   1.000  C
  C57      1.0000 0.00200  0.83560  0.90843  Biso   1.000  C
  H31      1.0000 0.02340  0.76190  0.89510  Biso   1.000  H
  C58      1.0000 0.95390  0.81730  0.94491  Biso   1.000  C
  C59      1.0000 0.92030  0.92590  0.96251  Biso   1.000  C
  H32      1.0000 0.88580  0.91340  0.98490  Biso   1.000  H
  C60      1.0000 0.93640  0.05390  0.94768  Biso   1.000  C
  C61      1.0000 0.98510  0.07190  0.91184  Biso   1.000  C
  H33      1.0000 0.99550  0.15760  0.90120  Biso   1.000  H
  C62      1.0000 0.94010  0.68010  0.96456  Biso   1.000  C
  C63      1.0000 0.90070  0.17070  0.97024  Biso   1.000  C
  Cd4      1.0000 0.91072  0.54870  0.51631  Biso   1.000  Cd
  O19      1.0000 0.81109  0.60720  0.55720  Biso   1.000  O
  O20      1.0000 0.89326  0.51250  0.60576  Biso   1.000  O
  O21      1.0000 0.47585  0.08320  0.95232  Biso   1.000  O
  O22      1.0000 0.39177  0.16750  0.99338  Biso   1.000  O
  O23      1.0000 0.42527  0.78240  0.96462  Biso   1.000  O
  O24      1.0000 0.34820  0.64380  0.99323  Biso   1.000  O
  C64      1.0000 0.83410  0.55980  0.60064  Biso   1.000  C
  C65      1.0000 0.79100  0.55200  0.64592  Biso   1.000  C
  C66      1.0000 0.81360  0.48520  0.69169  Biso   1.000  C
  H34      1.0000 0.85730  0.44750  0.69560  Biso   1.000  H
  C67      1.0000 0.77080  0.47480  0.73170  Biso   1.000  C
  H35      1.0000 0.78660  0.43030  0.76270  Biso   1.000  H
  C68      1.0000 0.70460  0.52860  0.72754  Biso   1.000  C
  C69      1.0000 0.68290  0.59750  0.68190  Biso   1.000  C
  H36      1.0000 0.63960  0.63660  0.67820  Biso   1.000  H
  C70      1.0000 0.72640  0.60850  0.64110  Biso   1.000  C
  H37      1.0000 0.71140  0.65460  0.61040  Biso   1.000  H
  C71      1.0000 0.65840  0.51470  0.77125  Biso   1.000  C
  C72      1.0000 0.66650  0.41060  0.80770  Biso   1.000  C
  H38      1.0000 0.70250  0.35090  0.80570  Biso   1.000  H
  C73      1.0000 0.62250  0.39410  0.84626  Biso   1.000  C
  H39      1.0000 0.62840  0.32180  0.86920  Biso   1.000  H
  C74      1.0000 0.56890  0.48430  0.85179  Biso   1.000  C
  C75      1.0000 0.56400  0.58760  0.81620  Biso   1.000  C
  H40      1.0000 0.52890  0.64920  0.81860  Biso   1.000  H
  C76      1.0000 0.60740  0.60640  0.77710  Biso   1.000  C
  H41      1.0000 0.60230  0.68020  0.75500  Biso   1.000  H
  C77      1.0000 0.51870  0.46340  0.89148  Biso   1.000  C
  C78      1.0000 0.50200  0.33560  0.90843  Biso   1.000  C
  H42      1.0000 0.52340  0.26190  0.89510  Biso   1.000  H
  C79      1.0000 0.45390  0.31730  0.94491  Biso   1.000  C
  C80      1.0000 0.42030  0.42590  0.96251  Biso   1.000  C
  H43      1.0000 0.38580  0.41340  0.98490  Biso   1.000  H
  C81      1.0000 0.43640  0.55390  0.94768  Biso   1.000  C
  C82      1.0000 0.48510  0.57190  0.91184  Biso   1.000  C
  H44      1.0000 0.49550  0.65760  0.90120  Biso   1.000  H
  C83      1.0000 0.44010  0.18010  0.96456  Biso   1.000  C
  C84      1.0000 0.40070  0.67070  0.97024  Biso   1.000  C
  Cd5      1.0000 0.41072  0.95130  0.01631  Biso   1.000  Cd
  O25      1.0000 0.31109  0.89280  0.05720  Biso   1.000  O
  O26      1.0000 0.39326  0.98750  0.10576  Biso   1.000  O
  O27      1.0000 0.97585  0.41680  0.45232  Biso   1.000  O
  O28      1.0000 0.89177  0.33250  0.49338  Biso   1.000  O
  O29      1.0000 0.92527  0.71760  0.46462  Biso   1.000  O
  O30      1.0000 0.84820  0.85620  0.49323  Biso   1.000  O
  C85      1.0000 0.33410  0.94020  0.10064  Biso   1.000  C
  C86      1.0000 0.29100  0.94800  0.14592  Biso   1.000  C
  C87      1.0000 0.31360  0.01480  0.19169  Biso   1.000  C
  H45      1.0000 0.35730  0.05250  0.19560  Biso   1.000  H
  C88      1.0000 0.27080  0.02520  0.23170  Biso   1.000  C
  H46      1.0000 0.28660  0.06970  0.26270  Biso   1.000  H
  C89      1.0000 0.20460  0.97140  0.22754  Biso   1.000  C
  C90      1.0000 0.18290  0.90250  0.18190  Biso   1.000  C
  H47      1.0000 0.13960  0.86340  0.17820  Biso   1.000  H
  C91      1.0000 0.22640  0.89150  0.14110  Biso   1.000  C
  H48      1.0000 0.21140  0.84540  0.11040  Biso   1.000  H
  C92      1.0000 0.15840  0.98530  0.27125  Biso   1.000  C
  C93      1.0000 0.16650  0.08940  0.30770  Biso   1.000  C
  H49      1.0000 0.20250  0.14910  0.30570  Biso   1.000  H
  C94      1.0000 0.12250  0.10590  0.34626  Biso   1.000  C
  H50      1.0000 0.12840  0.17820  0.36920  Biso   1.000  H
  C95      1.0000 0.06890  0.01570  0.35179  Biso   1.000  C
  C96      1.0000 0.06400  0.91240  0.31620  Biso   1.000  C
  H51      1.0000 0.02890  0.85080  0.31860  Biso   1.000  H
  C97      1.0000 0.10740  0.89360  0.27710  Biso   1.000  C
  H52      1.0000 0.10230  0.81980  0.25500  Biso   1.000  H
  C98      1.0000 0.01870  0.03660  0.39148  Biso   1.000  C
  C99      1.0000 0.00200  0.16440  0.40843  Biso   1.000  C
  H53      1.0000 0.02340  0.23810  0.39510  Biso   1.000  H
  C100     1.0000 0.95390  0.18270  0.44491  Biso   1.000  C
  C101     1.0000 0.92030  0.07410  0.46251  Biso   1.000  C
  H54      1.0000 0.88580  0.08660  0.48490  Biso   1.000  H
  C102     1.0000 0.93640  0.94610  0.44768  Biso   1.000  C
  C103     1.0000 0.98510  0.92810  0.41184  Biso   1.000  C
  H55      1.0000 0.99550  0.84240  0.40120  Biso   1.000  H
  C104     1.0000 0.94010  0.31990  0.46456  Biso   1.000  C
  C105     1.0000 0.90070  0.82930  0.47024  Biso   1.000  C
  Cd6      1.0000 0.91072  0.45130  0.01631  Biso   1.000  Cd
  O31      1.0000 0.81109  0.39280  0.05720  Biso   1.000  O
  O32      1.0000 0.89326  0.48750  0.10576  Biso   1.000  O
  O33      1.0000 0.47585  0.91680  0.45232  Biso   1.000  O
  O34      1.0000 0.39177  0.83250  0.49338  Biso   1.000  O
  O35      1.0000 0.42527  0.21760  0.46462  Biso   1.000  O
  O36      1.0000 0.34820  0.35620  0.49323  Biso   1.000  O
  C106     1.0000 0.83410  0.44020  0.10064  Biso   1.000  C
  C107     1.0000 0.79100  0.44800  0.14592  Biso   1.000  C
  C108     1.0000 0.81360  0.51480  0.19169  Biso   1.000  C
  H56      1.0000 0.85730  0.55250  0.19560  Biso   1.000  H
  C109     1.0000 0.77080  0.52520  0.23170  Biso   1.000  C
  H57      1.0000 0.78660  0.56970  0.26270  Biso   1.000  H
  C110     1.0000 0.70460  0.47140  0.22754  Biso   1.000  C
  C111     1.0000 0.68290  0.40250  0.18190  Biso   1.000  C
  H58      1.0000 0.63960  0.36340  0.17820  Biso   1.000  H
  C112     1.0000 0.72640  0.39150  0.14110  Biso   1.000  C
  H59      1.0000 0.71140  0.34540  0.11040  Biso   1.000  H
  C113     1.0000 0.65840  0.48530  0.27125  Biso   1.000  C
  C114     1.0000 0.66650  0.58940  0.30770  Biso   1.000  C
  H60      1.0000 0.70250  0.64910  0.30570  Biso   1.000  H
  C115     1.0000 0.62250  0.60590  0.34626  Biso   1.000  C
  H61      1.0000 0.62840  0.67820  0.36920  Biso   1.000  H
  C116     1.0000 0.56890  0.51570  0.35179  Biso   1.000  C
  C117     1.0000 0.56400  0.41240  0.31620  Biso   1.000  C
  H62      1.0000 0.52890  0.35080  0.31860  Biso   1.000  H
  C118     1.0000 0.60740  0.39360  0.27710  Biso   1.000  C
  H63      1.0000 0.60230  0.31980  0.25500  Biso   1.000  H
  C119     1.0000 0.51870  0.53660  0.39148  Biso   1.000  C
  C120     1.0000 0.50200  0.66440  0.40843  Biso   1.000  C
  H64      1.0000 0.52340  0.73810  0.39510  Biso   1.000  H
  C121     1.0000 0.45390  0.68270  0.44491  Biso   1.000  C
  C122     1.0000 0.42030  0.57410  0.46251  Biso   1.000  C
  H65      1.0000 0.38580  0.58660  0.48490  Biso   1.000  H
  C123     1.0000 0.43640  0.44610  0.44768  Biso   1.000  C
  C124     1.0000 0.48510  0.42810  0.41184  Biso   1.000  C
  H66      1.0000 0.49550  0.34240  0.40120  Biso   1.000  H
  C125     1.0000 0.44010  0.81990  0.46456  Biso   1.000  C
  C126     1.0000 0.40070  0.32930  0.47024  Biso   1.000  C
  Cd7      1.0000 0.58928  0.95130  0.48369  Biso   1.000  Cd
  O37      1.0000 0.68891  0.89280  0.44280  Biso   1.000  O
  O38      1.0000 0.60674  0.98750  0.39424  Biso   1.000  O
  O39      1.0000 0.02415  0.41680  0.04768  Biso   1.000  O
  O40      1.0000 0.10823  0.33250  0.00662  Biso   1.000  O
  O41      1.0000 0.07473  0.71760  0.03538  Biso   1.000  O
  O42      1.0000 0.15180  0.85620  0.00677  Biso   1.000  O
  C127     1.0000 0.66590  0.94020  0.39936  Biso   1.000  C
  C128     1.0000 0.70900  0.94800  0.35408  Biso   1.000  C
  C129     1.0000 0.68640  0.01480  0.30831  Biso   1.000  C
  H67      1.0000 0.64270  0.05250  0.30440  Biso   1.000  H
  C130     1.0000 0.72920  0.02520  0.26830  Biso   1.000  C
  H68      1.0000 0.71340  0.06970  0.23730  Biso   1.000  H
  C131     1.0000 0.79540  0.97140  0.27246  Biso   1.000  C
  C132     1.0000 0.81710  0.90250  0.31810  Biso   1.000  C
  H69      1.0000 0.86040  0.86340  0.32180  Biso   1.000  H
  C133     1.0000 0.77360  0.89150  0.35890  Biso   1.000  C
  H70      1.0000 0.78860  0.84540  0.38960  Biso   1.000  H
  C134     1.0000 0.84160  0.98530  0.22875  Biso   1.000  C
  C135     1.0000 0.83350  0.08940  0.19230  Biso   1.000  C
  H71      1.0000 0.79750  0.14910  0.19430  Biso   1.000  H
  C136     1.0000 0.87750  0.10590  0.15374  Biso   1.000  C
  H72      1.0000 0.87160  0.17820  0.13080  Biso   1.000  H
  C137     1.0000 0.93110  0.01570  0.14821  Biso   1.000  C
  C138     1.0000 0.93600  0.91240  0.18380  Biso   1.000  C
  H73      1.0000 0.97110  0.85080  0.18140  Biso   1.000  H
  C139     1.0000 0.89260  0.89360  0.22290  Biso   1.000  C
  H74      1.0000 0.89770  0.81980  0.24500  Biso   1.000  H
  C140     1.0000 0.98130  0.03660  0.10852  Biso   1.000  C
  C141     1.0000 0.99800  0.16440  0.09157  Biso   1.000  C
  H75      1.0000 0.97660  0.23810  0.10490  Biso   1.000  H
  C142     1.0000 0.04610  0.18270  0.05509  Biso   1.000  C
  C143     1.0000 0.07970  0.07410  0.03749  Biso   1.000  C
  H76      1.0000 0.11420  0.08660  0.01510  Biso   1.000  H
  C144     1.0000 0.06360  0.94610  0.05232  Biso   1.000  C
  C145     1.0000 0.01490  0.92810  0.08816  Biso   1.000  C
  H77      1.0000 0.00450  0.84240  0.09880  Biso   1.000  H
  C146     1.0000 0.05990  0.31990  0.03544  Biso   1.000  C
  C147     1.0000 0.09930  0.82930  0.02976  Biso   1.000  C
  Cd8      1.0000 0.08928  0.45130  0.48369  Biso   1.000  Cd
  O43      1.0000 0.18891  0.39280  0.44280  Biso   1.000  O
  O44      1.0000 0.10674  0.48750  0.39424  Biso   1.000  O
  O45      1.0000 0.52415  0.91680  0.04768  Biso   1.000  O
  O46      1.0000 0.60823  0.83250  0.00662  Biso   1.000  O
  O47      1.0000 0.57473  0.21760  0.03538  Biso   1.000  O
  O48      1.0000 0.65180  0.35620  0.00677  Biso   1.000  O
  C148     1.0000 0.16590  0.44020  0.39936  Biso   1.000  C
  C149     1.0000 0.20900  0.44800  0.35408  Biso   1.000  C
  C150     1.0000 0.18640  0.51480  0.30831  Biso   1.000  C
  H78      1.0000 0.14270  0.55250  0.30440  Biso   1.000  H
  C151     1.0000 0.22920  0.52520  0.26830  Biso   1.000  C
  H79      1.0000 0.21340  0.56970  0.23730  Biso   1.000  H
  C152     1.0000 0.29540  0.47140  0.27246  Biso   1.000  C
  C153     1.0000 0.31710  0.40250  0.31810  Biso   1.000  C
  H80      1.0000 0.36040  0.36340  0.32180  Biso   1.000  H
  C154     1.0000 0.27360  0.39150  0.35890  Biso   1.000  C
  H81      1.0000 0.28860  0.34540  0.38960  Biso   1.000  H
  C155     1.0000 0.34160  0.48530  0.22875  Biso   1.000  C
  C156     1.0000 0.33350  0.58940  0.19230  Biso   1.000  C
  H82      1.0000 0.29750  0.64910  0.19430  Biso   1.000  H
  C157     1.0000 0.37750  0.60590  0.15374  Biso   1.000  C
  H83      1.0000 0.37160  0.67820  0.13080  Biso   1.000  H
  C158     1.0000 0.43110  0.51570  0.14821  Biso   1.000  C
  C159     1.0000 0.43600  0.41240  0.18380  Biso   1.000  C
  H84      1.0000 0.47110  0.35080  0.18140  Biso   1.000  H
  C160     1.0000 0.39260  0.39360  0.22290  Biso   1.000  C
  H85      1.0000 0.39770  0.31980  0.24500  Biso   1.000  H
  C161     1.0000 0.48130  0.53660  0.10852  Biso   1.000  C
  C162     1.0000 0.49800  0.66440  0.09157  Biso   1.000  C
  H86      1.0000 0.47660  0.73810  0.10490  Biso   1.000  H
  C163     1.0000 0.54610  0.68270  0.05509  Biso   1.000  C
  C164     1.0000 0.57970  0.57410  0.03749  Biso   1.000  C
  H87      1.0000 0.61420  0.58660  0.01510  Biso   1.000  H
  C165     1.0000 0.56360  0.44610  0.05232  Biso   1.000  C
  C166     1.0000 0.51490  0.42810  0.08816  Biso   1.000  C
  H88      1.0000 0.50450  0.34240  0.09880  Biso   1.000  H
  C167     1.0000 0.55990  0.81990  0.03544  Biso   1.000  C
  C168     1.0000 0.59930  0.32930  0.02976  Biso   1.000  C
  Cd9      1.0000 0.75000  0.25000  0.00000  Biso   1.000  Cd
  Cd10     1.0000 0.25000  0.25000  0.50000  Biso   1.000  Cd
  Cd11     1.0000 0.25000  0.75000  0.00000  Biso   1.000  Cd
  Cd12     1.0000 0.75000  0.75000  0.50000  Biso   1.000  Cd
