data_image0
_cell_length_a       43.52
_cell_length_b       12.546
_cell_length_c       21.894
_cell_angle_alpha    90
_cell_angle_beta     105.053
_cell_angle_gamma    90

_symmetry_space_group_name_H-M    "P 1"
_symmetry_int_tables_number       1

loop_
  _symmetry_equiv_pos_as_xyz
  'x, y, z'

loop_
  _atom_site_label
  _atom_site_occupancy
  _atom_site_fract_x
  _atom_site_fract_y
  _atom_site_fract_z
  _atom_site_thermal_displace_type
  _atom_site_B_iso_or_equiv
  _atom_site_type_symbol
  Ag1      1.0000 0.20464  0.88650  0.31717  Biso   1.000  Ag
  Ag2      1.0000 0.05220  0.65590  0.18960  Biso   1.000  Ag
  N1       1.0000 0.16350  0.78200  0.26360  Biso   1.000  N
  C1       1.0000 0.14550  0.80300  0.20810  Biso   1.000  C
  H1       1.0000 0.15380  0.84360  0.18060  Biso   1.000  H
  C2       1.0000 0.14970  0.72500  0.29390  Biso   1.000  C
  H2       1.0000 0.16050  0.70390  0.33450  Biso   1.000  H
  N2       1.0000 0.10180  0.72000  0.22340  Biso   1.000  N
  C3       1.0000 0.03200  0.41700  0.21170  Biso   1.000  C
  H3       1.0000 0.04890  0.41940  0.24790  Biso   1.000  H
  N3       1.0000 0.02500  0.50700  0.18170  Biso   1.000  N
  C4       1.0000 0.12160  0.69400  0.27200  Biso   1.000  C
  H4       1.0000 0.11470  0.64290  0.29630  Biso   1.000  H
  C5       1.0000 0.01730  0.31400  0.19650  Biso   1.000  C
  H5       1.0000 0.02470  0.25640  0.22270  Biso   1.000  H
  C6       1.0000 0.98470  0.40400  0.11440  Biso   1.000  C
  H6       1.0000 0.96690  0.40540  0.08010  Biso   1.000  H
  C7       1.0000 0.11360  0.76800  0.18700  Biso   1.000  C
  H7       1.0000 0.10180  0.78160  0.14580  Biso   1.000  H
  C8       1.0000 0.99940  0.49900  0.13000  Biso   1.000  C
  H8       1.0000 0.99230  0.55860  0.10480  Biso   1.000  H
  N4       1.0000 0.99270  0.30200  0.14390  Biso   1.000  N
  N5       1.0000 0.73480  0.40900  0.23670  Biso   1.000  N
  C9       1.0000 0.74010  0.30400  0.21040  Biso   1.000  C
  H9       1.0000 0.72800  0.24440  0.21480  Biso   1.000  H
  C10      1.0000 0.76480  0.29700  0.17780  Biso   1.000  C
  H10      1.0000 0.77120  0.23250  0.16480  Biso   1.000  H
  N6       1.0000 0.77910  0.39600  0.16620  Biso   1.000  N
  C11      1.0000 0.75010  0.49700  0.22660  Biso   1.000  C
  H11      1.0000 0.74580  0.56410  0.24090  Biso   1.000  H
  C12      1.0000 0.77510  0.48000  0.19020  Biso   1.000  C
  H12      1.0000 0.78800  0.53760  0.18610  Biso   1.000  H
  Ag3      1.0000 0.30920  0.13050  0.59642  Biso   1.000  Ag
  Ag4      1.0000 0.46558  0.34070  0.60932  Biso   1.000  Ag
  N7       1.0000 0.26340  0.08200  0.51160  Biso   1.000  N
  N8       1.0000 0.35020  0.22300  0.58490  Biso   1.000  N
  C13      1.0000 0.22970  0.93800  0.46590  Biso   1.000  C
  H13      1.0000 0.22050  0.87410  0.47320  Biso   1.000  H
  C14      1.0000 0.36520  0.28500  0.62510  Biso   1.000  C
  H14      1.0000 0.35480  0.31110  0.65420  Biso   1.000  H
  C15      1.0000 0.39520  0.31900  0.63120  Biso   1.000  C
  H15      1.0000 0.40290  0.37270  0.66070  Biso   1.000  H
  C16      1.0000 0.24720  0.00300  0.51890  Biso   1.000  C
  H16      1.0000 0.24630  0.98440  0.55960  Biso   1.000  H
  C17      1.0000 0.37080  0.19300  0.55340  Biso   1.000  C
  H17      1.0000 0.36360  0.13660  0.52560  Biso   1.000  H
  C18      1.0000 0.24370  0.05700  0.40100  Biso   1.000  C
  H18      1.0000 0.24300  0.08340  0.36140  Biso   1.000  H
  N9       1.0000 0.41430  0.28300  0.59820  Biso   1.000  N
  C19      1.0000 0.48790  0.68400  0.66910  Biso   1.000  C
  H19      1.0000 0.47830  0.73340  0.68950  Biso   1.000  H
  C20      1.0000 0.47320  0.58300  0.65680  Biso   1.000  C
  H20      1.0000 0.45500  0.56800  0.67030  Biso   1.000  H
  N10      1.0000 0.22690  0.97100  0.40600  Biso   1.000  N
  N11      1.0000 0.48540  0.50600  0.62530  Biso   1.000  N
  C21      1.0000 0.50870  0.53800  0.60200  Biso   1.000  C
  H21      1.0000 0.51550  0.49230  0.57480  Biso   1.000  H
  C22      1.0000 0.26300  0.11000  0.45580  Biso   1.000  C
  H22      1.0000 0.27570  0.16690  0.45000  Biso   1.000  H
  N12      1.0000 0.51420  0.71400  0.65410  Biso   1.000  N
  C23      1.0000 0.40120  0.22800  0.55400  Biso   1.000  C
  H23      1.0000 0.41080  0.21070  0.52160  Biso   1.000  H
  C24      1.0000 0.52420  0.63900  0.61600  Biso   1.000  C
  H24      1.0000 0.54120  0.65570  0.59940  Biso   1.000  H
  Ag5      1.0000 0.80920  0.36950  0.09642  Biso   1.000  Ag
  Ag6      1.0000 0.96558  0.15930  0.10932  Biso   1.000  Ag
  N13      1.0000 0.76340  0.41800  0.01160  Biso   1.000  N
  N14      1.0000 0.85020  0.27700  0.08490  Biso   1.000  N
  C25      1.0000 0.72970  0.56200  0.96590  Biso   1.000  C
  H25      1.0000 0.72050  0.62590  0.97320  Biso   1.000  H
  C26      1.0000 0.86520  0.21500  0.12510  Biso   1.000  C
  H26      1.0000 0.85480  0.18890  0.15420  Biso   1.000  H
  C27      1.0000 0.89520  0.18100  0.13120  Biso   1.000  C
  H27      1.0000 0.90290  0.12730  0.16070  Biso   1.000  H
  C28      1.0000 0.74720  0.49700  0.01890  Biso   1.000  C
  H28      1.0000 0.74630  0.51560  0.05960  Biso   1.000  H
  C29      1.0000 0.87080  0.30700  0.05340  Biso   1.000  C
  H29      1.0000 0.86360  0.36340  0.02560  Biso   1.000  H
  C30      1.0000 0.74370  0.44300  0.90100  Biso   1.000  C
  H30      1.0000 0.74300  0.41660  0.86140  Biso   1.000  H
  N15      1.0000 0.91430  0.21700  0.09820  Biso   1.000  N
  C31      1.0000 0.98790  0.81600  0.16910  Biso   1.000  C
  H31      1.0000 0.97830  0.76660  0.18950  Biso   1.000  H
  C32      1.0000 0.97320  0.91700  0.15680  Biso   1.000  C
  H32      1.0000 0.95500  0.93200  0.17030  Biso   1.000  H
  N16      1.0000 0.72690  0.52900  0.90600  Biso   1.000  N
  N17      1.0000 0.98540  0.99400  0.12530  Biso   1.000  N
  C33      1.0000 0.00870  0.96200  0.10200  Biso   1.000  C
  H33      1.0000 0.01550  0.00770  0.07480  Biso   1.000  H
  C34      1.0000 0.76300  0.39000  0.95580  Biso   1.000  C
  H34      1.0000 0.77570  0.33310  0.95000  Biso   1.000  H
  N18      1.0000 0.01420  0.78600  0.15410  Biso   1.000  N
  C35      1.0000 0.90120  0.27200  0.05400  Biso   1.000  C
  H35      1.0000 0.91080  0.28930  0.02160  Biso   1.000  H
  C36      1.0000 0.02420  0.86100  0.11600  Biso   1.000  C
  H36      1.0000 0.04120  0.84430  0.09940  Biso   1.000  H
  N19      1.0000 0.23480  0.09100  0.73670  Biso   1.000  N
  C37      1.0000 0.24010  0.19600  0.71040  Biso   1.000  C
  H37      1.0000 0.22800  0.25560  0.71480  Biso   1.000  H
  C38      1.0000 0.26480  0.20300  0.67780  Biso   1.000  C
  H38      1.0000 0.27120  0.26750  0.66480  Biso   1.000  H
  N20      1.0000 0.27910  0.10400  0.66620  Biso   1.000  N
  C39      1.0000 0.25010  0.00300  0.72660  Biso   1.000  C
  H39      1.0000 0.24580  0.93590  0.74090  Biso   1.000  H
  C40      1.0000 0.27510  0.02000  0.69020  Biso   1.000  C
  H40      1.0000 0.28800  0.96240  0.68610  Biso   1.000  H
  Ag7      1.0000 0.70464  0.61350  0.81717  Biso   1.000  Ag
  Ag8      1.0000 0.55220  0.84410  0.68960  Biso   1.000  Ag
  N21      1.0000 0.66350  0.71800  0.76360  Biso   1.000  N
  C41      1.0000 0.64550  0.69700  0.70810  Biso   1.000  C
  H41      1.0000 0.65380  0.65640  0.68060  Biso   1.000  H
  C42      1.0000 0.64970  0.77500  0.79390  Biso   1.000  C
  H42      1.0000 0.66050  0.79610  0.83450  Biso   1.000  H
  N22      1.0000 0.60180  0.78000  0.72340  Biso   1.000  N
  C43      1.0000 0.53200  0.08300  0.71170  Biso   1.000  C
  H43      1.0000 0.54890  0.08060  0.74790  Biso   1.000  H
  N23      1.0000 0.52500  0.99300  0.68170  Biso   1.000  N
  C44      1.0000 0.62160  0.80600  0.77200  Biso   1.000  C
  H44      1.0000 0.61470  0.85710  0.79630  Biso   1.000  H
  C45      1.0000 0.51730  0.18600  0.69650  Biso   1.000  C
  H45      1.0000 0.52470  0.24360  0.72270  Biso   1.000  H
  C46      1.0000 0.48470  0.09600  0.61440  Biso   1.000  C
  H46      1.0000 0.46690  0.09460  0.58010  Biso   1.000  H
  C47      1.0000 0.61360  0.73200  0.68700  Biso   1.000  C
  H47      1.0000 0.60180  0.71840  0.64580  Biso   1.000  H
  C48      1.0000 0.49940  0.00100  0.63000  Biso   1.000  C
  H48      1.0000 0.49230  0.94140  0.60480  Biso   1.000  H
  N24      1.0000 0.49270  0.19800  0.64390  Biso   1.000  N
  Ag9      1.0000 0.19080  0.63050  0.90358  Biso   1.000  Ag
  Ag10     1.0000 0.03442  0.84070  0.89068  Biso   1.000  Ag
  N25      1.0000 0.23660  0.58200  0.98840  Biso   1.000  N
  N26      1.0000 0.14980  0.72300  0.91510  Biso   1.000  N
  C49      1.0000 0.27030  0.43800  0.03410  Biso   1.000  C
  H49      1.0000 0.27950  0.37410  0.02680  Biso   1.000  H
  C50      1.0000 0.13480  0.78500  0.87490  Biso   1.000  C
  H50      1.0000 0.14520  0.81110  0.84580  Biso   1.000  H
  C51      1.0000 0.10480  0.81900  0.86880  Biso   1.000  C
  H51      1.0000 0.09710  0.87270  0.83930  Biso   1.000  H
  C52      1.0000 0.25280  0.50300  0.98110  Biso   1.000  C
  H52      1.0000 0.25370  0.48440  0.94040  Biso   1.000  H
  C53      1.0000 0.12920  0.69300  0.94660  Biso   1.000  C
  H53      1.0000 0.13640  0.63660  0.97440  Biso   1.000  H
  C54      1.0000 0.25630  0.55700  0.09900  Biso   1.000  C
  H54      1.0000 0.25700  0.58340  0.13860  Biso   1.000  H
  N27      1.0000 0.08570  0.78300  0.90180  Biso   1.000  N
  C55      1.0000 0.01210  0.18400  0.83090  Biso   1.000  C
  H55      1.0000 0.02170  0.23340  0.81050  Biso   1.000  H
  C56      1.0000 0.02680  0.08300  0.84320  Biso   1.000  C
  H56      1.0000 0.04500  0.06800  0.82970  Biso   1.000  H
  N28      1.0000 0.27310  0.47100  0.09400  Biso   1.000  N
  N29      1.0000 0.01460  0.00600  0.87470  Biso   1.000  N
  C57      1.0000 0.99130  0.03800  0.89800  Biso   1.000  C
  H57      1.0000 0.98450  0.99230  0.92520  Biso   1.000  H
  C58      1.0000 0.23700  0.61000  0.04420  Biso   1.000  C
  H58      1.0000 0.22430  0.66690  0.05000  Biso   1.000  H
  N30      1.0000 0.98580  0.21400  0.84590  Biso   1.000  N
  C59      1.0000 0.09880  0.72800  0.94600  Biso   1.000  C
  H59      1.0000 0.08920  0.71070  0.97840  Biso   1.000  H
  C60      1.0000 0.97580  0.13900  0.88400  Biso   1.000  C
  H60      1.0000 0.95880  0.15570  0.90060  Biso   1.000  H
  N31      1.0000 0.76520  0.90900  0.26330  Biso   1.000  N
  C61      1.0000 0.75990  0.80400  0.28960  Biso   1.000  C
  H61      1.0000 0.77200  0.74440  0.28520  Biso   1.000  H
  C62      1.0000 0.73520  0.79700  0.32220  Biso   1.000  C
  H62      1.0000 0.72880  0.73250  0.33520  Biso   1.000  H
  N32      1.0000 0.72090  0.89600  0.33380  Biso   1.000  N
  C63      1.0000 0.74990  0.99700  0.27340  Biso   1.000  C
  H63      1.0000 0.75420  0.06410  0.25910  Biso   1.000  H
  C64      1.0000 0.72490  0.98000  0.30980  Biso   1.000  C
  H64      1.0000 0.71200  0.03760  0.31390  Biso   1.000  H
  Ag11     1.0000 0.29536  0.38650  0.18283  Biso   1.000  Ag
  Ag12     1.0000 0.44780  0.15590  0.31040  Biso   1.000  Ag
  N33      1.0000 0.33650  0.28200  0.23640  Biso   1.000  N
  C65      1.0000 0.35450  0.30300  0.29190  Biso   1.000  C
  H65      1.0000 0.34620  0.34360  0.31940  Biso   1.000  H
  C66      1.0000 0.35030  0.22500  0.20610  Biso   1.000  C
  H66      1.0000 0.33950  0.20390  0.16550  Biso   1.000  H
  N34      1.0000 0.39820  0.22000  0.27660  Biso   1.000  N
  C67      1.0000 0.46800  0.91700  0.28830  Biso   1.000  C
  H67      1.0000 0.45110  0.91940  0.25210  Biso   1.000  H
  N35      1.0000 0.47500  0.00700  0.31830  Biso   1.000  N
  C68      1.0000 0.37840  0.19400  0.22800  Biso   1.000  C
  H68      1.0000 0.38530  0.14290  0.20370  Biso   1.000  H
  C69      1.0000 0.48270  0.81400  0.30350  Biso   1.000  C
  H69      1.0000 0.47530  0.75640  0.27730  Biso   1.000  H
  C70      1.0000 0.51530  0.90400  0.38560  Biso   1.000  C
  H70      1.0000 0.53310  0.90540  0.41990  Biso   1.000  H
  C71      1.0000 0.38640  0.26800  0.31300  Biso   1.000  C
  H71      1.0000 0.39820  0.28160  0.35420  Biso   1.000  H
  C72      1.0000 0.50060  0.99900  0.37000  Biso   1.000  C
  H72      1.0000 0.50770  0.05860  0.39520  Biso   1.000  H
  N36      1.0000 0.50730  0.80200  0.35610  Biso   1.000  N
  Ag13     1.0000 0.79536  0.11350  0.68283  Biso   1.000  Ag
  Ag14     1.0000 0.94780  0.34410  0.81040  Biso   1.000  Ag
  N37      1.0000 0.83650  0.21800  0.73640  Biso   1.000  N
  C73      1.0000 0.85450  0.19700  0.79190  Biso   1.000  C
  H73      1.0000 0.84620  0.15640  0.81940  Biso   1.000  H
  C74      1.0000 0.85030  0.27500  0.70610  Biso   1.000  C
  H74      1.0000 0.83950  0.29610  0.66550  Biso   1.000  H
  N38      1.0000 0.89820  0.28000  0.77660  Biso   1.000  N
  C75      1.0000 0.96800  0.58300  0.78830  Biso   1.000  C
  H75      1.0000 0.95110  0.58060  0.75210  Biso   1.000  H
  N39      1.0000 0.97500  0.49300  0.81830  Biso   1.000  N
  C76      1.0000 0.87840  0.30600  0.72800  Biso   1.000  C
  H76      1.0000 0.88530  0.35710  0.70370  Biso   1.000  H
  C77      1.0000 0.98270  0.68600  0.80350  Biso   1.000  C
  H77      1.0000 0.97530  0.74360  0.77730  Biso   1.000  H
  C78      1.0000 0.01530  0.59600  0.88560  Biso   1.000  C
  H78      1.0000 0.03310  0.59460  0.91990  Biso   1.000  H
  C79      1.0000 0.88640  0.23200  0.81300  Biso   1.000  C
  H79      1.0000 0.89820  0.21840  0.85420  Biso   1.000  H
  C80      1.0000 0.00060  0.50100  0.87000  Biso   1.000  C
  H80      1.0000 0.00770  0.44140  0.89520  Biso   1.000  H
  N40      1.0000 0.00730  0.69800  0.85610  Biso   1.000  N
  N41      1.0000 0.26520  0.59100  0.76330  Biso   1.000  N
  C81      1.0000 0.25990  0.69600  0.78960  Biso   1.000  C
  H81      1.0000 0.27200  0.75560  0.78520  Biso   1.000  H
  C82      1.0000 0.23520  0.70300  0.82220  Biso   1.000  C
  H82      1.0000 0.22880  0.76750  0.83520  Biso   1.000  H
  N42      1.0000 0.22090  0.60400  0.83380  Biso   1.000  N
  C83      1.0000 0.24990  0.50300  0.77340  Biso   1.000  C
  H83      1.0000 0.25420  0.43590  0.75910  Biso   1.000  H
  C84      1.0000 0.22490  0.52000  0.80980  Biso   1.000  C
  H84      1.0000 0.21200  0.46240  0.81390  Biso   1.000  H
  Ag15     1.0000 0.69080  0.86950  0.40358  Biso   1.000  Ag
  Ag16     1.0000 0.53442  0.65930  0.39068  Biso   1.000  Ag
  N43      1.0000 0.73660  0.91800  0.48840  Biso   1.000  N
  N44      1.0000 0.64980  0.77700  0.41510  Biso   1.000  N
  C85      1.0000 0.77030  0.06200  0.53410  Biso   1.000  C
  H85      1.0000 0.77950  0.12590  0.52680  Biso   1.000  H
  C86      1.0000 0.63480  0.71500  0.37490  Biso   1.000  C
  H86      1.0000 0.64520  0.68890  0.34580  Biso   1.000  H
  C87      1.0000 0.60480  0.68100  0.36880  Biso   1.000  C
  H87      1.0000 0.59710  0.62730  0.33930  Biso   1.000  H
  C88      1.0000 0.75280  0.99700  0.48110  Biso   1.000  C
  H88      1.0000 0.75370  0.01560  0.44040  Biso   1.000  H
  C89      1.0000 0.62920  0.80700  0.44660  Biso   1.000  C
  H89      1.0000 0.63640  0.86340  0.47440  Biso   1.000  H
  C90      1.0000 0.75630  0.94300  0.59900  Biso   1.000  C
  H90      1.0000 0.75700  0.91660  0.63860  Biso   1.000  H
  N45      1.0000 0.58570  0.71700  0.40180  Biso   1.000  N
  C91      1.0000 0.51210  0.31600  0.33090  Biso   1.000  C
  H91      1.0000 0.52170  0.26660  0.31050  Biso   1.000  H
  C92      1.0000 0.52680  0.41700  0.34320  Biso   1.000  C
  H92      1.0000 0.54500  0.43200  0.32970  Biso   1.000  H
  N46      1.0000 0.77310  0.02900  0.59400  Biso   1.000  N
  N47      1.0000 0.51460  0.49400  0.37470  Biso   1.000  N
  C93      1.0000 0.49130  0.46200  0.39800  Biso   1.000  C
  H93      1.0000 0.48450  0.50770  0.42520  Biso   1.000  H
  C94      1.0000 0.73700  0.89000  0.54420  Biso   1.000  C
  H94      1.0000 0.72430  0.83310  0.55000  Biso   1.000  H
  N48      1.0000 0.48580  0.28600  0.34590  Biso   1.000  N
  C95      1.0000 0.59880  0.77200  0.44600  Biso   1.000  C
  H95      1.0000 0.58920  0.78930  0.47840  Biso   1.000  H
  C96      1.0000 0.47580  0.36100  0.38400  Biso   1.000  C
  H96      1.0000 0.45880  0.34430  0.40060  Biso   1.000  H
  N49      1.0000 0.23480  0.90900  0.23670  Biso   1.000  N
  C97      1.0000 0.24010  0.80400  0.21040  Biso   1.000  C
  H97      1.0000 0.22800  0.74440  0.21480  Biso   1.000  H
  C98      1.0000 0.26480  0.79700  0.17780  Biso   1.000  C
  H98      1.0000 0.27120  0.73250  0.16480  Biso   1.000  H
  N50      1.0000 0.27910  0.89600  0.16620  Biso   1.000  N
  C99      1.0000 0.25010  0.99700  0.22660  Biso   1.000  C
  H99      1.0000 0.24580  0.06410  0.24090  Biso   1.000  H
  C100     1.0000 0.27510  0.98000  0.19020  Biso   1.000  C
  H100     1.0000 0.28800  0.03760  0.18610  Biso   1.000  H
  Ag17     1.0000 0.70464  0.38650  0.31717  Biso   1.000  Ag
  Ag18     1.0000 0.55220  0.15590  0.18960  Biso   1.000  Ag
  N51      1.0000 0.66350  0.28200  0.26360  Biso   1.000  N
  C101     1.0000 0.64550  0.30300  0.20810  Biso   1.000  C
  H101     1.0000 0.65380  0.34360  0.18060  Biso   1.000  H
  C102     1.0000 0.64970  0.22500  0.29390  Biso   1.000  C
  H102     1.0000 0.66050  0.20390  0.33450  Biso   1.000  H
  N52      1.0000 0.60180  0.22000  0.22340  Biso   1.000  N
  C103     1.0000 0.53200  0.91700  0.21170  Biso   1.000  C
  H103     1.0000 0.54890  0.91940  0.24790  Biso   1.000  H
  N53      1.0000 0.52500  0.00700  0.18170  Biso   1.000  N
  C104     1.0000 0.62160  0.19400  0.27200  Biso   1.000  C
  H104     1.0000 0.61470  0.14290  0.29630  Biso   1.000  H
  C105     1.0000 0.51730  0.81400  0.19650  Biso   1.000  C
  H105     1.0000 0.52470  0.75640  0.22270  Biso   1.000  H
  C106     1.0000 0.48470  0.90400  0.11440  Biso   1.000  C
  H106     1.0000 0.46690  0.90540  0.08010  Biso   1.000  H
  C107     1.0000 0.61360  0.26800  0.18700  Biso   1.000  C
  H107     1.0000 0.60180  0.28160  0.14580  Biso   1.000  H
  C108     1.0000 0.49940  0.99900  0.13000  Biso   1.000  C
  H108     1.0000 0.49230  0.05860  0.10480  Biso   1.000  H
  N54      1.0000 0.49270  0.80200  0.14390  Biso   1.000  N
  Ag19     1.0000 0.80920  0.63050  0.59642  Biso   1.000  Ag
  Ag20     1.0000 0.96558  0.84070  0.60932  Biso   1.000  Ag
  N55      1.0000 0.76340  0.58200  0.51160  Biso   1.000  N
  N56      1.0000 0.85020  0.72300  0.58490  Biso   1.000  N
  C109     1.0000 0.72970  0.43800  0.46590  Biso   1.000  C
  H109     1.0000 0.72050  0.37410  0.47320  Biso   1.000  H
  C110     1.0000 0.86520  0.78500  0.62510  Biso   1.000  C
  H110     1.0000 0.85480  0.81110  0.65420  Biso   1.000  H
  C111     1.0000 0.89520  0.81900  0.63120  Biso   1.000  C
  H111     1.0000 0.90290  0.87270  0.66070  Biso   1.000  H
  C112     1.0000 0.74720  0.50300  0.51890  Biso   1.000  C
  H112     1.0000 0.74630  0.48440  0.55960  Biso   1.000  H
  C113     1.0000 0.87080  0.69300  0.55340  Biso   1.000  C
  H113     1.0000 0.86360  0.63660  0.52560  Biso   1.000  H
  C114     1.0000 0.74370  0.55700  0.40100  Biso   1.000  C
  H114     1.0000 0.74300  0.58340  0.36140  Biso   1.000  H
  N57      1.0000 0.91430  0.78300  0.59820  Biso   1.000  N
  C115     1.0000 0.98790  0.18400  0.66910  Biso   1.000  C
  H115     1.0000 0.97830  0.23340  0.68950  Biso   1.000  H
  C116     1.0000 0.97320  0.08300  0.65680  Biso   1.000  C
  H116     1.0000 0.95500  0.06800  0.67030  Biso   1.000  H
  N58      1.0000 0.72690  0.47100  0.40600  Biso   1.000  N
  N59      1.0000 0.98540  0.00600  0.62530  Biso   1.000  N
  C117     1.0000 0.00870  0.03800  0.60200  Biso   1.000  C
  H117     1.0000 0.01550  0.99230  0.57480  Biso   1.000  H
  C118     1.0000 0.76300  0.61000  0.45580  Biso   1.000  C
  H118     1.0000 0.77570  0.66690  0.45000  Biso   1.000  H
  N60      1.0000 0.01420  0.21400  0.65410  Biso   1.000  N
  C119     1.0000 0.90120  0.72800  0.55400  Biso   1.000  C
  H119     1.0000 0.91080  0.71070  0.52160  Biso   1.000  H
  C120     1.0000 0.02420  0.13900  0.61600  Biso   1.000  C
  H120     1.0000 0.04120  0.15570  0.59940  Biso   1.000  H
  Ag21     1.0000 0.30920  0.86950  0.09642  Biso   1.000  Ag
  Ag22     1.0000 0.46558  0.65930  0.10932  Biso   1.000  Ag
  N61      1.0000 0.26340  0.91800  0.01160  Biso   1.000  N
  N62      1.0000 0.35020  0.77700  0.08490  Biso   1.000  N
  C121     1.0000 0.22970  0.06200  0.96590  Biso   1.000  C
  H121     1.0000 0.22050  0.12590  0.97320  Biso   1.000  H
  C122     1.0000 0.36520  0.71500  0.12510  Biso   1.000  C
  H122     1.0000 0.35480  0.68890  0.15420  Biso   1.000  H
  C123     1.0000 0.39520  0.68100  0.13120  Biso   1.000  C
  H123     1.0000 0.40290  0.62730  0.16070  Biso   1.000  H
  C124     1.0000 0.24720  0.99700  0.01890  Biso   1.000  C
  H124     1.0000 0.24630  0.01560  0.05960  Biso   1.000  H
  C125     1.0000 0.37080  0.80700  0.05340  Biso   1.000  C
  H125     1.0000 0.36360  0.86340  0.02560  Biso   1.000  H
  C126     1.0000 0.24370  0.94300  0.90100  Biso   1.000  C
  H126     1.0000 0.24300  0.91660  0.86140  Biso   1.000  H
  N63      1.0000 0.41430  0.71700  0.09820  Biso   1.000  N
  C127     1.0000 0.48790  0.31600  0.16910  Biso   1.000  C
  H127     1.0000 0.47830  0.26660  0.18950  Biso   1.000  H
  C128     1.0000 0.47320  0.41700  0.15680  Biso   1.000  C
  H128     1.0000 0.45500  0.43200  0.17030  Biso   1.000  H
  N64      1.0000 0.22690  0.02900  0.90600  Biso   1.000  N
  N65      1.0000 0.48540  0.49400  0.12530  Biso   1.000  N
  C129     1.0000 0.50870  0.46200  0.10200  Biso   1.000  C
  H129     1.0000 0.51550  0.50770  0.07480  Biso   1.000  H
  C130     1.0000 0.26300  0.89000  0.95580  Biso   1.000  C
  H130     1.0000 0.27570  0.83310  0.95000  Biso   1.000  H
  N66      1.0000 0.51420  0.28600  0.15410  Biso   1.000  N
  C131     1.0000 0.40120  0.77200  0.05400  Biso   1.000  C
  H131     1.0000 0.41080  0.78930  0.02160  Biso   1.000  H
  C132     1.0000 0.52420  0.36100  0.11600  Biso   1.000  C
  H132     1.0000 0.54120  0.34430  0.09940  Biso   1.000  H
  Ag23     1.0000 0.20464  0.11350  0.81717  Biso   1.000  Ag
  Ag24     1.0000 0.05220  0.34410  0.68960  Biso   1.000  Ag
  N67      1.0000 0.16350  0.21800  0.76360  Biso   1.000  N
  C133     1.0000 0.14550  0.19700  0.70810  Biso   1.000  C
  H133     1.0000 0.15380  0.15640  0.68060  Biso   1.000  H
  C134     1.0000 0.14970  0.27500  0.79390  Biso   1.000  C
  H134     1.0000 0.16050  0.29610  0.83450  Biso   1.000  H
  N68      1.0000 0.10180  0.28000  0.72340  Biso   1.000  N
  C135     1.0000 0.03200  0.58300  0.71170  Biso   1.000  C
  H135     1.0000 0.04890  0.58060  0.74790  Biso   1.000  H
  N69      1.0000 0.02500  0.49300  0.68170  Biso   1.000  N
  C136     1.0000 0.12160  0.30600  0.77200  Biso   1.000  C
  H136     1.0000 0.11470  0.35710  0.79630  Biso   1.000  H
  C137     1.0000 0.01730  0.68600  0.69650  Biso   1.000  C
  H137     1.0000 0.02470  0.74360  0.72270  Biso   1.000  H
  C138     1.0000 0.98470  0.59600  0.61440  Biso   1.000  C
  H138     1.0000 0.96690  0.59460  0.58010  Biso   1.000  H
  C139     1.0000 0.11360  0.23200  0.68700  Biso   1.000  C
  H139     1.0000 0.10180  0.21840  0.64580  Biso   1.000  H
  C140     1.0000 0.99940  0.50100  0.63000  Biso   1.000  C
  H140     1.0000 0.99230  0.44140  0.60480  Biso   1.000  H
  N70      1.0000 0.99270  0.69800  0.64390  Biso   1.000  N
  N71      1.0000 0.73480  0.59100  0.73670  Biso   1.000  N
  C141     1.0000 0.74010  0.69600  0.71040  Biso   1.000  C
  H141     1.0000 0.72800  0.75560  0.71480  Biso   1.000  H
  C142     1.0000 0.76480  0.70300  0.67780  Biso   1.000  C
  H142     1.0000 0.77120  0.76750  0.66480  Biso   1.000  H
  N72      1.0000 0.77910  0.60400  0.66620  Biso   1.000  N
  C143     1.0000 0.75010  0.50300  0.72660  Biso   1.000  C
  H143     1.0000 0.74580  0.43590  0.74090  Biso   1.000  H
  C144     1.0000 0.77510  0.52000  0.69020  Biso   1.000  C
  H144     1.0000 0.78800  0.46240  0.68610  Biso   1.000  H
  Ag25     1.0000 0.69080  0.13050  0.90358  Biso   1.000  Ag
  Ag26     1.0000 0.53442  0.34070  0.89068  Biso   1.000  Ag
  N73      1.0000 0.73660  0.08200  0.98840  Biso   1.000  N
  N74      1.0000 0.64980  0.22300  0.91510  Biso   1.000  N
  C145     1.0000 0.77030  0.93800  0.03410  Biso   1.000  C
  H145     1.0000 0.77950  0.87410  0.02680  Biso   1.000  H
  C146     1.0000 0.63480  0.28500  0.87490  Biso   1.000  C
  H146     1.0000 0.64520  0.31110  0.84580  Biso   1.000  H
  C147     1.0000 0.60480  0.31900  0.86880  Biso   1.000  C
  H147     1.0000 0.59710  0.37270  0.83930  Biso   1.000  H
  C148     1.0000 0.75280  0.00300  0.98110  Biso   1.000  C
  H148     1.0000 0.75370  0.98440  0.94040  Biso   1.000  H
  C149     1.0000 0.62920  0.19300  0.94660  Biso   1.000  C
  H149     1.0000 0.63640  0.13660  0.97440  Biso   1.000  H
  C150     1.0000 0.75630  0.05700  0.09900  Biso   1.000  C
  H150     1.0000 0.75700  0.08340  0.13860  Biso   1.000  H
  N75      1.0000 0.58570  0.28300  0.90180  Biso   1.000  N
  C151     1.0000 0.51210  0.68400  0.83090  Biso   1.000  C
  H151     1.0000 0.52170  0.73340  0.81050  Biso   1.000  H
  C152     1.0000 0.52680  0.58300  0.84320  Biso   1.000  C
  H152     1.0000 0.54500  0.56800  0.82970  Biso   1.000  H
  N76      1.0000 0.77310  0.97100  0.09400  Biso   1.000  N
  N77      1.0000 0.51460  0.50600  0.87470  Biso   1.000  N
  C153     1.0000 0.49130  0.53800  0.89800  Biso   1.000  C
  H153     1.0000 0.48450  0.49230  0.92520  Biso   1.000  H
  C154     1.0000 0.73700  0.11000  0.04420  Biso   1.000  C
  H154     1.0000 0.72430  0.16690  0.05000  Biso   1.000  H
  N78      1.0000 0.48580  0.71400  0.84590  Biso   1.000  N
  C155     1.0000 0.59880  0.22800  0.94600  Biso   1.000  C
  H155     1.0000 0.58920  0.21070  0.97840  Biso   1.000  H
  C156     1.0000 0.47580  0.63900  0.88400  Biso   1.000  C
  H156     1.0000 0.45880  0.65570  0.90060  Biso   1.000  H
  Ag27     1.0000 0.79536  0.88650  0.18283  Biso   1.000  Ag
  Ag28     1.0000 0.94780  0.65590  0.31040  Biso   1.000  Ag
  N79      1.0000 0.83650  0.78200  0.23640  Biso   1.000  N
  C157     1.0000 0.85450  0.80300  0.29190  Biso   1.000  C
  H157     1.0000 0.84620  0.84360  0.31940  Biso   1.000  H
  C158     1.0000 0.85030  0.72500  0.20610  Biso   1.000  C
  H158     1.0000 0.83950  0.70390  0.16550  Biso   1.000  H
  N80      1.0000 0.89820  0.72000  0.27660  Biso   1.000  N
  C159     1.0000 0.96800  0.41700  0.28830  Biso   1.000  C
  H159     1.0000 0.95110  0.41940  0.25210  Biso   1.000  H
  N81      1.0000 0.97500  0.50700  0.31830  Biso   1.000  N
  C160     1.0000 0.87840  0.69400  0.22800  Biso   1.000  C
  H160     1.0000 0.88530  0.64290  0.20370  Biso   1.000  H
  C161     1.0000 0.98270  0.31400  0.30350  Biso   1.000  C
  H161     1.0000 0.97530  0.25640  0.27730  Biso   1.000  H
  C162     1.0000 0.01530  0.40400  0.38560  Biso   1.000  C
  H162     1.0000 0.03310  0.40540  0.41990  Biso   1.000  H
  C163     1.0000 0.88640  0.76800  0.31300  Biso   1.000  C
  H163     1.0000 0.89820  0.78160  0.35420  Biso   1.000  H
  C164     1.0000 0.00060  0.49900  0.37000  Biso   1.000  C
  H164     1.0000 0.00770  0.55860  0.39520  Biso   1.000  H
  N82      1.0000 0.00730  0.30200  0.35610  Biso   1.000  N
  N83      1.0000 0.26520  0.40900  0.26330  Biso   1.000  N
  C165     1.0000 0.25990  0.30400  0.28960  Biso   1.000  C
  H165     1.0000 0.27200  0.24440  0.28520  Biso   1.000  H
  C166     1.0000 0.23520  0.29700  0.32220  Biso   1.000  C
  H166     1.0000 0.22880  0.23250  0.33520  Biso   1.000  H
  N84      1.0000 0.22090  0.39600  0.33380  Biso   1.000  N
  C167     1.0000 0.24990  0.49700  0.27340  Biso   1.000  C
  H167     1.0000 0.25420  0.56410  0.25910  Biso   1.000  H
  C168     1.0000 0.22490  0.48000  0.30980  Biso   1.000  C
  H168     1.0000 0.21200  0.53760  0.31390  Biso   1.000  H
  N85      1.0000 0.76520  0.09100  0.76330  Biso   1.000  N
  C169     1.0000 0.75990  0.19600  0.78960  Biso   1.000  C
  H169     1.0000 0.77200  0.25560  0.78520  Biso   1.000  H
  C170     1.0000 0.73520  0.20300  0.82220  Biso   1.000  C
  H170     1.0000 0.72880  0.26750  0.83520  Biso   1.000  H
  N86      1.0000 0.72090  0.10400  0.83380  Biso   1.000  N
  C171     1.0000 0.74990  0.00300  0.77340  Biso   1.000  C
  H171     1.0000 0.75420  0.93590  0.75910  Biso   1.000  H
  C172     1.0000 0.72490  0.02000  0.80980  Biso   1.000  C
  H172     1.0000 0.71200  0.96240  0.81390  Biso   1.000  H
  Ag29     1.0000 0.29536  0.61350  0.68283  Biso   1.000  Ag
  Ag30     1.0000 0.44780  0.84410  0.81040  Biso   1.000  Ag
  N87      1.0000 0.33650  0.71800  0.73640  Biso   1.000  N
  C173     1.0000 0.35450  0.69700  0.79190  Biso   1.000  C
  H173     1.0000 0.34620  0.65640  0.81940  Biso   1.000  H
  C174     1.0000 0.35030  0.77500  0.70610  Biso   1.000  C
  H174     1.0000 0.33950  0.79610  0.66550  Biso   1.000  H
  N88      1.0000 0.39820  0.78000  0.77660  Biso   1.000  N
  C175     1.0000 0.46800  0.08300  0.78830  Biso   1.000  C
  H175     1.0000 0.45110  0.08060  0.75210  Biso   1.000  H
  N89      1.0000 0.47500  0.99300  0.81830  Biso   1.000  N
  C176     1.0000 0.37840  0.80600  0.72800  Biso   1.000  C
  H176     1.0000 0.38530  0.85710  0.70370  Biso   1.000  H
  C177     1.0000 0.48270  0.18600  0.80350  Biso   1.000  C
  H177     1.0000 0.47530  0.24360  0.77730  Biso   1.000  H
  C178     1.0000 0.51530  0.09600  0.88560  Biso   1.000  C
  H178     1.0000 0.53310  0.09460  0.91990  Biso   1.000  H
  C179     1.0000 0.38640  0.73200  0.81300  Biso   1.000  C
  H179     1.0000 0.39820  0.71840  0.85420  Biso   1.000  H
  C180     1.0000 0.50060  0.00100  0.87000  Biso   1.000  C
  H180     1.0000 0.50770  0.94140  0.89520  Biso   1.000  H
  N90      1.0000 0.50730  0.19800  0.85610  Biso   1.000  N
  Ag31     1.0000 0.19080  0.36950  0.40358  Biso   1.000  Ag
  Ag32     1.0000 0.03442  0.15930  0.39068  Biso   1.000  Ag
  N91      1.0000 0.23660  0.41800  0.48840  Biso   1.000  N
  N92      1.0000 0.14980  0.27700  0.41510  Biso   1.000  N
  C181     1.0000 0.27030  0.56200  0.53410  Biso   1.000  C
  H181     1.0000 0.27950  0.62590  0.52680  Biso   1.000  H
  C182     1.0000 0.13480  0.21500  0.37490  Biso   1.000  C
  H182     1.0000 0.14520  0.18890  0.34580  Biso   1.000  H
  C183     1.0000 0.10480  0.18100  0.36880  Biso   1.000  C
  H183     1.0000 0.09710  0.12730  0.33930  Biso   1.000  H
  C184     1.0000 0.25280  0.49700  0.48110  Biso   1.000  C
  H184     1.0000 0.25370  0.51560  0.44040  Biso   1.000  H
  C185     1.0000 0.12920  0.30700  0.44660  Biso   1.000  C
  H185     1.0000 0.13640  0.36340  0.47440  Biso   1.000  H
  C186     1.0000 0.25630  0.44300  0.59900  Biso   1.000  C
  H186     1.0000 0.25700  0.41660  0.63860  Biso   1.000  H
  N93      1.0000 0.08570  0.21700  0.40180  Biso   1.000  N
  C187     1.0000 0.01210  0.81600  0.33090  Biso   1.000  C
  H187     1.0000 0.02170  0.76660  0.31050  Biso   1.000  H
  C188     1.0000 0.02680  0.91700  0.34320  Biso   1.000  C
  H188     1.0000 0.04500  0.93200  0.32970  Biso   1.000  H
  N94      1.0000 0.27310  0.52900  0.59400  Biso   1.000  N
  N95      1.0000 0.01460  0.99400  0.37470  Biso   1.000  N
  C189     1.0000 0.99130  0.96200  0.39800  Biso   1.000  C
  H189     1.0000 0.98450  0.00770  0.42520  Biso   1.000  H
  C190     1.0000 0.23700  0.39000  0.54420  Biso   1.000  C
  H190     1.0000 0.22430  0.33310  0.55000  Biso   1.000  H
  N96      1.0000 0.98580  0.78600  0.34590  Biso   1.000  N
  C191     1.0000 0.09880  0.27200  0.44600  Biso   1.000  C
  H191     1.0000 0.08920  0.28930  0.47840  Biso   1.000  H
  C192     1.0000 0.97580  0.86100  0.38400  Biso   1.000  C
  H192     1.0000 0.95880  0.84430  0.40060  Biso   1.000  H
