data_image0
_cell_length_a       19.702
_cell_length_b       18.1181
_cell_length_c       14.3185
_cell_angle_alpha    90
_cell_angle_beta     97.583
_cell_angle_gamma    90

_symmetry_space_group_name_H-M    "P 1"
_symmetry_int_tables_number       1

loop_
  _symmetry_equiv_pos_as_xyz
  'x, y, z'

loop_
  _atom_site_label
  _atom_site_occupancy
  _atom_site_fract_x
  _atom_site_fract_y
  _atom_site_fract_z
  _atom_site_thermal_displace_type
  _atom_site_B_iso_or_equiv
  _atom_site_type_symbol
  Mn1      1.0000 0.24780  0.85554  0.05781  Biso   1.000  Mn
  Mn2      1.0000 0.29284  0.85659  0.39312  Biso   1.000  Mn
  Mn3      1.0000 0.27325  0.99025  0.22796  Biso   1.000  Mn
  C1       1.0000 0.82600  0.98060  0.91110  Biso   1.000  C
  C2       1.0000 0.88400  0.96200  0.98580  Biso   1.000  C
  C3       1.0000 0.90720  0.01310  0.05370  Biso   1.000  C
  H1       1.0000 0.88580  0.05870  0.05510  Biso   1.000  H
  C4       1.0000 0.91630  0.89390  0.98470  Biso   1.000  C
  H2       1.0000 0.90180  0.85960  0.93810  Biso   1.000  H
  C5       1.0000 0.96320  0.99600  0.12040  Biso   1.000  C
  H3       1.0000 0.97980  0.03060  0.16560  Biso   1.000  H
  C6       1.0000 0.97030  0.87790  0.05360  Biso   1.000  C
  H4       1.0000 0.99100  0.83170  0.05500  Biso   1.000  H
  C7       1.0000 0.99300  0.92950  0.11920  Biso   1.000  C
  C8       1.0000 0.04870  0.86010  0.24790  Biso   1.000  C
  C9       1.0000 0.98840  0.84130  0.28210  Biso   1.000  C
  H5       1.0000 0.94750  0.86490  0.26020  Biso   1.000  H
  C10      1.0000 0.11110  0.82720  0.28180  Biso   1.000  C
  C11      1.0000 0.17330  0.85170  0.23690  Biso   1.000  C
  C12      1.0000 0.99070  0.78610  0.35030  Biso   1.000  C
  H6       1.0000 0.95060  0.77120  0.37260  Biso   1.000  H
  C13      1.0000 0.11180  0.77430  0.35210  Biso   1.000  C
  C14      1.0000 0.17720  0.73670  0.39350  Biso   1.000  C
  C15      1.0000 0.05150  0.75410  0.38430  Biso   1.000  C
  H7       1.0000 0.05230  0.71770  0.43030  Biso   1.000  H
  C16      1.0000 0.66570  0.97260  0.60000  Biso   1.000  C
  C17      1.0000 0.62170  0.95550  0.51210  Biso   1.000  C
  C18      1.0000 0.58060  0.00830  0.46510  Biso   1.000  C
  H8       1.0000 0.58180  0.05630  0.48830  Biso   1.000  H
  C19      1.0000 0.61910  0.88310  0.47500  Biso   1.000  C
  H9       1.0000 0.64770  0.84660  0.50400  Biso   1.000  H
  C20      1.0000 0.53780  0.99170  0.38450  Biso   1.000  C
  H10      1.0000 0.51060  0.02840  0.35350  Biso   1.000  H
  C21      1.0000 0.57350  0.86650  0.39440  Biso   1.000  C
  H11      1.0000 0.56970  0.81830  0.37180  Biso   1.000  H
  C22      1.0000 0.53480  0.92120  0.34920  Biso   1.000  C
  C23      1.0000 0.49160  0.85250  0.20990  Biso   1.000  C
  C24      1.0000 0.55190  0.83210  0.17820  Biso   1.000  C
  H12      1.0000 0.59310  0.85420  0.20240  Biso   1.000  H
  C25      1.0000 0.42900  0.82200  0.17320  Biso   1.000  C
  C26      1.0000 0.36670  0.84710  0.21480  Biso   1.000  C
  C27      1.0000 0.55010  0.77840  0.11000  Biso   1.000  C
  H13      1.0000 0.59050  0.76370  0.08860  Biso   1.000  H
  C28      1.0000 0.42890  0.76860  0.10190  Biso   1.000  C
  C29      1.0000 0.36280  0.73380  0.05730  Biso   1.000  C
  C30      1.0000 0.48970  0.74610  0.07330  Biso   1.000  C
  H14      1.0000 0.48960  0.70880  0.02870  Biso   1.000  H
  O1       1.0000 0.78900  0.03510  0.92390  Biso   1.000  O
  O2       1.0000 0.81380  0.94190  0.83830  Biso   1.000  O
  O3       1.0000 0.05130  0.91660  0.18330  Biso   1.000  O
  O4       1.0000 0.18230  0.82240  0.16180  Biso   1.000  O
  O5       1.0000 0.20918  0.90300  0.27970  Biso   1.000  O
  O6       1.0000 0.23355  0.76000  0.36940  Biso   1.000  O
  O7       1.0000 0.17180  0.68560  0.45210  Biso   1.000  O
  O8       1.0000 0.70320  0.92650  0.64450  Biso   1.000  O
  O9       1.0000 0.66470  0.03750  0.63320  Biso   1.000  O
  O10      1.0000 0.48720  0.91160  0.27090  Biso   1.000  O
  O11      1.0000 0.35656  0.81920  0.28930  Biso   1.000  O
  O12      1.0000 0.33151  0.89880  0.17140  Biso   1.000  O
  O13      1.0000 0.30703  0.75780  0.08020  Biso   1.000  O
  O14      1.0000 0.36810  0.68410  0.99850  Biso   1.000  O
  Mn4      1.0000 0.75220  0.35554  0.44219  Biso   1.000  Mn
  Mn5      1.0000 0.70716  0.35659  0.10688  Biso   1.000  Mn
  Mn6      1.0000 0.72675  0.49025  0.27204  Biso   1.000  Mn
  C31      1.0000 0.17400  0.48060  0.58890  Biso   1.000  C
  C32      1.0000 0.11600  0.46200  0.51420  Biso   1.000  C
  C33      1.0000 0.09280  0.51310  0.44630  Biso   1.000  C
  H15      1.0000 0.11420  0.55870  0.44490  Biso   1.000  H
  C34      1.0000 0.08370  0.39390  0.51530  Biso   1.000  C
  H16      1.0000 0.09820  0.35960  0.56190  Biso   1.000  H
  C35      1.0000 0.03680  0.49600  0.37960  Biso   1.000  C
  H17      1.0000 0.02020  0.53060  0.33440  Biso   1.000  H
  C36      1.0000 0.02970  0.37790  0.44640  Biso   1.000  C
  H18      1.0000 0.00900  0.33170  0.44500  Biso   1.000  H
  C37      1.0000 0.00700  0.42950  0.38080  Biso   1.000  C
  C38      1.0000 0.95130  0.36010  0.25210  Biso   1.000  C
  C39      1.0000 0.01160  0.34130  0.21790  Biso   1.000  C
  H19      1.0000 0.05250  0.36490  0.23980  Biso   1.000  H
  C40      1.0000 0.88890  0.32720  0.21820  Biso   1.000  C
  C41      1.0000 0.82670  0.35170  0.26310  Biso   1.000  C
  C42      1.0000 0.00930  0.28610  0.14970  Biso   1.000  C
  H20      1.0000 0.04940  0.27120  0.12740  Biso   1.000  H
  C43      1.0000 0.88820  0.27430  0.14790  Biso   1.000  C
  C44      1.0000 0.82280  0.23670  0.10650  Biso   1.000  C
  C45      1.0000 0.94850  0.25410  0.11570  Biso   1.000  C
  H21      1.0000 0.94770  0.21770  0.06970  Biso   1.000  H
  C46      1.0000 0.33430  0.47260  0.90000  Biso   1.000  C
  C47      1.0000 0.37830  0.45550  0.98790  Biso   1.000  C
  C48      1.0000 0.41940  0.50830  0.03490  Biso   1.000  C
  H22      1.0000 0.41820  0.55630  0.01170  Biso   1.000  H
  C49      1.0000 0.38090  0.38310  0.02500  Biso   1.000  C
  H23      1.0000 0.35230  0.34660  0.99600  Biso   1.000  H
  C50      1.0000 0.46220  0.49170  0.11550  Biso   1.000  C
  H24      1.0000 0.48940  0.52840  0.14650  Biso   1.000  H
  C51      1.0000 0.42650  0.36650  0.10560  Biso   1.000  C
  H25      1.0000 0.43030  0.31830  0.12820  Biso   1.000  H
  C52      1.0000 0.46520  0.42120  0.15080  Biso   1.000  C
  C53      1.0000 0.50840  0.35250  0.29010  Biso   1.000  C
  C54      1.0000 0.44810  0.33210  0.32180  Biso   1.000  C
  H26      1.0000 0.40690  0.35420  0.29760  Biso   1.000  H
  C55      1.0000 0.57100  0.32200  0.32680  Biso   1.000  C
  C56      1.0000 0.63330  0.34710  0.28520  Biso   1.000  C
  C57      1.0000 0.44990  0.27840  0.39000  Biso   1.000  C
  H27      1.0000 0.40950  0.26370  0.41140  Biso   1.000  H
  C58      1.0000 0.57110  0.26860  0.39810  Biso   1.000  C
  C59      1.0000 0.63720  0.23380  0.44270  Biso   1.000  C
  C60      1.0000 0.51030  0.24610  0.42670  Biso   1.000  C
  H28      1.0000 0.51040  0.20880  0.47130  Biso   1.000  H
  O15      1.0000 0.21100  0.53510  0.57610  Biso   1.000  O
  O16      1.0000 0.18620  0.44190  0.66170  Biso   1.000  O
  O17      1.0000 0.94870  0.41660  0.31670  Biso   1.000  O
  O18      1.0000 0.81770  0.32240  0.33820  Biso   1.000  O
  O19      1.0000 0.79082  0.40300  0.22030  Biso   1.000  O
  O20      1.0000 0.76645  0.26000  0.13060  Biso   1.000  O
  O21      1.0000 0.82820  0.18560  0.04790  Biso   1.000  O
  O22      1.0000 0.29680  0.42650  0.85550  Biso   1.000  O
  O23      1.0000 0.33530  0.53750  0.86680  Biso   1.000  O
  O24      1.0000 0.51280  0.41160  0.22910  Biso   1.000  O
  O25      1.0000 0.64344  0.31920  0.21070  Biso   1.000  O
  O26      1.0000 0.66849  0.39880  0.32860  Biso   1.000  O
  O27      1.0000 0.69297  0.25780  0.41980  Biso   1.000  O
  O28      1.0000 0.63190  0.18410  0.50150  Biso   1.000  O
  Mn7      1.0000 0.75220  0.14446  0.94219  Biso   1.000  Mn
  Mn8      1.0000 0.70716  0.14341  0.60688  Biso   1.000  Mn
  Mn9      1.0000 0.72675  0.00975  0.77204  Biso   1.000  Mn
  C61      1.0000 0.17400  0.01940  0.08890  Biso   1.000  C
  C62      1.0000 0.11600  0.03800  0.01420  Biso   1.000  C
  C63      1.0000 0.09280  0.98690  0.94630  Biso   1.000  C
  H29      1.0000 0.11420  0.94130  0.94490  Biso   1.000  H
  C64      1.0000 0.08370  0.10610  0.01530  Biso   1.000  C
  H30      1.0000 0.09820  0.14040  0.06190  Biso   1.000  H
  C65      1.0000 0.03680  0.00400  0.87960  Biso   1.000  C
  H31      1.0000 0.02020  0.96940  0.83440  Biso   1.000  H
  C66      1.0000 0.02970  0.12210  0.94640  Biso   1.000  C
  H32      1.0000 0.00900  0.16830  0.94500  Biso   1.000  H
  C67      1.0000 0.00700  0.07050  0.88080  Biso   1.000  C
  C68      1.0000 0.95130  0.13990  0.75210  Biso   1.000  C
  C69      1.0000 0.01160  0.15870  0.71790  Biso   1.000  C
  H33      1.0000 0.05250  0.13510  0.73980  Biso   1.000  H
  C70      1.0000 0.88890  0.17280  0.71820  Biso   1.000  C
  C71      1.0000 0.82670  0.14830  0.76310  Biso   1.000  C
  C72      1.0000 0.00930  0.21390  0.64970  Biso   1.000  C
  H34      1.0000 0.04940  0.22880  0.62740  Biso   1.000  H
  C73      1.0000 0.88820  0.22570  0.64790  Biso   1.000  C
  C74      1.0000 0.82280  0.26330  0.60650  Biso   1.000  C
  C75      1.0000 0.94850  0.24590  0.61570  Biso   1.000  C
  H35      1.0000 0.94770  0.28230  0.56970  Biso   1.000  H
  C76      1.0000 0.33430  0.02740  0.40000  Biso   1.000  C
  C77      1.0000 0.37830  0.04450  0.48790  Biso   1.000  C
  C78      1.0000 0.41940  0.99170  0.53490  Biso   1.000  C
  H36      1.0000 0.41820  0.94370  0.51170  Biso   1.000  H
  C79      1.0000 0.38090  0.11690  0.52500  Biso   1.000  C
  H37      1.0000 0.35230  0.15340  0.49600  Biso   1.000  H
  C80      1.0000 0.46220  0.00830  0.61550  Biso   1.000  C
  H38      1.0000 0.48940  0.97160  0.64650  Biso   1.000  H
  C81      1.0000 0.42650  0.13350  0.60560  Biso   1.000  C
  H39      1.0000 0.43030  0.18170  0.62820  Biso   1.000  H
  C82      1.0000 0.46520  0.07880  0.65080  Biso   1.000  C
  C83      1.0000 0.50840  0.14750  0.79010  Biso   1.000  C
  C84      1.0000 0.44810  0.16790  0.82180  Biso   1.000  C
  H40      1.0000 0.40690  0.14580  0.79760  Biso   1.000  H
  C85      1.0000 0.57100  0.17800  0.82680  Biso   1.000  C
  C86      1.0000 0.63330  0.15290  0.78520  Biso   1.000  C
  C87      1.0000 0.44990  0.22160  0.89000  Biso   1.000  C
  H41      1.0000 0.40950  0.23630  0.91140  Biso   1.000  H
  C88      1.0000 0.57110  0.23140  0.89810  Biso   1.000  C
  C89      1.0000 0.63720  0.26620  0.94270  Biso   1.000  C
  C90      1.0000 0.51030  0.25390  0.92670  Biso   1.000  C
  H42      1.0000 0.51040  0.29120  0.97130  Biso   1.000  H
  O29      1.0000 0.21100  0.96490  0.07610  Biso   1.000  O
  O30      1.0000 0.18620  0.05810  0.16170  Biso   1.000  O
  O31      1.0000 0.94870  0.08340  0.81670  Biso   1.000  O
  O32      1.0000 0.81770  0.17760  0.83820  Biso   1.000  O
  O33      1.0000 0.79082  0.09700  0.72030  Biso   1.000  O
  O34      1.0000 0.76645  0.24000  0.63060  Biso   1.000  O
  O35      1.0000 0.82820  0.31440  0.54790  Biso   1.000  O
  O36      1.0000 0.29680  0.07350  0.35550  Biso   1.000  O
  O37      1.0000 0.33530  0.96250  0.36680  Biso   1.000  O
  O38      1.0000 0.51280  0.08840  0.72910  Biso   1.000  O
  O39      1.0000 0.64344  0.18080  0.71070  Biso   1.000  O
  O40      1.0000 0.66849  0.10120  0.82860  Biso   1.000  O
  O41      1.0000 0.69297  0.24220  0.91980  Biso   1.000  O
  O42      1.0000 0.63190  0.31590  0.00150  Biso   1.000  O
  Mn10     1.0000 0.24780  0.64446  0.55781  Biso   1.000  Mn
  Mn11     1.0000 0.29284  0.64341  0.89312  Biso   1.000  Mn
  Mn12     1.0000 0.27325  0.50975  0.72796  Biso   1.000  Mn
  C91      1.0000 0.82600  0.51940  0.41110  Biso   1.000  C
  C92      1.0000 0.88400  0.53800  0.48580  Biso   1.000  C
  C93      1.0000 0.90720  0.48690  0.55370  Biso   1.000  C
  H43      1.0000 0.88580  0.44130  0.55510  Biso   1.000  H
  C94      1.0000 0.91630  0.60610  0.48470  Biso   1.000  C
  H44      1.0000 0.90180  0.64040  0.43810  Biso   1.000  H
  C95      1.0000 0.96320  0.50400  0.62040  Biso   1.000  C
  H45      1.0000 0.97980  0.46940  0.66560  Biso   1.000  H
  C96      1.0000 0.97030  0.62210  0.55360  Biso   1.000  C
  H46      1.0000 0.99100  0.66830  0.55500  Biso   1.000  H
  C97      1.0000 0.99300  0.57050  0.61920  Biso   1.000  C
  C98      1.0000 0.04870  0.63990  0.74790  Biso   1.000  C
  C99      1.0000 0.98840  0.65870  0.78210  Biso   1.000  C
  H47      1.0000 0.94750  0.63510  0.76020  Biso   1.000  H
  C100     1.0000 0.11110  0.67280  0.78180  Biso   1.000  C
  C101     1.0000 0.17330  0.64830  0.73690  Biso   1.000  C
  C102     1.0000 0.99070  0.71390  0.85030  Biso   1.000  C
  H48      1.0000 0.95060  0.72880  0.87260  Biso   1.000  H
  C103     1.0000 0.11180  0.72570  0.85210  Biso   1.000  C
  C104     1.0000 0.17720  0.76330  0.89350  Biso   1.000  C
  C105     1.0000 0.05150  0.74590  0.88430  Biso   1.000  C
  H49      1.0000 0.05230  0.78230  0.93030  Biso   1.000  H
  C106     1.0000 0.66570  0.52740  0.10000  Biso   1.000  C
  C107     1.0000 0.62170  0.54450  0.01210  Biso   1.000  C
  C108     1.0000 0.58060  0.49170  0.96510  Biso   1.000  C
  H50      1.0000 0.58180  0.44370  0.98830  Biso   1.000  H
  C109     1.0000 0.61910  0.61690  0.97500  Biso   1.000  C
  H51      1.0000 0.64770  0.65340  0.00400  Biso   1.000  H
  C110     1.0000 0.53780  0.50830  0.88450  Biso   1.000  C
  H52      1.0000 0.51060  0.47160  0.85350  Biso   1.000  H
  C111     1.0000 0.57350  0.63350  0.89440  Biso   1.000  C
  H53      1.0000 0.56970  0.68170  0.87180  Biso   1.000  H
  C112     1.0000 0.53480  0.57880  0.84920  Biso   1.000  C
  C113     1.0000 0.49160  0.64750  0.70990  Biso   1.000  C
  C114     1.0000 0.55190  0.66790  0.67820  Biso   1.000  C
  H54      1.0000 0.59310  0.64580  0.70240  Biso   1.000  H
  C115     1.0000 0.42900  0.67800  0.67320  Biso   1.000  C
  C116     1.0000 0.36670  0.65290  0.71480  Biso   1.000  C
  C117     1.0000 0.55010  0.72160  0.61000  Biso   1.000  C
  H55      1.0000 0.59050  0.73630  0.58860  Biso   1.000  H
  C118     1.0000 0.42890  0.73140  0.60190  Biso   1.000  C
  C119     1.0000 0.36280  0.76620  0.55730  Biso   1.000  C
  C120     1.0000 0.48970  0.75390  0.57330  Biso   1.000  C
  H56      1.0000 0.48960  0.79120  0.52870  Biso   1.000  H
  O43      1.0000 0.78900  0.46490  0.42390  Biso   1.000  O
  O44      1.0000 0.81380  0.55810  0.33830  Biso   1.000  O
  O45      1.0000 0.05130  0.58340  0.68330  Biso   1.000  O
  O46      1.0000 0.18230  0.67760  0.66180  Biso   1.000  O
  O47      1.0000 0.20918  0.59700  0.77970  Biso   1.000  O
  O48      1.0000 0.23355  0.74000  0.86940  Biso   1.000  O
  O49      1.0000 0.17180  0.81440  0.95210  Biso   1.000  O
  O50      1.0000 0.70320  0.57350  0.14450  Biso   1.000  O
  O51      1.0000 0.66470  0.46250  0.13320  Biso   1.000  O
  O52      1.0000 0.48720  0.58840  0.77090  Biso   1.000  O
  O53      1.0000 0.35656  0.68080  0.78930  Biso   1.000  O
  O54      1.0000 0.33151  0.60120  0.67140  Biso   1.000  O
  O55      1.0000 0.30703  0.74220  0.58020  Biso   1.000  O
  O56      1.0000 0.36810  0.81590  0.49850  Biso   1.000  O
