data_image0
_cell_length_a       9.3228
_cell_length_b       11.252
_cell_length_c       18.825
_cell_angle_alpha    79.409
_cell_angle_beta     79.479
_cell_angle_gamma    66.275

_symmetry_space_group_name_H-M    "P 1"
_symmetry_int_tables_number       1

loop_
  _symmetry_equiv_pos_as_xyz
  'x, y, z'

loop_
  _atom_site_label
  _atom_site_occupancy
  _atom_site_fract_x
  _atom_site_fract_y
  _atom_site_fract_z
  _atom_site_thermal_displace_type
  _atom_site_B_iso_or_equiv
  _atom_site_type_symbol
  Ni1      1.0000 0.60585  0.31314  0.21663  Biso   1.000  Ni
  O1       1.0000 0.51880  0.27310  0.13380  Biso   1.000  O
  O2       1.0000 0.15350  0.41200  0.57770  Biso   1.000  O
  N1       1.0000 0.43240  0.50910  0.21280  Biso   1.000  N
  N2       1.0000 0.00140  0.68370  0.50300  Biso   1.000  N
  N3       1.0000 0.74880  0.38600  0.13600  Biso   1.000  N
  O3       1.0000 0.50030  0.33870  0.56420  Biso   1.000  O
  N4       1.0000 0.78820  0.12180  0.21830  Biso   1.000  N
  C1       1.0000 0.00030  0.93340  0.50070  Biso   1.000  C
  O4       1.0000 0.80540  0.53880  0.58160  Biso   1.000  O
  O5       1.0000 0.48410  0.15290  0.55040  Biso   1.000  O
  C2       1.0000 0.96200  0.92730  0.28080  Biso   1.000  C
  H1       1.0000 0.99050  0.87770  0.32500  Biso   1.000  H
  C3       1.0000 0.42230  0.11380  0.78690  Biso   1.000  C
  H2       1.0000 0.48250  0.04480  0.81810  Biso   1.000  H
  C4       1.0000 0.44670  0.23620  0.00140  Biso   1.000  C
  H3       1.0000 0.52610  0.26750  0.99870  Biso   1.000  H
  C5       1.0000 0.40750  0.23140  0.13840  Biso   1.000  C
  C6       1.0000 0.46160  0.24280  0.58670  Biso   1.000  C
  C7       1.0000 0.99250  0.96090  0.15150  Biso   1.000  C
  H4       1.0000 0.04260  0.93450  0.10640  Biso   1.000  H
  C8       1.0000 0.21670  0.68010  0.15830  Biso   1.000  C
  H5       1.0000 0.15780  0.71190  0.11920  Biso   1.000  H
  O6       1.0000 0.32430  0.21120  0.19600  Biso   1.000  O
  C9       1.0000 0.39080  0.22990  0.66540  Biso   1.000  C
  C10      1.0000 0.04690  0.88200  0.21590  Biso   1.000  C
  C11      1.0000 0.24110  0.31630  0.69310  Biso   1.000  C
  C12      1.0000 0.73790  0.40020  0.06490  Biso   1.000  C
  H6       1.0000 0.66150  0.37860  0.05100  Biso   1.000  H
  O7       1.0000 0.21540  0.17630  0.88380  Biso   1.000  O
  C13      1.0000 0.37450  0.20580  0.06860  Biso   1.000  C
  C14      1.0000 0.18090  0.75360  0.21520  Biso   1.000  C
  C15      1.0000 0.13220  0.70190  0.50150  Biso   1.000  C
  H7       1.0000 0.22660  0.62910  0.50100  Biso   1.000  H
  C16      1.0000 0.94720  0.47670  0.02770  Biso   1.000  C
  C17      1.0000 0.86700  0.07530  0.15590  Biso   1.000  C
  H8       1.0000 0.83300  0.12530  0.11250  Biso   1.000  H
  C18      1.0000 0.47880  0.12890  0.71280  Biso   1.000  C
  H9       1.0000 0.57690  0.07020  0.69540  Biso   1.000  H
  C19      1.0000 0.13800  0.82340  0.50050  Biso   1.000  C
  H10      1.0000 0.23410  0.83070  0.49970  Biso   1.000  H
  O8       1.0000 0.00900  0.50420  0.67520  Biso   1.000  O
  C20      1.0000 0.12720  0.42020  0.64360  Biso   1.000  C
  C21      1.0000 0.83470  0.04640  0.27980  Biso   1.000  C
  H11      1.0000 0.77950  0.07480  0.32390  Biso   1.000  H
  C22      1.0000 0.28270  0.18050  0.94270  Biso   1.000  C
  C23      1.0000 0.19080  0.29880  0.76720  Biso   1.000  C
  H12      1.0000 0.09340  0.35650  0.78610  Biso   1.000  H
  C24      1.0000 0.95790  0.46610  0.10010  Biso   1.000  C
  H13      1.0000 0.03240  0.48860  0.11510  Biso   1.000  H
  C25      1.0000 0.40510  0.22170  0.93780  Biso   1.000  C
  H14      1.0000 0.45830  0.23930  0.89280  Biso   1.000  H
  C26      1.0000 0.83180  0.44460  0.01060  Biso   1.000  C
  H15      1.0000 0.81660  0.45290  0.96220  Biso   1.000  H
  C27      1.0000 0.27830  0.70420  0.26810  Biso   1.000  C
  H16      1.0000 0.26260  0.75130  0.30650  Biso   1.000  H
  C28      1.0000 0.28210  0.19830  0.81270  Biso   1.000  C
  C29      1.0000 0.33890  0.56080  0.15960  Biso   1.000  C
  H17      1.0000 0.35830  0.51250  0.12140  Biso   1.000  H
  C30      1.0000 0.25630  0.15550  0.07090  Biso   1.000  C
  H18      1.0000 0.20860  0.13060  0.11570  Biso   1.000  H
  C31      1.0000 0.40040  0.58390  0.26460  Biso   1.000  C
  H19      1.0000 0.46530  0.55310  0.30150  Biso   1.000  H
  C32      1.0000 0.86480  0.91380  0.50340  Biso   1.000  C
  H20      1.0000 0.76830  0.98430  0.50590  Biso   1.000  H
  C33      1.0000 0.85690  0.42150  0.15170  Biso   1.000  C
  H21      1.0000 0.86650  0.41650  0.20060  Biso   1.000  H
  C34      1.0000 0.21130  0.14310  0.00800  Biso   1.000  C
  H22      1.0000 0.13380  0.11000  0.00980  Biso   1.000  H
  C35      1.0000 0.86930  0.78940  0.50250  Biso   1.000  C
  H23      1.0000 0.77520  0.77980  0.50160  Biso   1.000  H
  H24      1.0000 0.86480  0.53240  0.61250  Biso   1.000  H
  H25      1.0000 0.85450  0.47700  0.55550  Biso   1.000  H
  Ni2      1.0000 0.39415  0.68686  0.78337  Biso   1.000  Ni
  O9       1.0000 0.48120  0.72690  0.86620  Biso   1.000  O
  O10      1.0000 0.84650  0.58800  0.42230  Biso   1.000  O
  N5       1.0000 0.56760  0.49090  0.78720  Biso   1.000  N
  N6       1.0000 0.99860  0.31630  0.49700  Biso   1.000  N
  N7       1.0000 0.25120  0.61400  0.86400  Biso   1.000  N
  O11      1.0000 0.49970  0.66130  0.43580  Biso   1.000  O
  N8       1.0000 0.21180  0.87820  0.78170  Biso   1.000  N
  C36      1.0000 0.99970  0.06660  0.49930  Biso   1.000  C
  O12      1.0000 0.19460  0.46120  0.41840  Biso   1.000  O
  O13      1.0000 0.51590  0.84710  0.44960  Biso   1.000  O
  C37      1.0000 0.03800  0.07270  0.71920  Biso   1.000  C
  H26      1.0000 0.00950  0.12230  0.67500  Biso   1.000  H
  C38      1.0000 0.57770  0.88620  0.21310  Biso   1.000  C
  H27      1.0000 0.51750  0.95520  0.18190  Biso   1.000  H
  C39      1.0000 0.55330  0.76380  0.99860  Biso   1.000  C
  H28      1.0000 0.47390  0.73250  0.00130  Biso   1.000  H
  C40      1.0000 0.59250  0.76860  0.86160  Biso   1.000  C
  C41      1.0000 0.53840  0.75720  0.41330  Biso   1.000  C
  C42      1.0000 0.00750  0.03910  0.84850  Biso   1.000  C
  H29      1.0000 0.95740  0.06550  0.89360  Biso   1.000  H
  C43      1.0000 0.78330  0.31990  0.84170  Biso   1.000  C
  H30      1.0000 0.84220  0.28810  0.88080  Biso   1.000  H
  O14      1.0000 0.67570  0.78880  0.80400  Biso   1.000  O
  C44      1.0000 0.60920  0.77010  0.33460  Biso   1.000  C
  C45      1.0000 0.95310  0.11800  0.78410  Biso   1.000  C
  C46      1.0000 0.75890  0.68370  0.30690  Biso   1.000  C
  C47      1.0000 0.26210  0.59980  0.93510  Biso   1.000  C
  H31      1.0000 0.33850  0.62140  0.94900  Biso   1.000  H
  O15      1.0000 0.78460  0.82370  0.11620  Biso   1.000  O
  C48      1.0000 0.62550  0.79420  0.93140  Biso   1.000  C
  C49      1.0000 0.81910  0.24640  0.78480  Biso   1.000  C
  C50      1.0000 0.86780  0.29810  0.49850  Biso   1.000  C
  H32      1.0000 0.77340  0.37090  0.49900  Biso   1.000  H
  C51      1.0000 0.05280  0.52330  0.97230  Biso   1.000  C
  C52      1.0000 0.13300  0.92470  0.84410  Biso   1.000  C
  H33      1.0000 0.16700  0.87470  0.88750  Biso   1.000  H
  C53      1.0000 0.52120  0.87110  0.28720  Biso   1.000  C
  H34      1.0000 0.42310  0.92980  0.30460  Biso   1.000  H
  C54      1.0000 0.86200  0.17660  0.49950  Biso   1.000  C
  H35      1.0000 0.76590  0.16930  0.50030  Biso   1.000  H
  O16      1.0000 0.99100  0.49580  0.32480  Biso   1.000  O
  C55      1.0000 0.87280  0.57980  0.35640  Biso   1.000  C
  C56      1.0000 0.16530  0.95360  0.72020  Biso   1.000  C
  H36      1.0000 0.22050  0.92520  0.67610  Biso   1.000  H
  C57      1.0000 0.71730  0.81950  0.05730  Biso   1.000  C
  C58      1.0000 0.80920  0.70120  0.23280  Biso   1.000  C
  H37      1.0000 0.90660  0.64350  0.21390  Biso   1.000  H
  C59      1.0000 0.04210  0.53390  0.89990  Biso   1.000  C
  H38      1.0000 0.96760  0.51140  0.88490  Biso   1.000  H
  C60      1.0000 0.59490  0.77830  0.06220  Biso   1.000  C
  H39      1.0000 0.54170  0.76070  0.10720  Biso   1.000  H
  C61      1.0000 0.16820  0.55540  0.98940  Biso   1.000  C
  H40      1.0000 0.18340  0.54710  0.03780  Biso   1.000  H
  C62      1.0000 0.72170  0.29580  0.73190  Biso   1.000  C
  H41      1.0000 0.73740  0.24870  0.69350  Biso   1.000  H
  C63      1.0000 0.71790  0.80170  0.18730  Biso   1.000  C
  C64      1.0000 0.66110  0.43920  0.84040  Biso   1.000  C
  H42      1.0000 0.64170  0.48750  0.87860  Biso   1.000  H
  C65      1.0000 0.74370  0.84450  0.92910  Biso   1.000  C
  H43      1.0000 0.79140  0.86940  0.88430  Biso   1.000  H
  C66      1.0000 0.59960  0.41610  0.73540  Biso   1.000  C
  H44      1.0000 0.53470  0.44690  0.69850  Biso   1.000  H
  C67      1.0000 0.13520  0.08620  0.49660  Biso   1.000  C
  H45      1.0000 0.23170  0.01570  0.49410  Biso   1.000  H
  C68      1.0000 0.14310  0.57850  0.84830  Biso   1.000  C
  H46      1.0000 0.13350  0.58350  0.79940  Biso   1.000  H
  C69      1.0000 0.78870  0.85690  0.99200  Biso   1.000  C
  H47      1.0000 0.86620  0.89000  0.99020  Biso   1.000  H
  C70      1.0000 0.13070  0.21060  0.49750  Biso   1.000  C
  H48      1.0000 0.22480  0.22020  0.49840  Biso   1.000  H
  H49      1.0000 0.13520  0.46760  0.38750  Biso   1.000  H
  H50      1.0000 0.14550  0.52300  0.44450  Biso   1.000  H
  Ni3      1.0000 0.00000  0.50000  0.50000  Biso   1.000  Ni
