data_image0
_cell_length_a       9.3359
_cell_length_b       11.2684
_cell_length_c       18.8508
_cell_angle_alpha    79.415
_cell_angle_beta     79.414
_cell_angle_gamma    66.27

_symmetry_space_group_name_H-M    "P 1"
_symmetry_int_tables_number       1

loop_
  _symmetry_equiv_pos_as_xyz
  'x, y, z'

loop_
  _atom_site_label
  _atom_site_occupancy
  _atom_site_fract_x
  _atom_site_fract_y
  _atom_site_fract_z
  _atom_site_thermal_displace_type
  _atom_site_B_iso_or_equiv
  _atom_site_type_symbol
  N1       1.0000 0.99880  0.31640  0.49725  Biso   1.000  N
  O1       1.0000 0.84730  0.58799  0.42149  Biso   1.000  O
  C1       1.0000 0.86780  0.29790  0.49750  Biso   1.000  C
  C2       1.0000 0.13100  0.21120  0.49700  Biso   1.000  C
  C3       1.0000 0.87380  0.57930  0.35514  Biso   1.000  C
  H1       1.0000 0.77350  0.37050  0.49690  Biso   1.000  H
  C4       1.0000 0.86280  0.17650  0.49870  Biso   1.000  C
  H2       1.0000 0.22510  0.22160  0.49640  Biso   1.000  H
  C5       1.0000 0.13650  0.08700  0.49750  Biso   1.000  C
  C6       1.0000 0.75750  0.68370  0.30725  Biso   1.000  C
  O2       1.0000 0.99170  0.49600  0.32379  Biso   1.000  O
  H3       1.0000 0.76680  0.16930  0.49930  Biso   1.000  H
  C7       1.0000 0.99960  0.06640  0.49911  Biso   1.000  C
  H4       1.0000 0.23290  0.01650  0.49670  Biso   1.000  H
  C8       1.0000 0.80850  0.70140  0.23331  Biso   1.000  C
  C9       1.0000 0.60980  0.76990  0.33441  Biso   1.000  C
  C10      1.0000 0.71560  0.80250  0.18786  Biso   1.000  C
  H5       1.0000 0.90620  0.64450  0.21440  Biso   1.000  H
  C11      1.0000 0.51960  0.87180  0.28793  Biso   1.000  C
  C12      1.0000 0.53980  0.75670  0.41323  Biso   1.000  C
  C13      1.0000 0.57390  0.88820  0.21380  Biso   1.000  C
  O3       1.0000 0.78480  0.82300  0.11635  Biso   1.000  O
  H6       1.0000 0.42190  0.92990  0.30610  Biso   1.000  H
  O4       1.0000 0.50050  0.66110  0.43562  Biso   1.000  O
  O5       1.0000 0.51610  0.84700  0.44927  Biso   1.000  O
  H7       1.0000 0.51330  0.95710  0.18290  Biso   1.000  H
  C14      1.0000 0.71800  0.81870  0.05801  Biso   1.000  C
  C15      1.0000 0.59800  0.77510  0.06265  Biso   1.000  C
  C16      1.0000 0.78720  0.85610  0.99116  Biso   1.000  C
  C17      1.0000 0.55340  0.76320  0.99816  Biso   1.000  C
  H8       1.0000 0.54780  0.75400  0.10760  Biso   1.000  H
  C18      1.0000 0.74290  0.84280  0.92821  Biso   1.000  C
  H9       1.0000 0.86370  0.89030  0.98860  Biso   1.000  H
  C19      1.0000 0.62610  0.79410  0.93101  Biso   1.000  C
  H10      1.0000 0.47260  0.73380  0.00070  Biso   1.000  H
  H11      1.0000 0.79150  0.86660  0.88340  Biso   1.000  H
  C20      1.0000 0.59150  0.76930  0.86134  Biso   1.000  C
  O6       1.0000 0.48150  0.72747  0.86606  Biso   1.000  O
  O7       1.0000 0.67440  0.78830  0.80418  Biso   1.000  O
  Ni1      1.0000 0.39383  0.68733  0.78361  Biso   1.000  Ni
  N2       1.0000 0.56870  0.49160  0.78738  Biso   1.000  N
  N3       1.0000 0.24940  0.61410  0.86419  Biso   1.000  N
  N4       1.0000 0.21300  0.87850  0.78186  Biso   1.000  N
  C21      1.0000 0.59780  0.41680  0.73554  Biso   1.000  C
  C22      1.0000 0.66160  0.44020  0.84011  Biso   1.000  C
  C23      1.0000 0.14250  0.57890  0.84791  Biso   1.000  C
  C24      1.0000 0.26200  0.60000  0.93508  Biso   1.000  C
  H12      1.0000 0.53100  0.44700  0.69960  Biso   1.000  H
  C25      1.0000 0.72050  0.29760  0.73172  Biso   1.000  C
  H13      1.0000 0.64210  0.48800  0.87850  Biso   1.000  H
  C26      1.0000 0.78480  0.32040  0.84103  Biso   1.000  C
  H14      1.0000 0.13370  0.58400  0.79900  Biso   1.000  H
  C27      1.0000 0.04180  0.53470  0.89873  Biso   1.000  C
  H15      1.0000 0.33840  0.62160  0.94880  Biso   1.000  H
  C28      1.0000 0.16730  0.55500  0.98917  Biso   1.000  C
  H16      1.0000 0.73710  0.25140  0.69280  Biso   1.000  H
  C29      1.0000 0.81930  0.24600  0.78537  Biso   1.000  C
  H17      1.0000 0.84500  0.28950  0.87960  Biso   1.000  H
  H18      1.0000 0.96710  0.51280  0.88370  Biso   1.000  H
  C30      1.0000 0.05330  0.52320  0.97174  Biso   1.000  C
  H19      1.0000 0.18180  0.54640  0.03760  Biso   1.000  H
  C31      1.0000 0.95470  0.11830  0.78386  Biso   1.000  C
  C32      1.0000 0.03870  0.07250  0.71935  Biso   1.000  C
  C33      1.0000 0.00560  0.04030  0.84783  Biso   1.000  C
  H20      1.0000 0.01030  0.12160  0.67520  Biso   1.000  H
  C34      1.0000 0.16490  0.95370  0.72056  Biso   1.000  C
  H21      1.0000 0.95360  0.06640  0.89270  Biso   1.000  H
  C35      1.0000 0.13340  0.92420  0.84393  Biso   1.000  C
  H22      1.0000 0.21900  0.92470  0.67650  Biso   1.000  H
  H23      1.0000 0.16660  0.87440  0.88730  Biso   1.000  H
  N5       1.0000 0.00120  0.68360  0.50275  Biso   1.000  N
  O8       1.0000 0.15270  0.41201  0.57851  Biso   1.000  O
  C36      1.0000 0.13220  0.70210  0.50250  Biso   1.000  C
  C37      1.0000 0.86900  0.78880  0.50300  Biso   1.000  C
  C38      1.0000 0.12620  0.42070  0.64486  Biso   1.000  C
  H24      1.0000 0.22650  0.62950  0.50310  Biso   1.000  H
  C39      1.0000 0.13720  0.82350  0.50130  Biso   1.000  C
  H25      1.0000 0.77490  0.77840  0.50360  Biso   1.000  H
  C40      1.0000 0.86350  0.91300  0.50250  Biso   1.000  C
  C41      1.0000 0.24250  0.31630  0.69275  Biso   1.000  C
  O9       1.0000 0.00830  0.50400  0.67621  Biso   1.000  O
  H26      1.0000 0.23320  0.83070  0.50070  Biso   1.000  H
  C42      1.0000 0.00040  0.93360  0.50089  Biso   1.000  C
  H27      1.0000 0.76710  0.98350  0.50330  Biso   1.000  H
  C43      1.0000 0.19150  0.29860  0.76669  Biso   1.000  C
  C44      1.0000 0.39020  0.23010  0.66559  Biso   1.000  C
  C45      1.0000 0.28440  0.19750  0.81214  Biso   1.000  C
  H28      1.0000 0.09380  0.35550  0.78560  Biso   1.000  H
  C46      1.0000 0.48040  0.12820  0.71207  Biso   1.000  C
  C47      1.0000 0.46020  0.24330  0.58677  Biso   1.000  C
  C48      1.0000 0.42610  0.11180  0.78620  Biso   1.000  C
  O10      1.0000 0.21520  0.17700  0.88365  Biso   1.000  O
  H29      1.0000 0.57810  0.07010  0.69390  Biso   1.000  H
  O11      1.0000 0.49950  0.33890  0.56438  Biso   1.000  O
  O12      1.0000 0.48390  0.15300  0.55073  Biso   1.000  O
  H30      1.0000 0.48670  0.04290  0.81710  Biso   1.000  H
  C49      1.0000 0.28200  0.18130  0.94199  Biso   1.000  C
  C50      1.0000 0.40200  0.22490  0.93735  Biso   1.000  C
  C51      1.0000 0.21280  0.14390  0.00884  Biso   1.000  C
  C52      1.0000 0.44660  0.23680  0.00184  Biso   1.000  C
  H31      1.0000 0.45220  0.24600  0.89240  Biso   1.000  H
  C53      1.0000 0.25710  0.15720  0.07179  Biso   1.000  C
  H32      1.0000 0.13630  0.10970  0.01140  Biso   1.000  H
  C54      1.0000 0.37390  0.20590  0.06899  Biso   1.000  C
  H33      1.0000 0.52740  0.26620  0.99930  Biso   1.000  H
  H34      1.0000 0.20850  0.13340  0.11660  Biso   1.000  H
  C55      1.0000 0.40850  0.23070  0.13866  Biso   1.000  C
  O13      1.0000 0.51850  0.27253  0.13394  Biso   1.000  O
  O14      1.0000 0.32560  0.21170  0.19582  Biso   1.000  O
  Ni2      1.0000 0.60617  0.31267  0.21639  Biso   1.000  Ni
  N6       1.0000 0.43130  0.50840  0.21262  Biso   1.000  N
  N7       1.0000 0.75060  0.38590  0.13581  Biso   1.000  N
  N8       1.0000 0.78700  0.12150  0.21814  Biso   1.000  N
  C56      1.0000 0.40220  0.58320  0.26446  Biso   1.000  C
  C57      1.0000 0.33840  0.55980  0.15989  Biso   1.000  C
  C58      1.0000 0.85750  0.42110  0.15209  Biso   1.000  C
  C59      1.0000 0.73800  0.40000  0.06492  Biso   1.000  C
  H35      1.0000 0.46900  0.55300  0.30040  Biso   1.000  H
  C60      1.0000 0.27950  0.70240  0.26828  Biso   1.000  C
  H36      1.0000 0.35790  0.51200  0.12150  Biso   1.000  H
  C61      1.0000 0.21520  0.67960  0.15897  Biso   1.000  C
  H37      1.0000 0.86630  0.41600  0.20100  Biso   1.000  H
  C62      1.0000 0.95820  0.46530  0.10127  Biso   1.000  C
  H38      1.0000 0.66160  0.37840  0.05120  Biso   1.000  H
  C63      1.0000 0.83270  0.44500  0.01083  Biso   1.000  C
  H39      1.0000 0.26290  0.74860  0.30720  Biso   1.000  H
  C64      1.0000 0.18070  0.75400  0.21463  Biso   1.000  C
  H40      1.0000 0.15500  0.71050  0.12040  Biso   1.000  H
  H41      1.0000 0.03290  0.48720  0.11630  Biso   1.000  H
  C65      1.0000 0.94670  0.47680  0.02826  Biso   1.000  C
  H42      1.0000 0.81820  0.45360  0.96240  Biso   1.000  H
  C66      1.0000 0.04530  0.88170  0.21614  Biso   1.000  C
  C67      1.0000 0.96130  0.92750  0.28065  Biso   1.000  C
  C68      1.0000 0.99440  0.95970  0.15217  Biso   1.000  C
  H43      1.0000 0.98970  0.87840  0.32480  Biso   1.000  H
  C69      1.0000 0.83510  0.04630  0.27944  Biso   1.000  C
  H44      1.0000 0.04640  0.93360  0.10730  Biso   1.000  H
  C70      1.0000 0.86660  0.07580  0.15607  Biso   1.000  C
  H45      1.0000 0.78100  0.07530  0.32350  Biso   1.000  H
  H46      1.0000 0.83340  0.12560  0.11270  Biso   1.000  H
  Ni3      1.0000 0.00000  0.50000  0.50000  Biso   1.000  Ni
