data_NOQKOV_clean
_audit_creation_date              2015-10-16
_audit_creation_method            'Materials Studio'
_symmetry_space_group_name_H-M    'P1'
_symmetry_Int_Tables_number       1
_symmetry_cell_setting            triclinic
loop_
_symmetry_equiv_pos_as_xyz
  x,y,z
_cell_length_a                    11.5618
_cell_length_b                    11.8493
_cell_length_c                    15.7206
_cell_angle_alpha                 76.3250
_cell_angle_beta                  71.2460
_cell_angle_gamma                 65.3300
loop_
_atom_site_label
_atom_site_type_symbol
_atom_site_fract_x
_atom_site_fract_y
_atom_site_fract_z
_atom_site_U_iso_or_equiv
_atom_site_adp_type
_atom_site_occupancy
Co1    Co    0.50000   0.50000  -0.00000   0.01267  Uiso   1.00
Co2    Co    0.00000   0.50000   0.00000   0.01267  Uiso   1.00
Co3    Co    0.00000   0.00000   0.00000   0.01267  Uiso   1.00
H1     H     0.41210   0.55190   0.20260   0.01267  Uiso   1.00
H2     H     0.95410   0.68650   0.55330   0.01267  Uiso   1.00
H3     H     0.38200   0.45090   0.34590   0.01267  Uiso   1.00
H4     H     0.32260   0.09990   0.37750   0.01267  Uiso   1.00
H5     H     0.15820   0.33790   0.14360   0.01267  Uiso   1.00
H6     H     0.29950   0.80590   0.05700   0.01267  Uiso   1.00
H7     H     0.15820   0.33120   0.29110   0.01267  Uiso   1.00
H8     H     0.12400   0.33040   0.84890   0.01267  Uiso   1.00
H9     H     0.13080   0.32630   0.70210   0.01267  Uiso   1.00
H10    H     0.90480   0.93950   0.34370   0.01267  Uiso   1.00
H11    H     0.98760   0.02130   0.80490   0.01267  Uiso   1.00
H12    H     0.45840   0.30440   0.46470   0.01267  Uiso   1.00
H13    H     0.37910   0.07710   0.74190   0.01267  Uiso   1.00
H14    H     0.01240   0.97870   0.19510   0.01267  Uiso   1.00
H15    H     0.04590   0.31350   0.44670   0.01267  Uiso   1.00
H16    H     0.61130   0.77830   0.38670   0.01267  Uiso   1.00
H17    H     0.02670   0.31370   0.59900   0.01267  Uiso   1.00
H18    H     0.48740   0.24740   0.10110   0.01267  Uiso   1.00
H19    H     0.26820   0.03410   0.88880   0.01267  Uiso   1.00
H20    H     0.67740   0.90010   0.62250   0.01267  Uiso   1.00
H21    H     0.45680   0.13920   0.24220   0.01267  Uiso   1.00
H22    H     0.84180   0.66210   0.85640   0.01267  Uiso   1.00
H23    H     0.62090   0.92290   0.25810   0.01267  Uiso   1.00
H24    H     0.09520   0.06050   0.65630   0.01267  Uiso   1.00
H25    H     0.25750   0.01570   0.52600   0.01267  Uiso   1.00
H26    H     0.73180   0.96590   0.11120   0.01267  Uiso   1.00
H27    H     0.61800   0.54910   0.65410   0.01267  Uiso   1.00
H28    H     0.51260   0.75260   0.89890   0.01267  Uiso   1.00
H29    H     0.58790   0.44810   0.79740   0.01267  Uiso   1.00
H30    H     0.54320   0.86080   0.75780   0.01267  Uiso   1.00
H31    H     0.84180   0.66880   0.70890   0.01267  Uiso   1.00
H32    H     0.87600   0.66960   0.15110   0.01267  Uiso   1.00
H33    H     0.70050   0.19410   0.94300   0.01267  Uiso   1.00
H34    H     0.97330   0.68630   0.40100   0.01267  Uiso   1.00
H35    H     0.54160   0.69560   0.53530   0.01267  Uiso   1.00
H36    H     0.86920   0.67370   0.29790   0.01267  Uiso   1.00
H37    H     0.74250   0.98430   0.47400   0.01267  Uiso   1.00
H38    H     0.38870   0.22170   0.61330   0.01267  Uiso   1.00
C1     C     0.27100   0.49700   0.96500   0.01267  Uiso   1.00
C2     C     0.22920   0.62390   0.99350   0.01267  Uiso   1.00
C3     C     0.70160   0.93380   0.24680   0.01267  Uiso   1.00
C4     C     0.75160   0.92380   0.31880   0.01267  Uiso   1.00
C5     C     0.93450   0.59940   0.17990   0.01267  Uiso   1.00
C6     C     0.31140   0.11460   0.58460   0.01267  Uiso   1.00
C7     C     0.88170   0.26670   0.00650   0.01267  Uiso   1.00
C8     C     0.46530   0.28950   0.15190   0.01267  Uiso   1.00
C9     C     0.86780   0.94310   0.29680   0.01267  Uiso   1.00
C10    C     0.44740   0.22410   0.23610   0.01267  Uiso   1.00
C11    C     0.92950   0.60270   0.26800   0.01267  Uiso   1.00
C12    C     0.97360   0.61060   0.53160   0.01267  Uiso   1.00
C13    C     0.76830   0.95940   0.15920   0.01267  Uiso   1.00
C14    C     0.01310   0.50170   0.31310   0.01267  Uiso   1.00
C15    C     0.68860   0.88540   0.41540   0.01267  Uiso   1.00
C16    C     0.42190   0.46670   0.21060   0.01267  Uiso   1.00
C17    C     0.99240   0.49980   0.59110   0.01267  Uiso   1.00
C18    C     0.72900   0.50300   0.03500   0.01267  Uiso   1.00
C19    C     0.25980   0.76530   0.03630   0.01267  Uiso   1.00
C20    C     0.74020   0.23470   0.96370   0.01267  Uiso   1.00
C21    C     0.98970   0.77160   0.97210   0.01267  Uiso   1.00
C22    C     0.41380   0.24850   0.47700   0.01267  Uiso   1.00
C23    C     0.58620   0.75150   0.52300   0.01267  Uiso   1.00
C24    C     0.13220   0.05690   0.70320   0.01267  Uiso   1.00
C25    C     0.06840   0.03260   0.79220   0.01267  Uiso   1.00
C26    C     0.98320   0.61090   0.44120   0.01267  Uiso   1.00
C27    C     0.59650   0.59320   0.70370   0.01267  Uiso   1.00
C28    C     0.09880   0.40250   0.26380   0.01267  Uiso   1.00
C29    C     0.01680   0.38910   0.55880   0.01267  Uiso   1.00
C30    C     0.01030   0.22840   0.02790   0.01267  Uiso   1.00
C31    C     0.29550   0.07700   0.51390   0.01267  Uiso   1.00
C32    C     0.98690   0.49830   0.68690   0.01267  Uiso   1.00
C33    C     0.93160   0.96740   0.20780   0.01267  Uiso   1.00
C34    C     0.61110   0.78290   0.59430   0.01267  Uiso   1.00
C35    C     0.07050   0.39730   0.73200   0.01267  Uiso   1.00
C36    C     0.33400   0.12730   0.42530   0.01267  Uiso   1.00
C37    C     0.90120   0.59750   0.73620   0.01267  Uiso   1.00
C38    C     0.11830   0.73330   0.99350   0.01267  Uiso   1.00
C39    C     0.29840   0.06620   0.75320   0.01267  Uiso   1.00
C40    C     0.58450   0.71910   0.68710   0.01267  Uiso   1.00
C41    C     0.57810   0.53330   0.78940   0.01267  Uiso   1.00
C42    C     0.53470   0.71050   0.84810   0.01267  Uiso   1.00
C43    C     0.24840   0.07620   0.68120   0.01267  Uiso   1.00
C44    C     0.55260   0.77590   0.76390   0.01267  Uiso   1.00
C45    C     0.37340   0.19820   0.56540   0.01267  Uiso   1.00
C46    C     0.06550   0.40060   0.82010   0.01267  Uiso   1.00
C47    C     0.41550   0.28090   0.31290   0.01267  Uiso   1.00
C48    C     0.70450   0.92300   0.48610   0.01267  Uiso   1.00
C49    C     0.77080   0.37610   0.00650   0.01267  Uiso   1.00
C50    C     0.90210   0.59300   0.82430   0.01267  Uiso   1.00
C51    C     0.09790   0.40700   0.17570   0.01267  Uiso   1.00
C52    C     0.23170   0.04060   0.84080   0.01267  Uiso   1.00
C53    C     0.00760   0.50020   0.40890   0.01267  Uiso   1.00
C54    C     0.02640   0.38940   0.46840   0.01267  Uiso   1.00
C55    C     0.40350   0.40680   0.29630   0.01267  Uiso   1.00
C56    C     0.66600   0.87270   0.57470   0.01267  Uiso   1.00
C57    C     0.38890   0.21710   0.40570   0.01267  Uiso   1.00
C58    C     0.62660   0.80180   0.43460   0.01267  Uiso   1.00
N1     N     0.01600   0.50410   0.13240   0.01267  Uiso   1.00
N2     N     0.68220   0.35450   0.97920   0.01267  Uiso   1.00
N3     N     0.88300   0.97570   0.13890   0.01267  Uiso   1.00
N4     N     0.31780   0.64550   0.02080   0.01267  Uiso   1.00
N5     N     0.98400   0.49590   0.86760   0.01267  Uiso   1.00
N6     N     0.11700   0.02430   0.86110   0.01267  Uiso   1.00
N7     N     0.13990   0.82310   0.01990   0.01267  Uiso   1.00
N8     N     0.45330   0.41100   0.13660   0.01267  Uiso   1.00
N9     N     0.86010   0.17690   0.98010   0.01267  Uiso   1.00
N10    N     0.54670   0.58900   0.86340   0.01267  Uiso   1.00
O1     O     0.19460   0.46810   0.94220   0.01267  Uiso   1.00
O2     O     0.05500   0.30610   0.03210   0.01267  Uiso   1.00
O3     O     0.38950   0.42540   0.96290   0.01267  Uiso   1.00
O4     O     0.94500   0.69390   0.96790   0.01267  Uiso   1.00
O5     O     0.80540   0.53190   0.05780   0.01267  Uiso   1.00
O6     O     0.07420   0.10980   0.03890   0.01267  Uiso   1.00
O7     O     0.92580   0.89020   0.96110   0.01267  Uiso   1.00
O8     O     0.61050   0.57460   0.03710   0.01267  Uiso   1.00
