data_NOQNOY_clean
_audit_creation_date              2015-10-16
_audit_creation_method            'Materials Studio'
_symmetry_space_group_name_H-M    'P1'
_symmetry_Int_Tables_number       1
_symmetry_cell_setting            triclinic
loop_
_symmetry_equiv_pos_as_xyz
  x,y,z
_cell_length_a                    9.4330
_cell_length_b                    16.2640
_cell_length_c                    24.1240
_cell_angle_alpha                 108.3120
_cell_angle_beta                  90.0000
_cell_angle_gamma                 90.0000
loop_
_atom_site_label
_atom_site_type_symbol
_atom_site_fract_x
_atom_site_fract_y
_atom_site_fract_z
_atom_site_U_iso_or_equiv
_atom_site_adp_type
_atom_site_occupancy
Ca1    Ca    0.99415   0.50000   0.75000   0.01267  Uiso   1.00
Ca2    Ca    0.00000   0.50000   0.50000   0.01267  Uiso   1.00
Ca3    Ca    0.00000   0.00000   0.00000   0.01267  Uiso   1.00
Ca4    Ca    0.00000   0.50000   0.00000   0.01267  Uiso   1.00
Ca5    Ca    0.00585   0.50000   0.25000   0.01267  Uiso   1.00
Ca6    Ca    0.00000   0.00000   0.50000   0.01267  Uiso   1.00
Ce1    Ce    0.50883   0.70229   0.40331   0.01267  Uiso   1.00
Ce2    Ce    0.50883   0.29771   0.09669   0.01267  Uiso   1.00
Ce3    Ce    0.49117   0.29771   0.59669   0.01267  Uiso   1.00
Ce4    Ce    0.49117   0.70229   0.90331   0.01267  Uiso   1.00
H1     H     0.36700   0.57500   0.03300   0.01267  Uiso   1.00
H2     H     0.58500   0.17200   0.81700   0.01267  Uiso   1.00
H3     H     0.13600   0.36300   0.69000   0.01267  Uiso   1.00
H4     H     0.28110   0.29020   0.30410   0.01267  Uiso   1.00
H5     H     0.47200   0.97600   0.36400   0.01267  Uiso   1.00
H6     H     0.00200   0.63000   0.29100   0.01267  Uiso   1.00
H7     H     0.32100   0.90300   0.12700   0.01267  Uiso   1.00
H8     H     0.71100   0.63600   0.14300   0.01267  Uiso   1.00
H9     H     0.52800   0.02400   0.63600   0.01267  Uiso   1.00
H10    H     0.58500   0.82800   0.68300   0.01267  Uiso   1.00
H11    H     0.47200   0.02400   0.13600   0.01267  Uiso   1.00
H12    H     0.37000   0.97900   0.93400   0.01267  Uiso   1.00
H13    H     0.67900   0.09700   0.87300   0.01267  Uiso   1.00
H14    H     0.71890   0.70980   0.69590   0.01267  Uiso   1.00
H15    H     0.37000   0.02100   0.56600   0.01267  Uiso   1.00
H16    H     0.28110   0.70980   0.19590   0.01267  Uiso   1.00
H17    H     0.37700   0.87500   0.74600   0.01267  Uiso   1.00
H18    H     0.53360   0.68210   0.09310   0.01267  Uiso   1.00
H19    H     0.37700   0.12500   0.75400   0.01267  Uiso   1.00
H20    H     0.28900   0.36400   0.85700   0.01267  Uiso   1.00
H21    H     0.99800   0.63000   0.79100   0.01267  Uiso   1.00
H22    H     0.62300   0.87500   0.24600   0.01267  Uiso   1.00
H23    H     0.67900   0.90300   0.62700   0.01267  Uiso   1.00
H24    H     0.63000   0.97900   0.43400   0.01267  Uiso   1.00
H25    H     0.13600   0.63700   0.81000   0.01267  Uiso   1.00
H26    H     0.63300   0.42500   0.96700   0.01267  Uiso   1.00
H27    H     0.46640   0.31790   0.90690   0.01267  Uiso   1.00
H28    H     0.71890   0.29020   0.80410   0.01267  Uiso   1.00
H29    H     0.46640   0.68210   0.59310   0.01267  Uiso   1.00
H30    H     0.86400   0.63700   0.31000   0.01267  Uiso   1.00
H31    H     0.32100   0.09700   0.37300   0.01267  Uiso   1.00
H32    H     0.41500   0.17200   0.31700   0.01267  Uiso   1.00
H33    H     0.86400   0.36300   0.19000   0.01267  Uiso   1.00
H34    H     0.99800   0.37000   0.70900   0.01267  Uiso   1.00
H35    H     0.28900   0.63600   0.64300   0.01267  Uiso   1.00
H36    H     0.62300   0.12500   0.25400   0.01267  Uiso   1.00
H37    H     0.71100   0.36400   0.35700   0.01267  Uiso   1.00
H38    H     0.53360   0.31790   0.40690   0.01267  Uiso   1.00
H39    H     0.00200   0.37000   0.20900   0.01267  Uiso   1.00
H40    H     0.63300   0.57500   0.53300   0.01267  Uiso   1.00
H41    H     0.36700   0.42500   0.46700   0.01267  Uiso   1.00
H42    H     0.52800   0.97600   0.86400   0.01267  Uiso   1.00
H43    H     0.63000   0.02100   0.06600   0.01267  Uiso   1.00
H44    H     0.41500   0.82800   0.18300   0.01267  Uiso   1.00
C1     C     0.68840   0.83370   0.34080   0.01267  Uiso   1.00
C2     C     0.28650   0.52620   0.83800   0.01267  Uiso   1.00
C3     C     0.29480   0.36150   0.21640   0.01267  Uiso   1.00
C4     C     0.55930   0.79590   0.71140   0.01267  Uiso   1.00
C5     C     0.53080   0.97300   0.60170   0.01267  Uiso   1.00
C6     C     0.38320   0.29480   0.23170   0.01267  Uiso   1.00
C7     C     0.61680   0.70520   0.76830   0.01267  Uiso   1.00
C8     C     0.35600   0.73320   0.22100   0.01267  Uiso   1.00
C9     C     0.37710   0.40260   0.87230   0.01267  Uiso   1.00
C10    C     0.68840   0.16630   0.15920   0.01267  Uiso   1.00
C11    C     0.57940   0.10400   0.48890   0.01267  Uiso   1.00
C12    C     0.42620   0.03110   0.94000   0.01267  Uiso   1.00
C13    C     0.61150   0.83420   0.54270   0.01267  Uiso   1.00
C14    C     0.55340   0.17110   0.25100   0.01267  Uiso   1.00
C15    C     0.42750   0.20140   0.70430   0.01267  Uiso   1.00
C16    C     0.38850   0.16580   0.45730   0.01267  Uiso   1.00
C17    C     0.47210   0.62580   0.59460   0.01267  Uiso   1.00
C18    C     0.55340   0.82890   0.24900   0.01267  Uiso   1.00
C19    C     0.42310   0.57030   0.06340   0.01267  Uiso   1.00
C20    C     0.42010   0.48670   0.06650   0.01267  Uiso   1.00
C21    C     0.64400   0.26680   0.77900   0.01267  Uiso   1.00
C22    C     0.31300   0.88570   0.46370   0.01267  Uiso   1.00
C23    C     0.62290   0.59740   0.12770   0.01267  Uiso   1.00
C24    C     0.31360   0.42070   0.03360   0.01267  Uiso   1.00
C25    C     0.38850   0.83420   0.04270   0.01267  Uiso   1.00
C26    C     0.31160   0.83370   0.84080   0.01267  Uiso   1.00
C27    C     0.62430   0.90460   0.59290   0.01267  Uiso   1.00
C28    C     0.44660   0.82890   0.74900   0.01267  Uiso   1.00
C29    C     0.52790   0.37420   0.40540   0.01267  Uiso   1.00
C30    C     0.38770   0.48730   0.87150   0.01267  Uiso   1.00
C31    C     0.42060   0.89600   0.51110   0.01267  Uiso   1.00
C32    C     0.42750   0.79860   0.79570   0.01267  Uiso   1.00
C33    C     0.57690   0.42970   0.93660   0.01267  Uiso   1.00
C34    C     0.53080   0.02700   0.89830   0.01267  Uiso   1.00
C35    C     0.44070   0.20410   0.28860   0.01267  Uiso   1.00
C36    C     0.68700   0.11430   0.53630   0.01267  Uiso   1.00
C37    C     0.57940   0.89600   0.01110   0.01267  Uiso   1.00
C38    C     0.57380   0.03110   0.44000   0.01267  Uiso   1.00
C39    C     0.61230   0.51270   0.12850   0.01267  Uiso   1.00
C40    C     0.68640   0.57930   0.96640   0.01267  Uiso   1.00
C41    C     0.52790   0.62580   0.09460   0.01267  Uiso   1.00
C42    C     0.28650   0.47380   0.66200   0.01267  Uiso   1.00
C43    C     0.61230   0.48730   0.37150   0.01267  Uiso   1.00
C44    C     0.57690   0.57030   0.56340   0.01267  Uiso   1.00
C45    C     0.57380   0.96890   0.06000   0.01267  Uiso   1.00
C46    C     0.57990   0.51330   0.93350   0.01267  Uiso   1.00
C47    C     0.68700   0.88570   0.96370   0.01267  Uiso   1.00
C48    C     0.71350   0.52620   0.33800   0.01267  Uiso   1.00
C49    C     0.44070   0.79590   0.21140   0.01267  Uiso   1.00
C50    C     0.42010   0.51330   0.43350   0.01267  Uiso   1.00
C51    C     0.38770   0.51270   0.62850   0.01267  Uiso   1.00
C52    C     0.70640   0.24400   0.97070   0.01267  Uiso   1.00
C53    C     0.61150   0.16580   0.95730   0.01267  Uiso   1.00
C54    C     0.47210   0.37420   0.90540   0.01267  Uiso   1.00
C55    C     0.42060   0.10400   0.98890   0.01267  Uiso   1.00
C56    C     0.68640   0.42070   0.53360   0.01267  Uiso   1.00
C57    C     0.61680   0.29480   0.73170   0.01267  Uiso   1.00
C58    C     0.57990   0.48670   0.56650   0.01267  Uiso   1.00
C59    C     0.42620   0.96890   0.56000   0.01267  Uiso   1.00
C60    C     0.44660   0.17110   0.75100   0.01267  Uiso   1.00
C61    C     0.70640   0.75600   0.52930   0.01267  Uiso   1.00
C62    C     0.38320   0.70520   0.26830   0.01267  Uiso   1.00
C63    C     0.37570   0.90460   0.09290   0.01267  Uiso   1.00
C64    C     0.31300   0.11430   0.03630   0.01267  Uiso   1.00
C65    C     0.46920   0.02700   0.39830   0.01267  Uiso   1.00
C66    C     0.42310   0.42970   0.43660   0.01267  Uiso   1.00
C67    C     0.29480   0.63850   0.28360   0.01267  Uiso   1.00
C68    C     0.35600   0.26680   0.27900   0.01267  Uiso   1.00
C69    C     0.57250   0.79860   0.29570   0.01267  Uiso   1.00
C70    C     0.55930   0.20410   0.78860   0.01267  Uiso   1.00
C71    C     0.70520   0.36150   0.71640   0.01267  Uiso   1.00
C72    C     0.31360   0.57930   0.46640   0.01267  Uiso   1.00
C73    C     0.37710   0.59740   0.62770   0.01267  Uiso   1.00
C74    C     0.37570   0.09540   0.40710   0.01267  Uiso   1.00
C75    C     0.64400   0.73320   0.72100   0.01267  Uiso   1.00
C76    C     0.62290   0.40260   0.37230   0.01267  Uiso   1.00
C77    C     0.71350   0.47380   0.16200   0.01267  Uiso   1.00
C78    C     0.29360   0.75600   0.02930   0.01267  Uiso   1.00
C79    C     0.29360   0.24400   0.47070   0.01267  Uiso   1.00
C80    C     0.46920   0.97300   0.10170   0.01267  Uiso   1.00
C81    C     0.31160   0.16630   0.65920   0.01267  Uiso   1.00
C82    C     0.70520   0.63850   0.78360   0.01267  Uiso   1.00
C83    C     0.57250   0.20140   0.20430   0.01267  Uiso   1.00
C84    C     0.62430   0.09540   0.90710   0.01267  Uiso   1.00
N1     N     0.48610   0.54170   0.90220   0.01267  Uiso   1.00
N2     N     0.48700   0.83050   0.00190   0.01267  Uiso   1.00
N3     N     0.51060   0.26200   0.69440   0.01267  Uiso   1.00
N4     N     0.51390   0.54170   0.40220   0.01267  Uiso   1.00
N5     N     0.51300   0.83050   0.50190   0.01267  Uiso   1.00
N6     N     0.48700   0.16950   0.49810   0.01267  Uiso   1.00
N7     N     0.51390   0.45830   0.09780   0.01267  Uiso   1.00
N8     N     0.51300   0.16950   0.99810   0.01267  Uiso   1.00
N9     N     0.48940   0.26200   0.19440   0.01267  Uiso   1.00
N10    N     0.51060   0.73800   0.80560   0.01267  Uiso   1.00
N11    N     0.48610   0.45830   0.59780   0.01267  Uiso   1.00
N12    N     0.48940   0.73800   0.30560   0.01267  Uiso   1.00
O1     O     0.07670   0.65090   0.79070   0.01267  Uiso   1.00
O2     O     0.21110   0.25000   0.43180   0.01267  Uiso   1.00
O3     O     0.92330   0.65090   0.29070   0.01267  Uiso   1.00
O4     O     0.77360   0.88550   0.33210   0.01267  Uiso   1.00
O5     O     0.68560   0.19300   0.11465   0.01267  Uiso   1.00
O6     O     0.79730   0.40070   0.75129   0.01267  Uiso   1.00
O7     O     0.80910   0.51940   0.19075   0.01267  Uiso   1.00
O8     O     0.80910   0.48060   0.30925   0.01267  Uiso   1.00
O9     O     0.77360   0.11450   0.16790   0.01267  Uiso   1.00
O10    O     0.69290   0.29920   0.02080   0.01267  Uiso   1.00
O11    O     0.92330   0.34910   0.20930   0.01267  Uiso   1.00
O12    O     0.78890   0.75000   0.56820   0.01267  Uiso   1.00
O13    O     0.79730   0.59930   0.74871   0.01267  Uiso   1.00
O14    O     0.32190   0.37240   0.16788   0.01267  Uiso   1.00
O15    O     0.33170   0.34390   0.03490   0.01267  Uiso   1.00
O16    O     0.19090   0.48060   0.80925   0.01267  Uiso   1.00
O17    O     0.68560   0.80700   0.38535   0.01267  Uiso   1.00
O18    O     0.33170   0.65610   0.46510   0.01267  Uiso   1.00
O19    O     0.21780   0.94070   0.47140   0.01267  Uiso   1.00
O20    O     0.30830   0.60500   0.84270   0.01267  Uiso   1.00
O21    O     0.21760   0.44410   0.00709   0.01267  Uiso   1.00
O22    O     0.22640   0.88550   0.83210   0.01267  Uiso   1.00
O23    O     0.22640   0.11450   0.66790   0.01267  Uiso   1.00
O24    O     0.20270   0.59930   0.24871   0.01267  Uiso   1.00
O25    O     0.32770   0.82110   0.41858   0.01267  Uiso   1.00
O26    O     0.20270   0.40070   0.25129   0.01267  Uiso   1.00
O27    O     0.66830   0.65610   0.96510   0.01267  Uiso   1.00
O28    O     0.21780   0.05930   0.02860   0.01267  Uiso   1.00
O29    O     0.67230   0.82110   0.91858   0.01267  Uiso   1.00
O30    O     0.30710   0.29920   0.52080   0.01267  Uiso   1.00
O31    O     0.21110   0.75000   0.06820   0.01267  Uiso   1.00
O32    O     0.69290   0.70080   0.47920   0.01267  Uiso   1.00
O33    O     0.78220   0.94070   0.97140   0.01267  Uiso   1.00
O34    O     0.67810   0.37240   0.66788   0.01267  Uiso   1.00
O35    O     0.07670   0.34910   0.70930   0.01267  Uiso   1.00
O36    O     0.78240   0.55590   0.99291   0.01267  Uiso   1.00
O37    O     0.31440   0.80700   0.88535   0.01267  Uiso   1.00
O38    O     0.21760   0.55590   0.49291   0.01267  Uiso   1.00
O39    O     0.69170   0.60500   0.34270   0.01267  Uiso   1.00
O40    O     0.30710   0.70080   0.97920   0.01267  Uiso   1.00
O41    O     0.78890   0.25000   0.93180   0.01267  Uiso   1.00
O42    O     0.78240   0.44410   0.50709   0.01267  Uiso   1.00
O43    O     0.69170   0.39500   0.15730   0.01267  Uiso   1.00
O44    O     0.67230   0.17890   0.58142   0.01267  Uiso   1.00
O45    O     0.32770   0.17890   0.08142   0.01267  Uiso   1.00
O46    O     0.32190   0.62760   0.33212   0.01267  Uiso   1.00
O47    O     0.19090   0.51940   0.69075   0.01267  Uiso   1.00
O48    O     0.67810   0.62760   0.83212   0.01267  Uiso   1.00
O49    O     0.66830   0.34390   0.53490   0.01267  Uiso   1.00
O50    O     0.30830   0.39500   0.65730   0.01267  Uiso   1.00
O51    O     0.31440   0.19300   0.61465   0.01267  Uiso   1.00
O52    O     0.78220   0.05930   0.52860   0.01267  Uiso   1.00
