data_NOQPAM_clean
_audit_creation_date              2015-10-16
_audit_creation_method            'Materials Studio'
_symmetry_space_group_name_H-M    'P1'
_symmetry_Int_Tables_number       1
_symmetry_cell_setting            triclinic
loop_
_symmetry_equiv_pos_as_xyz
  x,y,z
_cell_length_a                    10.1719
_cell_length_b                    11.5557
_cell_length_c                    15.2081
_cell_angle_alpha                 106.0210
_cell_angle_beta                  109.2510
_cell_angle_gamma                 90.5970
loop_
_atom_site_label
_atom_site_type_symbol
_atom_site_fract_x
_atom_site_fract_y
_atom_site_fract_z
_atom_site_U_iso_or_equiv
_atom_site_adp_type
_atom_site_occupancy
Ba1    Ba    0.59341   0.75256   0.34017   0.01267  Uiso   1.00
Ba2    Ba    0.88854   0.32830   0.88423   0.01267  Uiso   1.00
Ba3    Ba    0.40660   0.24744   0.65983   0.01267  Uiso   1.00
Ba4    Ba    0.11146   0.67170   0.11577   0.01267  Uiso   1.00
Ce1    Ce    0.63582   0.79084   0.77042   0.01267  Uiso   1.00
Ce2    Ce    0.36418   0.20916   0.22958   0.01267  Uiso   1.00
H1     H     0.60610   0.90250   0.13750   0.01267  Uiso   1.00
H2     H     0.87820   0.42350   0.19980   0.01267  Uiso   1.00
H3     H     0.09950   0.87510   0.87540   0.01267  Uiso   1.00
H4     H     0.59100   0.20900   0.87900   0.01267  Uiso   1.00
H5     H     0.77030   0.50670   0.55130   0.01267  Uiso   1.00
H6     H     0.66700   0.43900   0.71200   0.01267  Uiso   1.00
H7     H     0.01020   0.71850   0.57630   0.01267  Uiso   1.00
H8     H     0.79210   0.05630   0.21720   0.01267  Uiso   1.00
H9     H     0.41200   0.87900   0.19700   0.01267  Uiso   1.00
H10    H     0.90050   0.12490   0.12460   0.01267  Uiso   1.00
H11    H     0.20790   0.94370   0.78280   0.01267  Uiso   1.00
H12    H     0.84290   0.15690   0.50890   0.01267  Uiso   1.00
H13    H     0.83590   0.38610   0.33160   0.01267  Uiso   1.00
H14    H     0.40900   0.79100   0.12100   0.01267  Uiso   1.00
H15    H     0.98980   0.28150   0.42370   0.01267  Uiso   1.00
H16    H     0.39390   0.09750   0.86250   0.01267  Uiso   1.00
H17    H     0.12180   0.57650   0.80020   0.01267  Uiso   1.00
H18    H     0.22970   0.49330   0.44870   0.01267  Uiso   1.00
H19    H     0.27500   0.65400   0.32600   0.01267  Uiso   1.00
H20    H     0.33300   0.56100   0.28800   0.01267  Uiso   1.00
H21    H     0.09240   0.63890   0.39820   0.01267  Uiso   1.00
H22    H     0.90760   0.36110   0.60180   0.01267  Uiso   1.00
H23    H     0.72500   0.34600   0.67400   0.01267  Uiso   1.00
H24    H     0.58800   0.12100   0.80300   0.01267  Uiso   1.00
H25    H     0.15710   0.84310   0.49110   0.01267  Uiso   1.00
H26    H     0.16410   0.61390   0.66840   0.01267  Uiso   1.00
C1     C     0.22940   0.19280   0.40331   0.01267  Uiso   1.00
C2     C     0.65260   0.92980   0.10240   0.01267  Uiso   1.00
C3     C     0.32380   0.81060   0.59570   0.01267  Uiso   1.00
C4     C     0.79170   0.21720   0.48940   0.01267  Uiso   1.00
C5     C     0.21870   0.99260   0.00480   0.01267  Uiso   1.00
C6     C     0.94280   0.65650   0.78110   0.01267  Uiso   1.00
C7     C     0.78130   0.00740   0.99520   0.01267  Uiso   1.00
C8     C     0.84560   0.04580   0.92968   0.01267  Uiso   1.00
C9     C     0.37190   0.93870   0.66282   0.01267  Uiso   1.00
C10    C     0.15440   0.95420   0.07032   0.01267  Uiso   1.00
C11    C     0.82900   0.33880   0.54520   0.01267  Uiso   1.00
C12    C     0.46360   0.52260   0.60662   0.01267  Uiso   1.00
C13    C     0.08610   0.64020   0.68380   0.01267  Uiso   1.00
C14    C     0.63220   0.38860   0.43036   0.01267  Uiso   1.00
C15    C     0.50020   0.22790   0.05450   0.01267  Uiso   1.00
C16    C     0.00540   0.29760   0.37110   0.01267  Uiso   1.00
C17    C     0.99460   0.70240   0.62890   0.01267  Uiso   1.00
C18    C     0.17100   0.66120   0.45480   0.01267  Uiso   1.00
C19    C     0.67620   0.18940   0.40430   0.01267  Uiso   1.00
C20    C     0.49980   0.77210   0.94550   0.01267  Uiso   1.00
C21    C     0.17250   0.93760   0.90490   0.01267  Uiso   1.00
C22    C     0.77060   0.80720   0.59669   0.01267  Uiso   1.00
C23    C     0.23740   0.97780   0.85010   0.01267  Uiso   1.00
C24    C     0.25230   0.57460   0.48480   0.01267  Uiso   1.00
C25    C     0.87910   0.74060   0.65362   0.01267  Uiso   1.00
C26    C     0.05720   0.34350   0.21890   0.01267  Uiso   1.00
C27    C     0.06090   0.61730   0.76180   0.01267  Uiso   1.00
C28    C     0.38710   0.12120   0.99708   0.01267  Uiso   1.00
C29    C     0.61290   0.87880   0.00292   0.01267  Uiso   1.00
C30    C     0.36780   0.61140   0.56964   0.01267  Uiso   1.00
C31    C     0.90250   0.63510   0.86349   0.01267  Uiso   1.00
C32    C     0.62810   0.06130   0.33718   0.01267  Uiso   1.00
C33    C     0.34740   0.07020   0.89760   0.01267  Uiso   1.00
C34    C     0.20830   0.78280   0.51060   0.01267  Uiso   1.00
C35    C     0.53640   0.47740   0.39338   0.01267  Uiso   1.00
C36    C     0.12090   0.25940   0.34638   0.01267  Uiso   1.00
C37    C     0.93910   0.38270   0.23820   0.01267  Uiso   1.00
C38    C     0.09750   0.36490   0.13651   0.01267  Uiso   1.00
C39    C     0.91390   0.35980   0.31620   0.01267  Uiso   1.00
C40    C     0.76260   0.02220   0.14990   0.01267  Uiso   1.00
C41    C     0.74770   0.42540   0.51520   0.01267  Uiso   1.00
C42    C     0.82750   0.06240   0.09510   0.01267  Uiso   1.00
N1     N     0.59810   0.27350   0.37548   0.01267  Uiso   1.00
N2     N     0.67710   0.91700   0.94999   0.01267  Uiso   1.00
N3     N     0.85460   0.71782   0.72887   0.01267  Uiso   1.00
N4     N     0.32290   0.08300   0.05001   0.01267  Uiso   1.00
N5     N     0.40190   0.72650   0.62452   0.01267  Uiso   1.00
N6     N     0.13600   0.31010   0.72820   0.01267  Uiso   1.00
N7     N     0.86400   0.68990   0.27180   0.01267  Uiso   1.00
N8     N     0.14540   0.28218   0.27113   0.01267  Uiso   1.00
O1     O     0.81100   0.97497   0.84312   0.01267  Uiso   1.00
O2     O     0.77810   0.75227   0.22986   0.01267  Uiso   1.00
O3     O     0.60700   0.19471   0.82852   0.01267  Uiso   1.00
O4     O     0.30360   0.62761   0.28023   0.01267  Uiso   1.00
O5     O     0.92400   0.14214   0.96319   0.01267  Uiso   1.00
O6     O     0.39300   0.80529   0.17148   0.01267  Uiso   1.00
O7     O     0.02700   0.42897   0.08844   0.01267  Uiso   1.00
O8     O     0.48760   0.72517   0.85665   0.01267  Uiso   1.00
O9     O     0.97300   0.57103   0.91156   0.01267  Uiso   1.00
O10    O     0.30010   0.02050   0.64337   0.01267  Uiso   1.00
O11    O     0.57590   0.56910   0.67785   0.01267  Uiso   1.00
O12    O     0.56900   0.26211   0.01073   0.01267  Uiso   1.00
O13    O     0.42410   0.43090   0.32215   0.01267  Uiso   1.00
O14    O     0.21100   0.17026   0.47412   0.01267  Uiso   1.00
O15    O     0.79711   0.68414   0.87636   0.01267  Uiso   1.00
O16    O     0.51553   0.04739   0.26494   0.01267  Uiso   1.00
O17    O     0.18900   0.02503   0.15688   0.01267  Uiso   1.00
O18    O     0.69640   0.37239   0.71977   0.01267  Uiso   1.00
O19    O     0.84460   0.65600   0.33823   0.01267  Uiso   1.00
O20    O     0.69990   0.97950   0.35663   0.01267  Uiso   1.00
O21    O     0.07600   0.85786   0.03681   0.01267  Uiso   1.00
O22    O     0.96790   0.66159   0.24701   0.01267  Uiso   1.00
O23    O     0.15540   0.34400   0.66177   0.01267  Uiso   1.00
O24    O     0.33020   0.16596   0.37363   0.01267  Uiso   1.00
O25    O     0.51240   0.27483   0.14335   0.01267  Uiso   1.00
O26    O     0.48447   0.95261   0.73506   0.01267  Uiso   1.00
O27    O     0.43100   0.73789   0.98927   0.01267  Uiso   1.00
O28    O     0.20289   0.31586   0.12364   0.01267  Uiso   1.00
O29    O     0.42570   0.41292   0.56598   0.01267  Uiso   1.00
O30    O     0.22190   0.24773   0.77014   0.01267  Uiso   1.00
O31    O     0.03210   0.33841   0.75299   0.01267  Uiso   1.00
O32    O     0.78900   0.82974   0.52588   0.01267  Uiso   1.00
O33    O     0.66980   0.83404   0.62637   0.01267  Uiso   1.00
O34    O     0.57430   0.58708   0.43402   0.01267  Uiso   1.00
