data_NORGOS_clean
_audit_creation_date              2015-10-16
_audit_creation_method            'Materials Studio'
_symmetry_space_group_name_H-M    'P1'
_symmetry_Int_Tables_number       1
_symmetry_cell_setting            triclinic
loop_
_symmetry_equiv_pos_as_xyz
  x,y,z
_cell_length_a                    12.6205
_cell_length_b                    16.5583
_cell_length_c                    16.5583
_cell_angle_alpha                 66.2229
_cell_angle_beta                  75.2821
_cell_angle_gamma                 104.7180
loop_
_atom_site_label
_atom_site_type_symbol
_atom_site_fract_x
_atom_site_fract_y
_atom_site_fract_z
_atom_site_U_iso_or_equiv
_atom_site_adp_type
_atom_site_occupancy
Ba1    Ba    0.29397   0.29397   0.41206   0.01267  Uiso   1.00
Ba2    Ba    0.00000   0.70603   0.70603   0.01267  Uiso   1.00
Ba3    Ba    0.70603   0.41206   0.29397   0.01267  Uiso   1.00
Ba4    Ba    0.29397   0.58794   0.70603   0.01267  Uiso   1.00
Ba5    Ba    0.70603   0.70603   0.58794   0.01267  Uiso   1.00
Ba6    Ba    0.00000   0.29397   0.29397   0.01267  Uiso   1.00
Co1    Co    0.26836   0.38167  -0.00000   0.01267  Uiso   1.00
Co2    Co    0.73164   0.61833  -0.00000   0.01267  Uiso   1.00
Co3    Co    0.11331   0.38167   0.61833   0.01267  Uiso   1.00
Co4    Co    0.26836   0.00000   0.61833   0.01267  Uiso   1.00
Co5    Co    0.73164   0.00000   0.38167   0.01267  Uiso   1.00
Co6    Co    0.88669   0.61833   0.38167   0.01267  Uiso   1.00
H1     H     0.96410   0.93980   0.83500   0.01267  Uiso   1.00
H2     H     0.03590   0.83500   0.93980   0.01267  Uiso   1.00
H3     H     0.13030   0.63060   0.58070   0.01267  Uiso   1.00
H4     H     0.21550   0.79890   0.14920   0.01267  Uiso   1.00
H5     H     0.52400   0.80400   0.54600   0.01267  Uiso   1.00
H6     H     0.41660   0.05190   0.79890   0.01267  Uiso   1.00
H7     H     0.97570   0.77480   0.06020   0.01267  Uiso   1.00
H8     H     0.79910   0.77480   0.16500   0.01267  Uiso   1.00
H9     H     0.52400   0.45400   0.19600   0.01267  Uiso   1.00
H10    H     0.36470   0.94810   0.85080   0.01267  Uiso   1.00
H11    H     0.28000   0.80400   0.65000   0.01267  Uiso   1.00
H12    H     0.55840   0.20070   0.04910   0.01267  Uiso   1.00
H13    H     0.60750   0.04910   0.75020   0.01267  Uiso   1.00
H14    H     0.93000   0.45400   0.35000   0.01267  Uiso   1.00
H15    H     0.20090   0.16500   0.77480   0.01267  Uiso   1.00
H16    H     0.58340   0.94810   0.20110   0.01267  Uiso   1.00
H17    H     0.79910   0.83500   0.22520   0.01267  Uiso   1.00
H18    H     0.39250   0.75020   0.04910   0.01267  Uiso   1.00
H19    H     0.71100   0.58070   0.78870   0.01267  Uiso   1.00
H20    H     0.78450   0.14920   0.79890   0.01267  Uiso   1.00
H21    H     0.36470   0.14920   0.05190   0.01267  Uiso   1.00
H22    H     0.86970   0.36940   0.41930   0.01267  Uiso   1.00
H23    H     0.41660   0.20110   0.94810   0.01267  Uiso   1.00
H24    H     0.97570   0.93980   0.22520   0.01267  Uiso   1.00
H25    H     0.35770   0.79930   0.24980   0.01267  Uiso   1.00
H26    H     0.60750   0.24980   0.95090   0.01267  Uiso   1.00
H27    H     0.86970   0.58070   0.63060   0.01267  Uiso   1.00
H28    H     0.78450   0.20110   0.85080   0.01267  Uiso   1.00
H29    H     0.44160   0.79930   0.95090   0.01267  Uiso   1.00
H30    H     0.47600   0.19600   0.45400   0.01267  Uiso   1.00
H31    H     0.07000   0.35000   0.45400   0.01267  Uiso   1.00
H32    H     0.28900   0.78870   0.58070   0.01267  Uiso   1.00
H33    H     0.63530   0.05190   0.14920   0.01267  Uiso   1.00
H34    H     0.03590   0.06020   0.16500   0.01267  Uiso   1.00
H35    H     0.21550   0.85080   0.20110   0.01267  Uiso   1.00
H36    H     0.28000   0.35000   0.19600   0.01267  Uiso   1.00
H37    H     0.49970   0.36940   0.21130   0.01267  Uiso   1.00
H38    H     0.39250   0.95090   0.24980   0.01267  Uiso   1.00
H39    H     0.64230   0.20070   0.75020   0.01267  Uiso   1.00
H40    H     0.47600   0.54600   0.80400   0.01267  Uiso   1.00
H41    H     0.44160   0.04910   0.20070   0.01267  Uiso   1.00
H42    H     0.55840   0.95090   0.79930   0.01267  Uiso   1.00
H43    H     0.49970   0.78870   0.63060   0.01267  Uiso   1.00
H44    H     0.02430   0.22520   0.93980   0.01267  Uiso   1.00
H45    H     0.20090   0.22520   0.83500   0.01267  Uiso   1.00
H46    H     0.07000   0.54600   0.65000   0.01267  Uiso   1.00
H47    H     0.93000   0.65000   0.54600   0.01267  Uiso   1.00
H48    H     0.28900   0.41930   0.21130   0.01267  Uiso   1.00
H49    H     0.72000   0.65000   0.80400   0.01267  Uiso   1.00
H50    H     0.13030   0.41930   0.36940   0.01267  Uiso   1.00
H51    H     0.50030   0.21130   0.36940   0.01267  Uiso   1.00
H52    H     0.71100   0.21130   0.41930   0.01267  Uiso   1.00
H53    H     0.35770   0.75020   0.20070   0.01267  Uiso   1.00
H54    H     0.02430   0.06020   0.77480   0.01267  Uiso   1.00
H55    H     0.50030   0.63060   0.78870   0.01267  Uiso   1.00
H56    H     0.72000   0.19600   0.35000   0.01267  Uiso   1.00
H57    H     0.64230   0.24980   0.79930   0.01267  Uiso   1.00
H58    H     0.63530   0.85080   0.94810   0.01267  Uiso   1.00
H59    H     0.96410   0.16500   0.06020   0.01267  Uiso   1.00
H60    H     0.58340   0.79890   0.05190   0.01267  Uiso   1.00
C1     C     0.41555   0.73185  -0.00000   0.01267  Uiso   1.00
C2     C     0.68905   0.59471   0.31476   0.01267  Uiso   1.00
C3     C     0.83260   0.21250   0.78750   0.01267  Uiso   1.00
C4     C     0.12865   0.00000   0.29965   0.01267  Uiso   1.00
C5     C     0.79640   0.77565   0.22435   0.01267  Uiso   1.00
C6     C     0.37990   0.00000   0.78750   0.01267  Uiso   1.00
C7     C     0.58445   0.26815  -0.00000   0.01267  Uiso   1.00
C8     C     0.41904   0.29908   0.09216   0.01267  Uiso   1.00
C9     C     0.00381   0.90947   0.68524   0.01267  Uiso   1.00
C10    C     0.47545   0.29155  -0.00000   0.01267  Uiso   1.00
C11    C     0.11996   0.60876   0.29908   0.01267  Uiso   1.00
C12    C     0.90566   0.90947   0.40529   0.01267  Uiso   1.00
C13    C     0.97925   0.00000   0.22435   0.01267  Uiso   1.00
C14    C     0.68370   0.26815   0.73185   0.01267  Uiso   1.00
C15    C     0.42830   0.29965   0.70035   0.01267  Uiso   1.00
C16    C     0.58445  -0.00000   0.73185   0.01267  Uiso   1.00
C17    C     0.58096   0.70092   0.90784   0.01267  Uiso   1.00
C18    C     0.00420   0.68910   0.00000   0.01267  Uiso   1.00
C19    C     0.62010   0.00000   0.21250   0.01267  Uiso   1.00
C20    C     0.52455   0.70845  -0.00000   0.01267  Uiso   1.00
C21    C     0.00381   0.31476   0.09053   0.01267  Uiso   1.00
C22    C     0.57170   0.70035   0.29965   0.01267  Uiso   1.00
C23    C     0.87135   0.29965  -0.00000   0.01267  Uiso   1.00
C24    C     0.02075   0.22435   0.00000   0.01267  Uiso   1.00
C25    C     0.18390   0.70845   0.29155   0.01267  Uiso   1.00
C26    C     0.99580   0.31090  -0.00000   0.01267  Uiso   1.00
C27    C     0.81610   0.29155   0.70845   0.01267  Uiso   1.00
C28    C     0.31510   0.31090   0.68910   0.01267  Uiso   1.00
C29    C     0.48880   0.60876   0.09216   0.01267  Uiso   1.00
C30    C     0.09434   0.40529   0.90947   0.01267  Uiso   1.00
C31    C     0.68905   0.68524   0.40529   0.01267  Uiso   1.00
C32    C     0.87135   0.00000   0.70035   0.01267  Uiso   1.00
C33    C     0.41904   0.90784   0.70092   0.01267  Uiso   1.00
C34    C     0.31630   0.73185   0.26815   0.01267  Uiso   1.00
C35    C     0.99619   0.09053   0.31476   0.01267  Uiso   1.00
C36    C     0.37990   0.21250  -0.00000   0.01267  Uiso   1.00
C37    C     0.47545   0.00000   0.70845   0.01267  Uiso   1.00
C38    C     0.11996   0.70092   0.39124   0.01267  Uiso   1.00
C39    C     0.00420  -0.00000   0.31090   0.01267  Uiso   1.00
C40    C     0.88004   0.39124   0.70092   0.01267  Uiso   1.00
C41    C     0.97925   0.77565  -0.00000   0.01267  Uiso   1.00
C42    C     0.51120   0.39124   0.90784   0.01267  Uiso   1.00
C43    C     0.31095   0.31476   0.59471   0.01267  Uiso   1.00
C44    C     0.99580   0.00000   0.68910   0.01267  Uiso   1.00
C45    C     0.58096   0.09216   0.29908   0.01267  Uiso   1.00
C46    C     0.90566   0.59471   0.09053   0.01267  Uiso   1.00
C47    C     0.12865   0.70035   0.00000   0.01267  Uiso   1.00
C48    C     0.41555   0.00000   0.26815   0.01267  Uiso   1.00
C49    C     0.88004   0.29908   0.60876   0.01267  Uiso   1.00
C50    C     0.20360   0.22435   0.77565   0.01267  Uiso   1.00
C51    C     0.51120   0.09216   0.60876   0.01267  Uiso   1.00
C52    C     0.02075  -0.00000   0.77565   0.01267  Uiso   1.00
C53    C     0.31095   0.40529   0.68524   0.01267  Uiso   1.00
C54    C     0.52455   0.00000   0.29155   0.01267  Uiso   1.00
C55    C     0.16740   0.78750   0.21250   0.01267  Uiso   1.00
C56    C     0.48880   0.90784   0.39124   0.01267  Uiso   1.00
C57    C     0.68490   0.68910   0.31090   0.01267  Uiso   1.00
C58    C     0.09434   0.09053   0.59471   0.01267  Uiso   1.00
C59    C     0.99619   0.68524   0.90947   0.01267  Uiso   1.00
C60    C     0.62010   0.78750  -0.00000   0.01267  Uiso   1.00
O1     O     0.92053   0.31864   0.14505   0.01267  Uiso   1.00
O2     O     0.21638   0.31514   0.58120   0.01267  Uiso   1.00
O3     O     0.32502   0.89873   0.68347   0.01267  Uiso   1.00
O4     O     0.61536   0.43580   0.85052   0.01267  Uiso   1.00
O5     O     0.06558   0.14505   0.53631   0.01267  Uiso   1.00
O6     O     0.57371   0.58220   0.10127   0.01267  Uiso   1.00
O7     O     0.53412   0.71368   0.85052   0.01267  Uiso   1.00
O8     O     0.79758   0.89634   0.41880   0.01267  Uiso   1.00
O9     O     0.60189   0.68136   0.46369   0.01267  Uiso   1.00
O10    O     0.10922   0.36119   0.40033   0.01267  Uiso   1.00
O11    O     0.06558   0.46369   0.85495   0.01267  Uiso   1.00
O12    O     0.93442   0.53631   0.14505   0.01267  Uiso   1.00
O13    O     0.67498   0.10127   0.31653   0.01267  Uiso   1.00
O14    O     0.39811   0.46369   0.68136   0.01267  Uiso   1.00
O15    O     0.67498   0.68347   0.89873   0.01267  Uiso   1.00
O16    O     0.25197   0.76152   0.63881   0.01267  Uiso   1.00
O17    O     0.50955   0.76152   0.59967   0.01267  Uiso   1.00
O18    O     0.09876   0.89634   0.68486   0.01267  Uiso   1.00
O19    O     0.92053   0.85495   0.68136   0.01267  Uiso   1.00
O20    O     0.53412   0.14948   0.28632   0.01267  Uiso   1.00
O21    O     0.90124   0.68486   0.89634   0.01267  Uiso   1.00
O22    O     0.82044   0.28632   0.56420   0.01267  Uiso   1.00
O23    O     0.38464   0.85052   0.43580   0.01267  Uiso   1.00
O24    O     0.50955   0.40033   0.23848   0.01267  Uiso   1.00
O25    O     0.89078   0.40033   0.36119   0.01267  Uiso   1.00
O26    O     0.17956   0.56420   0.28632   0.01267  Uiso   1.00
O27    O     0.42629   0.10127   0.58220   0.01267  Uiso   1.00
O28    O     0.99151   0.31653   0.58220   0.01267  Uiso   1.00
O29    O     0.09876   0.31514   0.10366   0.01267  Uiso   1.00
O30    O     0.46588   0.28632   0.14948   0.01267  Uiso   1.00
O31    O     0.78362   0.68486   0.41880   0.01267  Uiso   1.00
O32    O     0.38464   0.56420   0.14948   0.01267  Uiso   1.00
O33    O     0.00849   0.58220   0.31653   0.01267  Uiso   1.00
O34    O     0.07947   0.68136   0.85495   0.01267  Uiso   1.00
O35    O     0.90124   0.10366   0.31514   0.01267  Uiso   1.00
O36    O     0.60189   0.53631   0.31864   0.01267  Uiso   1.00
O37    O     0.20242   0.10366   0.58120   0.01267  Uiso   1.00
O38    O     0.99151   0.41780   0.68347   0.01267  Uiso   1.00
O39    O     0.49045   0.59967   0.76152   0.01267  Uiso   1.00
O40    O     0.93442   0.85495   0.46369   0.01267  Uiso   1.00
O41    O     0.42629   0.41780   0.89873   0.01267  Uiso   1.00
O42    O     0.39811   0.31864   0.53631   0.01267  Uiso   1.00
O43    O     0.46588   0.85052   0.71368   0.01267  Uiso   1.00
O44    O     0.89078   0.63881   0.59967   0.01267  Uiso   1.00
O45    O     0.20242   0.41880   0.89634   0.01267  Uiso   1.00
O46    O     0.21638   0.41880   0.68486   0.01267  Uiso   1.00
O47    O     0.78362   0.58120   0.31514   0.01267  Uiso   1.00
O48    O     0.61536   0.14948   0.56420   0.01267  Uiso   1.00
O49    O     0.49045   0.23848   0.40033   0.01267  Uiso   1.00
O50    O     0.32502   0.31653   0.10127   0.01267  Uiso   1.00
O51    O     0.82044   0.43580   0.71368   0.01267  Uiso   1.00
O52    O     0.74803   0.63881   0.76152   0.01267  Uiso   1.00
O53    O     0.74803   0.23848   0.36119   0.01267  Uiso   1.00
O54    O     0.25197   0.36119   0.23848   0.01267  Uiso   1.00
O55    O     0.57371   0.89873   0.41780   0.01267  Uiso   1.00
O56    O     0.07947   0.14505   0.31864   0.01267  Uiso   1.00
O57    O     0.00849   0.68347   0.41780   0.01267  Uiso   1.00
O58    O     0.79758   0.58120   0.10366   0.01267  Uiso   1.00
O59    O     0.10922   0.59967   0.63881   0.01267  Uiso   1.00
O60    O     0.17956   0.71368   0.43580   0.01267  Uiso   1.00
