data_image0
_cell_length_a       15.9584
_cell_length_b       8.2376
_cell_length_c       16.2554
_cell_angle_alpha    90
_cell_angle_beta     105.368
_cell_angle_gamma    90

_symmetry_space_group_name_H-M    "P 1"
_symmetry_int_tables_number       1

loop_
  _symmetry_equiv_pos_as_xyz
  'x, y, z'

loop_
  _atom_site_label
  _atom_site_occupancy
  _atom_site_fract_x
  _atom_site_fract_y
  _atom_site_fract_z
  _atom_site_thermal_displace_type
  _atom_site_B_iso_or_equiv
  _atom_site_type_symbol
  U1       1.0000 0.70752  0.12266  0.25869  Biso   1.000  U
  P1       1.0000 0.93245  0.98310  0.29639  Biso   1.000  P
  P2       1.0000 0.50345  0.97435  0.30373  Biso   1.000  P
  F1       1.0000 0.75471  0.85950  0.29813  Biso   1.000  F
  O1       1.0000 0.85858  0.09990  0.26359  Biso   1.000  O
  O2       1.0000 0.01350  0.03510  0.26553  Biso   1.000  O
  O3       1.0000 0.91580  0.80710  0.26989  Biso   1.000  O
  O4       1.0000 0.96518  0.28940  0.41138  Biso   1.000  O
  H1       1.0000 0.93320  0.27510  0.36180  Biso   1.000  H
  O5       1.0000 0.59588  0.98280  0.29847  Biso   1.000  O
  O6       1.0000 0.45434  0.13150  0.26040  Biso   1.000  O
  O7       1.0000 0.45047  0.82780  0.26612  Biso   1.000  O
  O8       1.0000 0.38225  0.79300  0.39616  Biso   1.000  O
  H2       1.0000 0.39180  0.78470  0.34790  Biso   1.000  H
  C1       1.0000 0.96664  0.99340  0.41086  Biso   1.000  C
  C2       1.0000 0.98000  0.14350  0.45310  Biso   1.000  C
  C3       1.0000 0.98670  0.85140  0.45880  Biso   1.000  C
  H3       1.0000 0.97740  0.74930  0.43070  Biso   1.000  H
  C4       1.0000 0.50134  0.98400  0.41415  Biso   1.000  C
  C5       1.0000 0.44160  0.89600  0.44580  Biso   1.000  C
  C6       1.0000 0.55920  0.08720  0.46950  Biso   1.000  C
  H4       1.0000 0.60010  0.14740  0.44870  Biso   1.000  H
  U2       1.0000 0.79248  0.62266  0.24131  Biso   1.000  U
  P3       1.0000 0.56755  0.48310  0.20361  Biso   1.000  P
  P4       1.0000 0.99655  0.47435  0.19627  Biso   1.000  P
  F2       1.0000 0.74529  0.35950  0.20187  Biso   1.000  F
  O9       1.0000 0.64142  0.59990  0.23641  Biso   1.000  O
  O10      1.0000 0.48650  0.53510  0.23447  Biso   1.000  O
  O11      1.0000 0.58420  0.30710  0.23011  Biso   1.000  O
  O12      1.0000 0.53482  0.78940  0.08862  Biso   1.000  O
  H5       1.0000 0.56680  0.77510  0.13820  Biso   1.000  H
  O13      1.0000 0.90412  0.48280  0.20153  Biso   1.000  O
  O14      1.0000 0.04566  0.63150  0.23960  Biso   1.000  O
  O15      1.0000 0.04953  0.32780  0.23388  Biso   1.000  O
  O16      1.0000 0.11775  0.29300  0.10384  Biso   1.000  O
  H6       1.0000 0.10820  0.28470  0.15210  Biso   1.000  H
  C7       1.0000 0.53336  0.49340  0.08914  Biso   1.000  C
  C8       1.0000 0.52000  0.64350  0.04690  Biso   1.000  C
  C9       1.0000 0.51330  0.35140  0.04120  Biso   1.000  C
  H7       1.0000 0.52260  0.24930  0.06930  Biso   1.000  H
  C10      1.0000 0.99866  0.48400  0.08585  Biso   1.000  C
  C11      1.0000 0.05840  0.39600  0.05420  Biso   1.000  C
  C12      1.0000 0.94080  0.58720  0.03050  Biso   1.000  C
  H8       1.0000 0.89990  0.64740  0.05130  Biso   1.000  H
  U3       1.0000 0.29248  0.87734  0.74131  Biso   1.000  U
  P5       1.0000 0.06755  0.01690  0.70361  Biso   1.000  P
  P6       1.0000 0.49655  0.02565  0.69627  Biso   1.000  P
  F3       1.0000 0.24529  0.14050  0.70187  Biso   1.000  F
  O17      1.0000 0.14142  0.90010  0.73641  Biso   1.000  O
  O18      1.0000 0.98650  0.96490  0.73447  Biso   1.000  O
  O19      1.0000 0.08420  0.19290  0.73011  Biso   1.000  O
  O20      1.0000 0.03482  0.71060  0.58862  Biso   1.000  O
  H9       1.0000 0.06680  0.72490  0.63820  Biso   1.000  H
  O21      1.0000 0.40412  0.01720  0.70153  Biso   1.000  O
  O22      1.0000 0.54566  0.86850  0.73960  Biso   1.000  O
  O23      1.0000 0.54953  0.17220  0.73388  Biso   1.000  O
  O24      1.0000 0.61775  0.20700  0.60384  Biso   1.000  O
  H10      1.0000 0.60820  0.21530  0.65210  Biso   1.000  H
  C13      1.0000 0.03336  0.00660  0.58914  Biso   1.000  C
  C14      1.0000 0.02000  0.85650  0.54690  Biso   1.000  C
  C15      1.0000 0.01330  0.14860  0.54120  Biso   1.000  C
  H11      1.0000 0.02260  0.25070  0.56930  Biso   1.000  H
  C16      1.0000 0.49866  0.01600  0.58585  Biso   1.000  C
  C17      1.0000 0.55840  0.10400  0.55420  Biso   1.000  C
  C18      1.0000 0.44080  0.91280  0.53050  Biso   1.000  C
  H12      1.0000 0.39990  0.85260  0.55130  Biso   1.000  H
  U4       1.0000 0.20752  0.37734  0.75869  Biso   1.000  U
  P7       1.0000 0.43245  0.51690  0.79639  Biso   1.000  P
  P8       1.0000 0.00345  0.52565  0.80373  Biso   1.000  P
  F4       1.0000 0.25471  0.64050  0.79813  Biso   1.000  F
  O25      1.0000 0.35858  0.40010  0.76359  Biso   1.000  O
  O26      1.0000 0.51350  0.46490  0.76553  Biso   1.000  O
  O27      1.0000 0.41580  0.69290  0.76989  Biso   1.000  O
  O28      1.0000 0.46518  0.21060  0.91138  Biso   1.000  O
  H13      1.0000 0.43320  0.22490  0.86180  Biso   1.000  H
  O29      1.0000 0.09588  0.51720  0.79847  Biso   1.000  O
  O30      1.0000 0.95434  0.36850  0.76040  Biso   1.000  O
  O31      1.0000 0.95047  0.67220  0.76612  Biso   1.000  O
  O32      1.0000 0.88225  0.70700  0.89616  Biso   1.000  O
  H14      1.0000 0.89180  0.71530  0.84790  Biso   1.000  H
  C19      1.0000 0.46664  0.50660  0.91086  Biso   1.000  C
  C20      1.0000 0.48000  0.35650  0.95310  Biso   1.000  C
  C21      1.0000 0.48670  0.64860  0.95880  Biso   1.000  C
  H15      1.0000 0.47740  0.75070  0.93070  Biso   1.000  H
  C22      1.0000 0.00134  0.51600  0.91415  Biso   1.000  C
  C23      1.0000 0.94160  0.60400  0.94580  Biso   1.000  C
  C24      1.0000 0.05920  0.41280  0.96950  Biso   1.000  C
  H16      1.0000 0.10010  0.35260  0.94870  Biso   1.000  H
