data_image0
_cell_length_a       15.052
_cell_length_b       8.147
_cell_length_c       16.164
_cell_angle_alpha    90
_cell_angle_beta     102.843
_cell_angle_gamma    90

_symmetry_space_group_name_H-M    "P 1"
_symmetry_int_tables_number       1

loop_
  _symmetry_equiv_pos_as_xyz
  'x, y, z'

loop_
  _atom_site_label
  _atom_site_occupancy
  _atom_site_fract_x
  _atom_site_fract_y
  _atom_site_fract_z
  _atom_site_thermal_displace_type
  _atom_site_B_iso_or_equiv
  _atom_site_type_symbol
  U1       1.0000 0.20398  0.13198  0.25807  Biso   1.000  U
  P1       1.0000 0.98413  0.98500  0.29926  Biso   1.000  P
  P2       1.0000 0.44147  0.99560  0.29744  Biso   1.000  P
  F1       1.0000 0.25340  0.87070  0.29880  Biso   1.000  F
  O1       1.0000 0.08000  0.98740  0.28490  Biso   1.000  O
  O2       1.0000 0.93280  0.14590  0.26020  Biso   1.000  O
  O3       1.0000 0.92630  0.83910  0.26480  Biso   1.000  O
  O4       1.0000 0.86750  0.80030  0.40600  Biso   1.000  O
  H1       1.0000 0.87350  0.79310  0.35570  Biso   1.000  H
  O5       1.0000 0.36490  0.11670  0.26670  Biso   1.000  O
  O6       1.0000 0.52880  0.04950  0.26700  Biso   1.000  O
  O7       1.0000 0.42420  0.82000  0.26870  Biso   1.000  O
  O8       1.0000 0.45400  0.29730  0.41800  Biso   1.000  O
  H2       1.0000 0.42450  0.28490  0.36780  Biso   1.000  H
  C1       1.0000 0.99090  0.99350  0.41150  Biso   1.000  C
  C2       1.0000 0.93360  0.90330  0.45110  Biso   1.000  C
  C3       1.0000 0.05760  0.08840  0.46270  Biso   1.000  C
  H3       1.0000 0.09840  0.14940  0.43740  Biso   1.000  H
  C4       1.0000 0.47100  0.00000  0.41240  Biso   1.000  C
  C5       1.0000 0.47560  0.14600  0.45490  Biso   1.000  C
  C6       1.0000 0.49480  0.85360  0.45650  Biso   1.000  C
  H4       1.0000 0.49100  0.75300  0.42630  Biso   1.000  H
  U2       1.0000 0.29602  0.63198  0.24193  Biso   1.000  U
  P3       1.0000 0.51587  0.48500  0.20074  Biso   1.000  P
  P4       1.0000 0.05853  0.49560  0.20256  Biso   1.000  P
  F2       1.0000 0.24660  0.37070  0.20120  Biso   1.000  F
  O9       1.0000 0.42000  0.48740  0.21510  Biso   1.000  O
  O10      1.0000 0.56720  0.64590  0.23980  Biso   1.000  O
  O11      1.0000 0.57370  0.33910  0.23520  Biso   1.000  O
  O12      1.0000 0.63250  0.30030  0.09400  Biso   1.000  O
  H5       1.0000 0.62650  0.29310  0.14430  Biso   1.000  H
  O13      1.0000 0.13510  0.61670  0.23330  Biso   1.000  O
  O14      1.0000 0.97120  0.54950  0.23300  Biso   1.000  O
  O15      1.0000 0.07580  0.32000  0.23130  Biso   1.000  O
  O16      1.0000 0.04600  0.79730  0.08200  Biso   1.000  O
  H6       1.0000 0.07550  0.78490  0.13220  Biso   1.000  H
  C7       1.0000 0.50910  0.49350  0.08850  Biso   1.000  C
  C8       1.0000 0.56640  0.40330  0.04890  Biso   1.000  C
  C9       1.0000 0.44240  0.58840  0.03730  Biso   1.000  C
  H7       1.0000 0.40160  0.64940  0.06260  Biso   1.000  H
  C10      1.0000 0.02900  0.50000  0.08760  Biso   1.000  C
  C11      1.0000 0.02440  0.64600  0.04510  Biso   1.000  C
  C12      1.0000 0.00520  0.35360  0.04350  Biso   1.000  C
  H8       1.0000 0.00900  0.25300  0.07370  Biso   1.000  H
  U3       1.0000 0.79602  0.86802  0.74193  Biso   1.000  U
  P5       1.0000 0.01587  0.01500  0.70074  Biso   1.000  P
  P6       1.0000 0.55853  0.00440  0.70256  Biso   1.000  P
  F3       1.0000 0.74660  0.12930  0.70120  Biso   1.000  F
  O17      1.0000 0.92000  0.01260  0.71510  Biso   1.000  O
  O18      1.0000 0.06720  0.85410  0.73980  Biso   1.000  O
  O19      1.0000 0.07370  0.16090  0.73520  Biso   1.000  O
  O20      1.0000 0.13250  0.19970  0.59400  Biso   1.000  O
  H9       1.0000 0.12650  0.20690  0.64430  Biso   1.000  H
  O21      1.0000 0.63510  0.88330  0.73330  Biso   1.000  O
  O22      1.0000 0.47120  0.95050  0.73300  Biso   1.000  O
  O23      1.0000 0.57580  0.18000  0.73130  Biso   1.000  O
  O24      1.0000 0.54600  0.70270  0.58200  Biso   1.000  O
  H10      1.0000 0.57550  0.71510  0.63220  Biso   1.000  H
  C13      1.0000 0.00910  0.00650  0.58850  Biso   1.000  C
  C14      1.0000 0.06640  0.09670  0.54890  Biso   1.000  C
  C15      1.0000 0.94240  0.91160  0.53730  Biso   1.000  C
  H11      1.0000 0.90160  0.85060  0.56260  Biso   1.000  H
  C16      1.0000 0.52900  0.00000  0.58760  Biso   1.000  C
  C17      1.0000 0.52440  0.85400  0.54510  Biso   1.000  C
  C18      1.0000 0.50520  0.14640  0.54350  Biso   1.000  C
  H12      1.0000 0.50900  0.24700  0.57370  Biso   1.000  H
  U4       1.0000 0.70398  0.36802  0.75807  Biso   1.000  U
  P7       1.0000 0.48413  0.51500  0.79926  Biso   1.000  P
  P8       1.0000 0.94147  0.50440  0.79744  Biso   1.000  P
  F4       1.0000 0.75340  0.62930  0.79880  Biso   1.000  F
  O25      1.0000 0.58000  0.51260  0.78490  Biso   1.000  O
  O26      1.0000 0.43280  0.35410  0.76020  Biso   1.000  O
  O27      1.0000 0.42630  0.66090  0.76480  Biso   1.000  O
  O28      1.0000 0.36750  0.69970  0.90600  Biso   1.000  O
  H13      1.0000 0.37350  0.70690  0.85570  Biso   1.000  H
  O29      1.0000 0.86490  0.38330  0.76670  Biso   1.000  O
  O30      1.0000 0.02880  0.45050  0.76700  Biso   1.000  O
  O31      1.0000 0.92420  0.68000  0.76870  Biso   1.000  O
  O32      1.0000 0.95400  0.20270  0.91800  Biso   1.000  O
  H14      1.0000 0.92450  0.21510  0.86780  Biso   1.000  H
  C19      1.0000 0.49090  0.50650  0.91150  Biso   1.000  C
  C20      1.0000 0.43360  0.59670  0.95110  Biso   1.000  C
  C21      1.0000 0.55760  0.41160  0.96270  Biso   1.000  C
  H15      1.0000 0.59840  0.35060  0.93740  Biso   1.000  H
  C22      1.0000 0.97100  0.50000  0.91240  Biso   1.000  C
  C23      1.0000 0.97560  0.35400  0.95490  Biso   1.000  C
  C24      1.0000 0.99480  0.64640  0.95650  Biso   1.000  C
  H16      1.0000 0.99100  0.74700  0.92630  Biso   1.000  H
