data_NOWGIR_clean
_audit_creation_date              2015-10-16
_audit_creation_method            'Materials Studio'
_symmetry_space_group_name_H-M    'P1'
_symmetry_Int_Tables_number       1
_symmetry_cell_setting            triclinic
loop_
_symmetry_equiv_pos_as_xyz
  x,y,z
_cell_length_a                    10.1912
_cell_length_b                    13.7008
_cell_length_c                    24.4710
_cell_angle_alpha                 81.0302
_cell_angle_beta                  77.9813
_cell_angle_gamma                 68.1660
loop_
_atom_site_label
_atom_site_type_symbol
_atom_site_fract_x
_atom_site_fract_y
_atom_site_fract_z
_atom_site_U_iso_or_equiv
_atom_site_adp_type
_atom_site_occupancy
Ag1    Ag    0.56896   0.05147   0.34645   0.01267  Uiso   1.00
Ag2    Ag    0.94423   0.56600   0.12172   0.01267  Uiso   1.00
Ag3    Ag    0.29174   0.96758   0.83716   0.01267  Uiso   1.00
Ag4    Ag    0.20319   0.00955   0.39029   0.01267  Uiso   1.00
Ag5    Ag    0.39697   0.50955   0.89029   0.01267  Uiso   1.00
Ag6    Ag    0.03567   0.26855   0.82717   0.01267  Uiso   1.00
Ag7    Ag    0.86861   0.76855   0.32717   0.01267  Uiso   1.00
Ag8    Ag    0.90352   0.46758   0.33716   0.01267  Uiso   1.00
Ag9    Ag    0.67884   0.27261   0.81437   0.01267  Uiso   1.00
Ag10   Ag    0.23418   0.77261   0.31437   0.01267  Uiso   1.00
Ag11   Ag    0.03312   0.55147   0.84645   0.01267  Uiso   1.00
Ag12   Ag    0.65739   0.07083   0.51247   0.01267  Uiso   1.00
Ag13   Ag    0.75931   0.57083   0.01247   0.01267  Uiso   1.00
Ag14   Ag    0.36805   0.06600   0.62172   0.01267  Uiso   1.00
H1     H     0.29330   0.58270   0.76850   0.01267  Uiso   1.00
H2     H     0.69940   0.93880   0.76200   0.01267  Uiso   1.00
H3     H     0.98450   0.08820   0.48180   0.01267  Uiso   1.00
H4     H     0.26880   0.88170   0.72610   0.01267  Uiso   1.00
H5     H     0.50290   0.58120   0.31680   0.01267  Uiso   1.00
H6     H     0.44550   0.58820   0.98180   0.01267  Uiso   1.00
H7     H     0.96010   0.23290   0.33810   0.01267  Uiso   1.00
H8     H     0.38390   0.70550   0.71370   0.01267  Uiso   1.00
H9     H     0.19690   0.20550   0.21370   0.01267  Uiso   1.00
H10    H     0.61240   0.45580   0.40360   0.01267  Uiso   1.00
H11    H     0.78350   0.70110   0.22390   0.01267  Uiso   1.00
H12    H     0.59010   0.92480   0.69500   0.01267  Uiso   1.00
H13    H     0.79010   0.42480   0.19500   0.01267  Uiso   1.00
H14    H     0.35550   0.08270   0.26850   0.01267  Uiso   1.00
H15    H     0.40570   0.30980   0.33160   0.01267  Uiso   1.00
H16    H     0.76000   0.02410   0.62390   0.01267  Uiso   1.00
H17    H     0.59910   0.08120   0.81680   0.01267  Uiso   1.00
H18    H     0.46890   0.73290   0.83810   0.01267  Uiso   1.00
H19    H     0.17810   0.97660   0.61940   0.01267  Uiso   1.00
H20    H     0.52820   0.95580   0.90360   0.01267  Uiso   1.00
H21    H     0.95290   0.80980   0.83160   0.01267  Uiso   1.00
H22    H     0.59980   0.43880   0.26200   0.01267  Uiso   1.00
H23    H     0.49700   0.33530   0.43290   0.01267  Uiso   1.00
H24    H     0.12340   0.38170   0.22610   0.01267  Uiso   1.00
H25    H     0.39910   0.48060   0.16900   0.01267  Uiso   1.00
H26    H     0.73480   0.83530   0.93290   0.01267  Uiso   1.00
H27    H     0.22590   0.47660   0.11940   0.01267  Uiso   1.00
H28    H     0.95130   0.98060   0.66900   0.01267  Uiso   1.00
H29    H     0.59200   0.52410   0.12390   0.01267  Uiso   1.00
H30    H     0.61570   0.16220   0.41060   0.01267  Uiso   1.00
H31    H     0.81150   0.66220   0.91060   0.01267  Uiso   1.00
H32    H     0.29150   0.20110   0.72390   0.01267  Uiso   1.00
C1     C     0.52230   0.52760   0.10380   0.01267  Uiso   1.00
C2     C     0.55800   0.88570   0.89590   0.01267  Uiso   1.00
C3     C     0.37460   0.14750   0.73250   0.01267  Uiso   1.00
C4     C     0.25530   0.36400   0.28140   0.01267  Uiso   1.00
C5     C     0.69320   0.56890   0.86090   0.01267  Uiso   1.00
C6     C     0.63870   0.49200   0.25500   0.01267  Uiso   1.00
C7     C     0.66260   0.21050   0.40090   0.01267  Uiso   1.00
C8     C     0.52240   0.75360   0.85740   0.01267  Uiso   1.00
C9     C     0.43020   0.15750   0.77730   0.01267  Uiso   1.00
C10    C     0.09930   0.86400   0.78140   0.01267  Uiso   1.00
C11    C     0.68220   0.81420   0.91340   0.01267  Uiso   1.00
C12    C     0.59020   0.31420   0.41340   0.01267  Uiso   1.00
C13    C     0.02590   0.97710   0.79230   0.01267  Uiso   1.00
C14    C     0.43270   0.56780   0.02000   0.01267  Uiso   1.00
C15    C     0.20470   0.47710   0.29230   0.01267  Uiso   1.00
C16    C     0.80300   0.17820   0.37420   0.01267  Uiso   1.00
C17    C     0.23390   0.22820   0.23900   0.01267  Uiso   1.00
C18    C     0.66040   0.38570   0.39590   0.01267  Uiso   1.00
C19    C     0.55200   0.98510   0.71450   0.01267  Uiso   1.00
C20    C     0.74840   0.48510   0.21450   0.01267  Uiso   1.00
C21    C     0.55450   0.07810   0.78790   0.01267  Uiso   1.00
C22    C     0.74540   0.64750   0.23250   0.01267  Uiso   1.00
C23    C     0.29890   0.72820   0.73900   0.01267  Uiso   1.00
C24    C     0.64460   0.67820   0.87420   0.01267  Uiso   1.00
C25    C     0.72600   0.71050   0.90090   0.01267  Uiso   1.00
C26    C     0.04270   0.78830   0.80910   0.01267  Uiso   1.00
C27    C     0.63500   0.65750   0.27730   0.01267  Uiso   1.00
C28    C     0.37120   0.25330   0.80950   0.01267  Uiso   1.00
C29    C     0.29860   0.50240   0.10240   0.01267  Uiso   1.00
C30    C     0.19260   0.33220   0.24540   0.01267  Uiso   1.00
C31    C     0.97950   0.06780   0.52000   0.01267  Uiso   1.00
C32    C     0.87700   0.06890   0.36090   0.01267  Uiso   1.00
C33    C     0.61430   0.99200   0.75500   0.01267  Uiso   1.00
C34    C     0.56600   0.75330   0.30950   0.01267  Uiso   1.00
C35    C     0.24120   0.65430   0.77090   0.01267  Uiso   1.00
C36    C     0.30950   0.54820   0.04380   0.01267  Uiso   1.00
C37    C     0.86660   0.25360   0.35740   0.01267  Uiso   1.00
C38    C     0.57950   0.57810   0.28790   0.01267  Uiso   1.00
C39    C     0.22980   0.83220   0.74540   0.01267  Uiso   1.00
C40    C     0.33360   0.15430   0.27090   0.01267  Uiso   1.00
C41    C     0.40630   0.50070   0.13070   0.01267  Uiso   1.00
C42    C     0.09850   0.04820   0.54380   0.01267  Uiso   1.00
C43    C     0.09660   0.00240   0.60240   0.01267  Uiso   1.00
C44    C     0.96230   0.00070   0.63070   0.01267  Uiso   1.00
C45    C     0.84630   0.02760   0.60380   0.01267  Uiso   1.00
C46    C     0.35990   0.28830   0.30910   0.01267  Uiso   1.00
C47    C     0.23920   0.05390   0.51350   0.01267  Uiso   1.00
C48    C     0.19340   0.55390   0.01350   0.01267  Uiso   1.00
N1     N     0.83190   0.51380   0.84900   0.01267  Uiso   1.00
N2     N     0.43220   0.06520   0.70040   0.01267  Uiso   1.00
N3     N     0.79960   0.35610   0.36750   0.01267  Uiso   1.00
N4     N     0.01550   0.01510   0.35610   0.01267  Uiso   1.00
N5     N     0.20960   0.55610   0.95870   0.01267  Uiso   1.00
N6     N     0.90590   0.91860   0.33700   0.01267  Uiso   1.00
N7     N     0.41510   0.88710   0.34670   0.01267  Uiso   1.00
N8     N     0.23310   0.30040   0.82380   0.01267  Uiso   1.00
N9     N     0.80530   0.01380   0.34900   0.01267  Uiso   1.00
N10    N     0.27560   0.05610   0.45870   0.01267  Uiso   1.00
N11    N     0.44600   0.06340   0.49600   0.01267  Uiso   1.00
N12    N     0.61330   0.51510   0.85610   0.01267  Uiso   1.00
N13    N     0.35110   0.38710   0.84670   0.01267  Uiso   1.00
N14    N     0.53590   0.55890   0.04870   0.01267  Uiso   1.00
N15    N     0.03350   0.91580   0.34140   0.01267  Uiso   1.00
N16    N     0.40600   0.06490   0.44610   0.01267  Uiso   1.00
N17    N     0.11530   0.68330   0.80430   0.01267  Uiso   1.00
N18    N     0.99430   0.12940   0.81300   0.01267  Uiso   1.00
N19    N     0.83850   0.41860   0.83700   0.01267  Uiso   1.00
N20    N     0.34070   0.05740   0.53680   0.01267  Uiso   1.00
N21    N     0.85650   0.05890   0.54870   0.01267  Uiso   1.00
N22    N     0.09430   0.03310   0.80630   0.01267  Uiso   1.00
N23    N     0.08300   0.56490   0.94610   0.01267  Uiso   1.00
N24    N     0.99460   0.56340   0.99600   0.01267  Uiso   1.00
N25    N     0.06330   0.62940   0.31300   0.01267  Uiso   1.00
N26    N     0.80220   0.56520   0.20040   0.01267  Uiso   1.00
N27    N     0.70930   0.41580   0.84140   0.01267  Uiso   1.00
N28    N     0.88920   0.03360   0.79000   0.01267  Uiso   1.00
N29    N     0.19350   0.62890   0.30390   0.01267  Uiso   1.00
N30    N     0.28720   0.53360   0.29000   0.01267  Uiso   1.00
N31    N     0.43010   0.79950   0.32170   0.01267  Uiso   1.00
N32    N     0.47680   0.85610   0.86750   0.01267  Uiso   1.00
N33    N     0.22310   0.38650   0.84830   0.01267  Uiso   1.00
N34    N     0.64270   0.80040   0.32380   0.01267  Uiso   1.00
N35    N     0.87370   0.12890   0.80390   0.01267  Uiso   1.00
N36    N     0.44870   0.29950   0.82170   0.01267  Uiso   1.00
N37    N     0.54210   0.88650   0.34830   0.01267  Uiso   1.00
N38    N     0.06510   0.55740   0.03680   0.01267  Uiso   1.00
N39    N     0.06630   0.53310   0.30630   0.01267  Uiso   1.00
N40    N     0.39710   0.18330   0.30430   0.01267  Uiso   1.00
