data_image0
_cell_length_a       20.4421
_cell_length_b       20.4421
_cell_length_c       20.4421
_cell_angle_alpha    90
_cell_angle_beta     90
_cell_angle_gamma    90

_symmetry_space_group_name_H-M    "P 1"
_symmetry_int_tables_number       1

loop_
  _symmetry_equiv_pos_as_xyz
  'x, y, z'

loop_
  _atom_site_label
  _atom_site_occupancy
  _atom_site_fract_x
  _atom_site_fract_y
  _atom_site_fract_z
  _atom_site_thermal_displace_type
  _atom_site_B_iso_or_equiv
  _atom_site_type_symbol
  Zn1      1.0000 0.00000  0.00000  0.42764  Biso   1.000  Zn
  Zn2      1.0000 0.00000  0.00000  0.57236  Biso   1.000  Zn
  Zn3      1.0000 0.42764  0.00000  0.00000  Biso   1.000  Zn
  Zn4      1.0000 0.57236  0.00000  0.00000  Biso   1.000  Zn
  Zn5      1.0000 0.00000  0.42764  0.00000  Biso   1.000  Zn
  Zn6      1.0000 0.00000  0.57236  0.00000  Biso   1.000  Zn
  Zn7      1.0000 0.33703  0.33703  0.33703  Biso   1.000  Zn
  Zn8      1.0000 0.23769  0.23769  0.23769  Biso   1.000  Zn
  Zn9      1.0000 0.66297  0.66297  0.33703  Biso   1.000  Zn
  Zn10     1.0000 0.76231  0.76231  0.23769  Biso   1.000  Zn
  Zn11     1.0000 0.66297  0.33703  0.66297  Biso   1.000  Zn
  Zn12     1.0000 0.76231  0.23769  0.76231  Biso   1.000  Zn
  Zn13     1.0000 0.33703  0.66297  0.66297  Biso   1.000  Zn
  Zn14     1.0000 0.23769  0.76231  0.76231  Biso   1.000  Zn
  Zn15     1.0000 0.33703  0.33703  0.66297  Biso   1.000  Zn
  Zn16     1.0000 0.23769  0.23769  0.76231  Biso   1.000  Zn
  Zn17     1.0000 0.66297  0.66297  0.66297  Biso   1.000  Zn
  Zn18     1.0000 0.76231  0.76231  0.76231  Biso   1.000  Zn
  Zn19     1.0000 0.33703  0.66297  0.33703  Biso   1.000  Zn
  Zn20     1.0000 0.23769  0.76231  0.23769  Biso   1.000  Zn
  Zn21     1.0000 0.66297  0.33703  0.33703  Biso   1.000  Zn
  Zn22     1.0000 0.76231  0.23769  0.23769  Biso   1.000  Zn
  O1       1.0000 0.28190  0.28190  0.38700  Biso   1.000  O
  O2       1.0000 0.21700  0.21700  0.32790  Biso   1.000  O
  O3       1.0000 0.06881  0.06881  0.44450  Biso   1.000  O
  C1       1.0000 0.21160  0.21160  0.44140  Biso   1.000  C
  C2       1.0000 0.23900  0.23900  0.37980  Biso   1.000  C
  C3       1.0000 0.16430  0.16430  0.44160  Biso   1.000  C
  H1       1.0000 0.14830  0.14830  0.40220  Biso   1.000  H
  O4       1.0000 0.71810  0.71810  0.38700  Biso   1.000  O
  O5       1.0000 0.78300  0.78300  0.32790  Biso   1.000  O
  O6       1.0000 0.93119  0.93119  0.44450  Biso   1.000  O
  C4       1.0000 0.78840  0.78840  0.44140  Biso   1.000  C
  C5       1.0000 0.76100  0.76100  0.37980  Biso   1.000  C
  C6       1.0000 0.83570  0.83570  0.44160  Biso   1.000  C
  H2       1.0000 0.85170  0.85170  0.40220  Biso   1.000  H
  O7       1.0000 0.71810  0.28190  0.61300  Biso   1.000  O
  O8       1.0000 0.78300  0.21700  0.67210  Biso   1.000  O
  O9       1.0000 0.93119  0.06881  0.55550  Biso   1.000  O
  C7       1.0000 0.78840  0.21160  0.55860  Biso   1.000  C
  C8       1.0000 0.76100  0.23900  0.62020  Biso   1.000  C
  C9       1.0000 0.83570  0.16430  0.55840  Biso   1.000  C
  H3       1.0000 0.85170  0.14830  0.59780  Biso   1.000  H
  O10      1.0000 0.28190  0.71810  0.61300  Biso   1.000  O
  O11      1.0000 0.21700  0.78300  0.67210  Biso   1.000  O
  O12      1.0000 0.06881  0.93119  0.55550  Biso   1.000  O
  C10      1.0000 0.21160  0.78840  0.55860  Biso   1.000  C
  C11      1.0000 0.23900  0.76100  0.62020  Biso   1.000  C
  C12      1.0000 0.16430  0.83570  0.55840  Biso   1.000  C
  H4       1.0000 0.14830  0.85170  0.59780  Biso   1.000  H
  O13      1.0000 0.38700  0.28190  0.28190  Biso   1.000  O
  O14      1.0000 0.32790  0.21700  0.21700  Biso   1.000  O
  O15      1.0000 0.44450  0.06881  0.06881  Biso   1.000  O
  C13      1.0000 0.44140  0.21160  0.21160  Biso   1.000  C
  C14      1.0000 0.37980  0.23900  0.23900  Biso   1.000  C
  C15      1.0000 0.44160  0.16430  0.16430  Biso   1.000  C
  H5       1.0000 0.40220  0.14830  0.14830  Biso   1.000  H
  O16      1.0000 0.38700  0.71810  0.71810  Biso   1.000  O
  O17      1.0000 0.32790  0.78300  0.78300  Biso   1.000  O
  O18      1.0000 0.44450  0.93119  0.93119  Biso   1.000  O
  C16      1.0000 0.44140  0.78840  0.78840  Biso   1.000  C
  C17      1.0000 0.37980  0.76100  0.76100  Biso   1.000  C
  C18      1.0000 0.44160  0.83570  0.83570  Biso   1.000  C
  H6       1.0000 0.40220  0.85170  0.85170  Biso   1.000  H
  O19      1.0000 0.61300  0.71810  0.28190  Biso   1.000  O
  O20      1.0000 0.67210  0.78300  0.21700  Biso   1.000  O
  O21      1.0000 0.55550  0.93119  0.06881  Biso   1.000  O
  C19      1.0000 0.55860  0.78840  0.21160  Biso   1.000  C
  C20      1.0000 0.62020  0.76100  0.23900  Biso   1.000  C
  C21      1.0000 0.55840  0.83570  0.16430  Biso   1.000  C
  H7       1.0000 0.59780  0.85170  0.14830  Biso   1.000  H
  O22      1.0000 0.61300  0.28190  0.71810  Biso   1.000  O
  O23      1.0000 0.67210  0.21700  0.78300  Biso   1.000  O
  O24      1.0000 0.55550  0.06881  0.93119  Biso   1.000  O
  C22      1.0000 0.55860  0.21160  0.78840  Biso   1.000  C
  C23      1.0000 0.62020  0.23900  0.76100  Biso   1.000  C
  C24      1.0000 0.55840  0.16430  0.83570  Biso   1.000  C
  H8       1.0000 0.59780  0.14830  0.85170  Biso   1.000  H
  O25      1.0000 0.28190  0.38700  0.28190  Biso   1.000  O
  O26      1.0000 0.21700  0.32790  0.21700  Biso   1.000  O
  O27      1.0000 0.06881  0.44450  0.06881  Biso   1.000  O
  C25      1.0000 0.21160  0.44140  0.21160  Biso   1.000  C
  C26      1.0000 0.23900  0.37980  0.23900  Biso   1.000  C
  C27      1.0000 0.16430  0.44160  0.16430  Biso   1.000  C
  H9       1.0000 0.14830  0.40220  0.14830  Biso   1.000  H
  O28      1.0000 0.71810  0.38700  0.71810  Biso   1.000  O
  O29      1.0000 0.78300  0.32790  0.78300  Biso   1.000  O
  O30      1.0000 0.93119  0.44450  0.93119  Biso   1.000  O
  C28      1.0000 0.78840  0.44140  0.78840  Biso   1.000  C
  C29      1.0000 0.76100  0.37980  0.76100  Biso   1.000  C
  C30      1.0000 0.83570  0.44160  0.83570  Biso   1.000  C
  H10      1.0000 0.85170  0.40220  0.85170  Biso   1.000  H
  O31      1.0000 0.28190  0.61300  0.71810  Biso   1.000  O
  O32      1.0000 0.21700  0.67210  0.78300  Biso   1.000  O
  O33      1.0000 0.06881  0.55550  0.93119  Biso   1.000  O
  C31      1.0000 0.21160  0.55860  0.78840  Biso   1.000  C
  C32      1.0000 0.23900  0.62020  0.76100  Biso   1.000  C
  C33      1.0000 0.16430  0.55840  0.83570  Biso   1.000  C
  H11      1.0000 0.14830  0.59780  0.85170  Biso   1.000  H
  O34      1.0000 0.71810  0.61300  0.28190  Biso   1.000  O
  O35      1.0000 0.78300  0.67210  0.21700  Biso   1.000  O
  O36      1.0000 0.93119  0.55550  0.06881  Biso   1.000  O
  C34      1.0000 0.78840  0.55860  0.21160  Biso   1.000  C
  C35      1.0000 0.76100  0.62020  0.23900  Biso   1.000  C
  C36      1.0000 0.83570  0.55840  0.16430  Biso   1.000  C
  H12      1.0000 0.85170  0.59780  0.14830  Biso   1.000  H
  O37      1.0000 0.28190  0.28190  0.61300  Biso   1.000  O
  O38      1.0000 0.21700  0.21700  0.67210  Biso   1.000  O
  O39      1.0000 0.06881  0.06881  0.55550  Biso   1.000  O
  C37      1.0000 0.21160  0.21160  0.55860  Biso   1.000  C
  C38      1.0000 0.23900  0.23900  0.62020  Biso   1.000  C
  C39      1.0000 0.16430  0.16430  0.55840  Biso   1.000  C
  H13      1.0000 0.14830  0.14830  0.59780  Biso   1.000  H
  O40      1.0000 0.71810  0.71810  0.61300  Biso   1.000  O
  O41      1.0000 0.78300  0.78300  0.67210  Biso   1.000  O
  O42      1.0000 0.93119  0.93119  0.55550  Biso   1.000  O
  C40      1.0000 0.78840  0.78840  0.55860  Biso   1.000  C
  C41      1.0000 0.76100  0.76100  0.62020  Biso   1.000  C
  C42      1.0000 0.83570  0.83570  0.55840  Biso   1.000  C
  H14      1.0000 0.85170  0.85170  0.59780  Biso   1.000  H
  O43      1.0000 0.28190  0.71810  0.38700  Biso   1.000  O
  O44      1.0000 0.21700  0.78300  0.32790  Biso   1.000  O
  O45      1.0000 0.06881  0.93119  0.44450  Biso   1.000  O
  C43      1.0000 0.21160  0.78840  0.44140  Biso   1.000  C
  C44      1.0000 0.23900  0.76100  0.37980  Biso   1.000  C
  C45      1.0000 0.16430  0.83570  0.44160  Biso   1.000  C
  H15      1.0000 0.14830  0.85170  0.40220  Biso   1.000  H
  O46      1.0000 0.71810  0.28190  0.38700  Biso   1.000  O
  O47      1.0000 0.78300  0.21700  0.32790  Biso   1.000  O
  O48      1.0000 0.93119  0.06881  0.44450  Biso   1.000  O
  C46      1.0000 0.78840  0.21160  0.44140  Biso   1.000  C
  C47      1.0000 0.76100  0.23900  0.37980  Biso   1.000  C
  C48      1.0000 0.83570  0.16430  0.44160  Biso   1.000  C
  H16      1.0000 0.85170  0.14830  0.40220  Biso   1.000  H
  O49      1.0000 0.28190  0.38700  0.71810  Biso   1.000  O
  O50      1.0000 0.21700  0.32790  0.78300  Biso   1.000  O
  O51      1.0000 0.06881  0.44450  0.93119  Biso   1.000  O
  C49      1.0000 0.21160  0.44140  0.78840  Biso   1.000  C
  C50      1.0000 0.23900  0.37980  0.76100  Biso   1.000  C
  C51      1.0000 0.16430  0.44160  0.83570  Biso   1.000  C
  H17      1.0000 0.14830  0.40220  0.85170  Biso   1.000  H
  O52      1.0000 0.71810  0.38700  0.28190  Biso   1.000  O
  O53      1.0000 0.78300  0.32790  0.21700  Biso   1.000  O
  O54      1.0000 0.93119  0.44450  0.06881  Biso   1.000  O
  C52      1.0000 0.78840  0.44140  0.21160  Biso   1.000  C
  C53      1.0000 0.76100  0.37980  0.23900  Biso   1.000  C
  C54      1.0000 0.83570  0.44160  0.16430  Biso   1.000  C
  H18      1.0000 0.85170  0.40220  0.14830  Biso   1.000  H
  O55      1.0000 0.71810  0.61300  0.71810  Biso   1.000  O
  O56      1.0000 0.78300  0.67210  0.78300  Biso   1.000  O
  O57      1.0000 0.93119  0.55550  0.93119  Biso   1.000  O
  C55      1.0000 0.78840  0.55860  0.78840  Biso   1.000  C
  C56      1.0000 0.76100  0.62020  0.76100  Biso   1.000  C
  C57      1.0000 0.83570  0.55840  0.83570  Biso   1.000  C
  H19      1.0000 0.85170  0.59780  0.85170  Biso   1.000  H
  O58      1.0000 0.28190  0.61300  0.28190  Biso   1.000  O
  O59      1.0000 0.21700  0.67210  0.21700  Biso   1.000  O
  O60      1.0000 0.06881  0.55550  0.06881  Biso   1.000  O
  C58      1.0000 0.21160  0.55860  0.21160  Biso   1.000  C
  C59      1.0000 0.23900  0.62020  0.23900  Biso   1.000  C
  C60      1.0000 0.16430  0.55840  0.16430  Biso   1.000  C
  H20      1.0000 0.14830  0.59780  0.14830  Biso   1.000  H
  O61      1.0000 0.38700  0.28190  0.71810  Biso   1.000  O
  O62      1.0000 0.32790  0.21700  0.78300  Biso   1.000  O
  O63      1.0000 0.44450  0.06881  0.93119  Biso   1.000  O
  C61      1.0000 0.44140  0.21160  0.78840  Biso   1.000  C
  C62      1.0000 0.37980  0.23900  0.76100  Biso   1.000  C
  C63      1.0000 0.44160  0.16430  0.83570  Biso   1.000  C
  H21      1.0000 0.40220  0.14830  0.85170  Biso   1.000  H
  O64      1.0000 0.38700  0.71810  0.28190  Biso   1.000  O
  O65      1.0000 0.32790  0.78300  0.21700  Biso   1.000  O
  O66      1.0000 0.44450  0.93119  0.06881  Biso   1.000  O
  C64      1.0000 0.44140  0.78840  0.21160  Biso   1.000  C
  C65      1.0000 0.37980  0.76100  0.23900  Biso   1.000  C
  C66      1.0000 0.44160  0.83570  0.16430  Biso   1.000  C
  H22      1.0000 0.40220  0.85170  0.14830  Biso   1.000  H
  O67      1.0000 0.61300  0.28190  0.28190  Biso   1.000  O
  O68      1.0000 0.67210  0.21700  0.21700  Biso   1.000  O
  O69      1.0000 0.55550  0.06881  0.06881  Biso   1.000  O
  C67      1.0000 0.55860  0.21160  0.21160  Biso   1.000  C
  C68      1.0000 0.62020  0.23900  0.23900  Biso   1.000  C
  C69      1.0000 0.55840  0.16430  0.16430  Biso   1.000  C
  H23      1.0000 0.59780  0.14830  0.14830  Biso   1.000  H
  O70      1.0000 0.61300  0.71810  0.71810  Biso   1.000  O
  O71      1.0000 0.67210  0.78300  0.78300  Biso   1.000  O
  O72      1.0000 0.55550  0.93119  0.93119  Biso   1.000  O
  C70      1.0000 0.55860  0.78840  0.78840  Biso   1.000  C
  C71      1.0000 0.62020  0.76100  0.76100  Biso   1.000  C
  C72      1.0000 0.55840  0.83570  0.83570  Biso   1.000  C
  H24      1.0000 0.59780  0.85170  0.85170  Biso   1.000  H
  C73      1.0000 0.23390  0.23390  0.50000  Biso   1.000  C
  H25      1.0000 0.26610  0.26610  0.50000  Biso   1.000  H
  C74      1.0000 0.13990  0.13990  0.50000  Biso   1.000  C
  C75      1.0000 0.08740  0.08740  0.50000  Biso   1.000  C
  C76      1.0000 0.76610  0.76610  0.50000  Biso   1.000  C
  H26      1.0000 0.73390  0.73390  0.50000  Biso   1.000  H
  C77      1.0000 0.86010  0.86010  0.50000  Biso   1.000  C
  C78      1.0000 0.91260  0.91260  0.50000  Biso   1.000  C
  C79      1.0000 0.76610  0.23390  0.50000  Biso   1.000  C
  H27      1.0000 0.73390  0.26610  0.50000  Biso   1.000  H
  C80      1.0000 0.86010  0.13990  0.50000  Biso   1.000  C
  C81      1.0000 0.91260  0.08740  0.50000  Biso   1.000  C
  C82      1.0000 0.23390  0.76610  0.50000  Biso   1.000  C
  H28      1.0000 0.26610  0.73390  0.50000  Biso   1.000  H
  C83      1.0000 0.13990  0.86010  0.50000  Biso   1.000  C
  C84      1.0000 0.08740  0.91260  0.50000  Biso   1.000  C
  C85      1.0000 0.50000  0.23390  0.23390  Biso   1.000  C
  H29      1.0000 0.50000  0.26610  0.26610  Biso   1.000  H
  C86      1.0000 0.50000  0.13990  0.13990  Biso   1.000  C
  C87      1.0000 0.50000  0.08740  0.08740  Biso   1.000  C
  C88      1.0000 0.50000  0.76610  0.76610  Biso   1.000  C
  H30      1.0000 0.50000  0.73390  0.73390  Biso   1.000  H
  C89      1.0000 0.50000  0.86010  0.86010  Biso   1.000  C
  C90      1.0000 0.50000  0.91260  0.91260  Biso   1.000  C
  C91      1.0000 0.50000  0.76610  0.23390  Biso   1.000  C
  H31      1.0000 0.50000  0.73390  0.26610  Biso   1.000  H
  C92      1.0000 0.50000  0.86010  0.13990  Biso   1.000  C
  C93      1.0000 0.50000  0.91260  0.08740  Biso   1.000  C
  C94      1.0000 0.50000  0.23390  0.76610  Biso   1.000  C
  H32      1.0000 0.50000  0.26610  0.73390  Biso   1.000  H
  C95      1.0000 0.50000  0.13990  0.86010  Biso   1.000  C
  C96      1.0000 0.50000  0.08740  0.91260  Biso   1.000  C
  C97      1.0000 0.23390  0.50000  0.23390  Biso   1.000  C
  H33      1.0000 0.26610  0.50000  0.26610  Biso   1.000  H
  C98      1.0000 0.13990  0.50000  0.13990  Biso   1.000  C
  C99      1.0000 0.08740  0.50000  0.08740  Biso   1.000  C
  C100     1.0000 0.76610  0.50000  0.76610  Biso   1.000  C
  H34      1.0000 0.73390  0.50000  0.73390  Biso   1.000  H
  C101     1.0000 0.86010  0.50000  0.86010  Biso   1.000  C
  C102     1.0000 0.91260  0.50000  0.91260  Biso   1.000  C
  C103     1.0000 0.23390  0.50000  0.76610  Biso   1.000  C
  H35      1.0000 0.26610  0.50000  0.73390  Biso   1.000  H
  C104     1.0000 0.13990  0.50000  0.86010  Biso   1.000  C
  C105     1.0000 0.08740  0.50000  0.91260  Biso   1.000  C
  C106     1.0000 0.76610  0.50000  0.23390  Biso   1.000  C
  H36      1.0000 0.73390  0.50000  0.26610  Biso   1.000  H
  C107     1.0000 0.86010  0.50000  0.13990  Biso   1.000  C
  C108     1.0000 0.91260  0.50000  0.08740  Biso   1.000  C
