data_image0
_cell_length_a       14.123
_cell_length_b       33.38
_cell_length_c       16.833
_cell_angle_alpha    90
_cell_angle_beta     111.943
_cell_angle_gamma    90

_symmetry_space_group_name_H-M    "P 1"
_symmetry_int_tables_number       1

loop_
  _symmetry_equiv_pos_as_xyz
  'x, y, z'

loop_
  _atom_site_label
  _atom_site_occupancy
  _atom_site_fract_x
  _atom_site_fract_y
  _atom_site_fract_z
  _atom_site_thermal_displace_type
  _atom_site_B_iso_or_equiv
  _atom_site_type_symbol
  Zn1      1.0000 0.69052  0.94199  0.67795  Biso   1.000  Zn
  Zn2      1.0000 0.90514  0.91262  0.64925  Biso   1.000  Zn
  Zn3      1.0000 0.83236  0.63506  0.59789  Biso   1.000  Zn
  Zn4      1.0000 0.00422  0.71182  0.58505  Biso   1.000  Zn
  C1       1.0000 0.18940  0.72205  0.61180  Biso   1.000  C
  C2       1.0000 0.29710  0.73364  0.62840  Biso   1.000  C
  C3       1.0000 0.34950  0.71109  0.59120  Biso   1.000  C
  H1       1.0000 0.31790  0.68890  0.55850  Biso   1.000  H
  C4       1.0000 0.44850  0.72030  0.60090  Biso   1.000  C
  H2       1.0000 0.48270  0.70480  0.57420  Biso   1.000  H
  C5       1.0000 0.49630  0.75262  0.65030  Biso   1.000  C
  C6       1.0000 0.44360  0.77458  0.69100  Biso   1.000  C
  H3       1.0000 0.47670  0.79560  0.72700  Biso   1.000  H
  C7       1.0000 0.34380  0.76605  0.67940  Biso   1.000  C
  C8       1.0000 0.29180  0.79280  0.72180  Biso   1.000  C
  C9       1.0000 0.20080  0.81203  0.67430  Biso   1.000  C
  H4       1.0000 0.17000  0.80690  0.61590  Biso   1.000  H
  C10      1.0000 0.33580  0.80053  0.80810  Biso   1.000  C
  H5       1.0000 0.39680  0.78800  0.84070  Biso   1.000  H
  C11      1.0000 0.29090  0.82644  0.84690  Biso   1.000  C
  C12      1.0000 0.33580  0.83251  0.94230  Biso   1.000  C
  C13      1.0000 0.20130  0.84586  0.79900  Biso   1.000  C
  H6       1.0000 0.17170  0.86380  0.82520  Biso   1.000  H
  C14      1.0000 0.15550  0.83851  0.71180  Biso   1.000  C
  C15      1.0000 0.05640  0.85786  0.66030  Biso   1.000  C
  C16      1.0000 0.60030  0.76487  0.65850  Biso   1.000  C
  C17      1.0000 0.62580  0.80511  0.66660  Biso   1.000  C
  H7       1.0000 0.57850  0.82380  0.66960  Biso   1.000  H
  C18      1.0000 0.72060  0.81800  0.67030  Biso   1.000  C
  C19      1.0000 0.79300  0.79007  0.66950  Biso   1.000  C
  H8       1.0000 0.85780  0.79820  0.67420  Biso   1.000  H
  C20      1.0000 0.76690  0.74964  0.66170  Biso   1.000  C
  C21      1.0000 0.67210  0.73778  0.65590  Biso   1.000  C
  H9       1.0000 0.65570  0.71070  0.65010  Biso   1.000  H
  C22      1.0000 0.74530  0.86153  0.67640  Biso   1.000  C
  C23      1.0000 0.84330  0.71911  0.65560  Biso   1.000  C
  C24      1.0000 0.11250  0.01794  0.25030  Biso   1.000  C
  C25      1.0000 0.06930  0.97908  0.20910  Biso   1.000  C
  C26      1.0000 0.12820  0.95369  0.18030  Biso   1.000  C
  H10      1.0000 0.19420  0.96110  0.18690  Biso   1.000  H
  C27      1.0000 0.08950  0.91810  0.14260  Biso   1.000  C
  C28      1.0000 0.99090  0.90700  0.13390  Biso   1.000  C
  H11      1.0000 0.96510  0.88240  0.10920  Biso   1.000  H
  C29      1.0000 0.93110  0.93182  0.16110  Biso   1.000  C
  C30      1.0000 0.97270  0.96804  0.19990  Biso   1.000  C
  H12      1.0000 0.93400  0.98490  0.21970  Biso   1.000  H
  C31      1.0000 0.15240  0.88989  0.11140  Biso   1.000  C
  C32      1.0000 0.82570  0.92066  0.15210  Biso   1.000  C
  C33      1.0000 0.76310  0.89705  0.08400  Biso   1.000  C
  H13      1.0000 0.78640  0.88890  0.04160  Biso   1.000  H
  C34      1.0000 0.66810  0.88584  0.07940  Biso   1.000  C
  H14      1.0000 0.62910  0.86870  0.03590  Biso   1.000  H
  C35      1.0000 0.62890  0.89984  0.13920  Biso   1.000  C
  C36      1.0000 0.68710  0.92460  0.20560  Biso   1.000  C
  C37      1.0000 0.78610  0.93384  0.21170  Biso   1.000  C
  H15      1.0000 0.82710  0.94940  0.25740  Biso   1.000  H
  C38      1.0000 0.52800  0.88250  0.13580  Biso   1.000  C
  C39      1.0000 0.65320  0.94112  0.27260  Biso   1.000  C
  C40      1.0000 0.70940  0.93469  0.35830  Biso   1.000  C
  H16      1.0000 0.76790  0.91890  0.37420  Biso   1.000  H
  C41      1.0000 0.68010  0.95131  0.42110  Biso   1.000  C
  C42      1.0000 0.59610  0.97640  0.39700  Biso   1.000  C
  H17      1.0000 0.57750  0.98860  0.43870  Biso   1.000  H
  C43      1.0000 0.53950  0.98349  0.31150  Biso   1.000  C
  C44      1.0000 0.56860  0.96573  0.25070  Biso   1.000  C
  H18      1.0000 0.53030  0.97040  0.19310  Biso   1.000  H
  C45      1.0000 0.45030  0.01090  0.28480  Biso   1.000  C
  C46      1.0000 0.73890  0.94231  0.51340  Biso   1.000  C
  O1       1.0000 0.13380  0.70836  0.53890  Biso   1.000  O
  O2       1.0000 0.15220  0.72641  0.66800  Biso   1.000  O
  O3       1.0000 0.99750  0.84232  0.59580  Biso   1.000  O
  O4       1.0000 0.03940  0.89096  0.69020  Biso   1.000  O
  O5       1.0000 0.28580  0.85259  0.97550  Biso   1.000  O
  O6       1.0000 0.42100  0.81733  0.98190  Biso   1.000  O
  O7       1.0000 0.67450  0.88515  0.66990  Biso   1.000  O
  O8       1.0000 0.83360  0.87144  0.68870  Biso   1.000  O
  O9       1.0000 0.92130  0.73197  0.64890  Biso   1.000  O
  O10      1.0000 0.82040  0.68327  0.65860  Biso   1.000  O
  O11      1.0000 0.06450  0.03688  0.28720  Biso   1.000  O
  O12      1.0000 0.19500  0.02894  0.24580  Biso   1.000  O
  O13      1.0000 0.24110  0.90242  0.12170  Biso   1.000  O
  O14      1.0000 0.11620  0.85787  0.08070  Biso   1.000  O
  O15      1.0000 0.52910  0.84631  0.15570  Biso   1.000  O
  O16      1.0000 0.45090  0.90205  0.11140  Biso   1.000  O
  O17      1.0000 0.39490  0.01340  0.20960  Biso   1.000  O
  O18      1.0000 0.43440  0.02835  0.34470  Biso   1.000  O
  O19      1.0000 0.70410  0.95534  0.56590  Biso   1.000  O
  O20      1.0000 0.81950  0.92345  0.53140  Biso   1.000  O
  Zn5      1.0000 0.80948  0.44199  0.82205  Biso   1.000  Zn
  Zn6      1.0000 0.59486  0.41262  0.85075  Biso   1.000  Zn
  Zn7      1.0000 0.66764  0.13506  0.90211  Biso   1.000  Zn
  Zn8      1.0000 0.49578  0.21182  0.91495  Biso   1.000  Zn
  C47      1.0000 0.31060  0.22205  0.88820  Biso   1.000  C
  C48      1.0000 0.20290  0.23364  0.87160  Biso   1.000  C
  C49      1.0000 0.15050  0.21109  0.90880  Biso   1.000  C
  H19      1.0000 0.18210  0.18890  0.94150  Biso   1.000  H
  C50      1.0000 0.05150  0.22030  0.89910  Biso   1.000  C
  H20      1.0000 0.01730  0.20480  0.92580  Biso   1.000  H
  C51      1.0000 0.00370  0.25262  0.84970  Biso   1.000  C
  C52      1.0000 0.05640  0.27458  0.80900  Biso   1.000  C
  H21      1.0000 0.02330  0.29560  0.77300  Biso   1.000  H
  C53      1.0000 0.15620  0.26605  0.82060  Biso   1.000  C
  C54      1.0000 0.20820  0.29280  0.77820  Biso   1.000  C
  C55      1.0000 0.29920  0.31203  0.82570  Biso   1.000  C
  H22      1.0000 0.33000  0.30690  0.88410  Biso   1.000  H
  C56      1.0000 0.16420  0.30053  0.69190  Biso   1.000  C
  H23      1.0000 0.10320  0.28800  0.65930  Biso   1.000  H
  C57      1.0000 0.20910  0.32644  0.65310  Biso   1.000  C
  C58      1.0000 0.16420  0.33251  0.55770  Biso   1.000  C
  C59      1.0000 0.29870  0.34586  0.70100  Biso   1.000  C
  H24      1.0000 0.32830  0.36380  0.67480  Biso   1.000  H
  C60      1.0000 0.34450  0.33851  0.78820  Biso   1.000  C
  C61      1.0000 0.44360  0.35786  0.83970  Biso   1.000  C
  C62      1.0000 0.89970  0.26487  0.84150  Biso   1.000  C
  C63      1.0000 0.87420  0.30511  0.83340  Biso   1.000  C
  H25      1.0000 0.92150  0.32380  0.83040  Biso   1.000  H
  C64      1.0000 0.77940  0.31800  0.82970  Biso   1.000  C
  C65      1.0000 0.70700  0.29007  0.83050  Biso   1.000  C
  H26      1.0000 0.64220  0.29820  0.82580  Biso   1.000  H
  C66      1.0000 0.73310  0.24964  0.83830  Biso   1.000  C
  C67      1.0000 0.82790  0.23778  0.84410  Biso   1.000  C
  H27      1.0000 0.84430  0.21070  0.84990  Biso   1.000  H
  C68      1.0000 0.75470  0.36153  0.82360  Biso   1.000  C
  C69      1.0000 0.65670  0.21911  0.84440  Biso   1.000  C
  C70      1.0000 0.38750  0.51794  0.24970  Biso   1.000  C
  C71      1.0000 0.43070  0.47908  0.29090  Biso   1.000  C
  C72      1.0000 0.37180  0.45369  0.31970  Biso   1.000  C
  H28      1.0000 0.30580  0.46110  0.31310  Biso   1.000  H
  C73      1.0000 0.41050  0.41810  0.35740  Biso   1.000  C
  C74      1.0000 0.50910  0.40700  0.36610  Biso   1.000  C
  H29      1.0000 0.53490  0.38240  0.39080  Biso   1.000  H
  C75      1.0000 0.56890  0.43182  0.33890  Biso   1.000  C
  C76      1.0000 0.52730  0.46804  0.30010  Biso   1.000  C
  H30      1.0000 0.56600  0.48490  0.28030  Biso   1.000  H
  C77      1.0000 0.34760  0.38989  0.38860  Biso   1.000  C
  C78      1.0000 0.67430  0.42066  0.34790  Biso   1.000  C
  C79      1.0000 0.73690  0.39705  0.41600  Biso   1.000  C
  H31      1.0000 0.71360  0.38890  0.45840  Biso   1.000  H
  C80      1.0000 0.83190  0.38584  0.42060  Biso   1.000  C
  H32      1.0000 0.87090  0.36870  0.46410  Biso   1.000  H
  C81      1.0000 0.87110  0.39984  0.36080  Biso   1.000  C
  C82      1.0000 0.81290  0.42460  0.29440  Biso   1.000  C
  C83      1.0000 0.71390  0.43384  0.28830  Biso   1.000  C
  H33      1.0000 0.67290  0.44940  0.24260  Biso   1.000  H
  C84      1.0000 0.97200  0.38250  0.36420  Biso   1.000  C
  C85      1.0000 0.84680  0.44112  0.22740  Biso   1.000  C
  C86      1.0000 0.79060  0.43469  0.14170  Biso   1.000  C
  H34      1.0000 0.73210  0.41890  0.12580  Biso   1.000  H
  C87      1.0000 0.81990  0.45131  0.07890  Biso   1.000  C
  C88      1.0000 0.90390  0.47640  0.10300  Biso   1.000  C
  H35      1.0000 0.92250  0.48860  0.06130  Biso   1.000  H
  C89      1.0000 0.96050  0.48349  0.18850  Biso   1.000  C
  C90      1.0000 0.93140  0.46573  0.24930  Biso   1.000  C
  H36      1.0000 0.96970  0.47040  0.30690  Biso   1.000  H
  C91      1.0000 0.04970  0.51090  0.21520  Biso   1.000  C
  C92      1.0000 0.76110  0.44231  0.98660  Biso   1.000  C
  O21      1.0000 0.36620  0.20836  0.96110  Biso   1.000  O
  O22      1.0000 0.34780  0.22641  0.83200  Biso   1.000  O
  O23      1.0000 0.50250  0.34232  0.90420  Biso   1.000  O
  O24      1.0000 0.46060  0.39096  0.80980  Biso   1.000  O
  O25      1.0000 0.21420  0.35259  0.52450  Biso   1.000  O
  O26      1.0000 0.07900  0.31733  0.51810  Biso   1.000  O
  O27      1.0000 0.82550  0.38515  0.83010  Biso   1.000  O
  O28      1.0000 0.66640  0.37144  0.81130  Biso   1.000  O
  O29      1.0000 0.57870  0.23197  0.85110  Biso   1.000  O
  O30      1.0000 0.67960  0.18327  0.84140  Biso   1.000  O
  O31      1.0000 0.43550  0.53688  0.21280  Biso   1.000  O
  O32      1.0000 0.30500  0.52894  0.25420  Biso   1.000  O
  O33      1.0000 0.25890  0.40242  0.37830  Biso   1.000  O
  O34      1.0000 0.38380  0.35787  0.41930  Biso   1.000  O
  O35      1.0000 0.97090  0.34631  0.34430  Biso   1.000  O
  O36      1.0000 0.04910  0.40205  0.38860  Biso   1.000  O
  O37      1.0000 0.10510  0.51340  0.29040  Biso   1.000  O
  O38      1.0000 0.06560  0.52835  0.15530  Biso   1.000  O
  O39      1.0000 0.79590  0.45534  0.93410  Biso   1.000  O
  O40      1.0000 0.68050  0.42345  0.96860  Biso   1.000  O
  Zn9      1.0000 0.30948  0.05801  0.32205  Biso   1.000  Zn
  Zn10     1.0000 0.09486  0.08738  0.35075  Biso   1.000  Zn
  Zn11     1.0000 0.16764  0.36494  0.40211  Biso   1.000  Zn
  Zn12     1.0000 0.99578  0.28818  0.41495  Biso   1.000  Zn
  C93      1.0000 0.81060  0.27795  0.38820  Biso   1.000  C
  C94      1.0000 0.70290  0.26636  0.37160  Biso   1.000  C
  C95      1.0000 0.65050  0.28891  0.40880  Biso   1.000  C
  H37      1.0000 0.68210  0.31110  0.44150  Biso   1.000  H
  C96      1.0000 0.55150  0.27970  0.39910  Biso   1.000  C
  H38      1.0000 0.51730  0.29520  0.42580  Biso   1.000  H
  C97      1.0000 0.50370  0.24738  0.34970  Biso   1.000  C
  C98      1.0000 0.55640  0.22542  0.30900  Biso   1.000  C
  H39      1.0000 0.52330  0.20440  0.27300  Biso   1.000  H
  C99      1.0000 0.65620  0.23395  0.32060  Biso   1.000  C
  C100     1.0000 0.70820  0.20720  0.27820  Biso   1.000  C
  C101     1.0000 0.79920  0.18797  0.32570  Biso   1.000  C
  H40      1.0000 0.83000  0.19310  0.38410  Biso   1.000  H
  C102     1.0000 0.66420  0.19947  0.19190  Biso   1.000  C
  H41      1.0000 0.60320  0.21200  0.15930  Biso   1.000  H
  C103     1.0000 0.70910  0.17356  0.15310  Biso   1.000  C
  C104     1.0000 0.66420  0.16749  0.05770  Biso   1.000  C
  C105     1.0000 0.79870  0.15414  0.20100  Biso   1.000  C
  H42      1.0000 0.82830  0.13620  0.17480  Biso   1.000  H
  C106     1.0000 0.84450  0.16149  0.28820  Biso   1.000  C
  C107     1.0000 0.94360  0.14214  0.33970  Biso   1.000  C
  C108     1.0000 0.39970  0.23513  0.34150  Biso   1.000  C
  C109     1.0000 0.37420  0.19489  0.33340  Biso   1.000  C
  H43      1.0000 0.42150  0.17620  0.33040  Biso   1.000  H
  C110     1.0000 0.27940  0.18200  0.32970  Biso   1.000  C
  C111     1.0000 0.20700  0.20993  0.33050  Biso   1.000  C
  H44      1.0000 0.14220  0.20180  0.32580  Biso   1.000  H
  C112     1.0000 0.23310  0.25036  0.33830  Biso   1.000  C
  C113     1.0000 0.32790  0.26222  0.34410  Biso   1.000  C
  H45      1.0000 0.34430  0.28930  0.34990  Biso   1.000  H
  C114     1.0000 0.25470  0.13847  0.32360  Biso   1.000  C
  C115     1.0000 0.15670  0.28089  0.34440  Biso   1.000  C
  C116     1.0000 0.88750  0.98206  0.74970  Biso   1.000  C
  C117     1.0000 0.93070  0.02092  0.79090  Biso   1.000  C
  C118     1.0000 0.87180  0.04631  0.81970  Biso   1.000  C
  H46      1.0000 0.80580  0.03890  0.81310  Biso   1.000  H
  C119     1.0000 0.91050  0.08190  0.85740  Biso   1.000  C
  C120     1.0000 0.00910  0.09300  0.86610  Biso   1.000  C
  H47      1.0000 0.03490  0.11760  0.89080  Biso   1.000  H
  C121     1.0000 0.06890  0.06818  0.83890  Biso   1.000  C
  C122     1.0000 0.02730  0.03196  0.80010  Biso   1.000  C
  H48      1.0000 0.06600  0.01510  0.78030  Biso   1.000  H
  C123     1.0000 0.84760  0.11011  0.88860  Biso   1.000  C
  C124     1.0000 0.17430  0.07934  0.84790  Biso   1.000  C
  C125     1.0000 0.23690  0.10295  0.91600  Biso   1.000  C
  H49      1.0000 0.21360  0.11110  0.95840  Biso   1.000  H
  C126     1.0000 0.33190  0.11416  0.92060  Biso   1.000  C
  H50      1.0000 0.37090  0.13130  0.96410  Biso   1.000  H
  C127     1.0000 0.37110  0.10016  0.86080  Biso   1.000  C
  C128     1.0000 0.31290  0.07540  0.79440  Biso   1.000  C
  C129     1.0000 0.21390  0.06616  0.78830  Biso   1.000  C
  H51      1.0000 0.17290  0.05060  0.74260  Biso   1.000  H
  C130     1.0000 0.47200  0.11750  0.86420  Biso   1.000  C
  C131     1.0000 0.34680  0.05888  0.72740  Biso   1.000  C
  C132     1.0000 0.29060  0.06531  0.64170  Biso   1.000  C
  H52      1.0000 0.23210  0.08110  0.62580  Biso   1.000  H
  C133     1.0000 0.31990  0.04869  0.57890  Biso   1.000  C
  C134     1.0000 0.40390  0.02360  0.60300  Biso   1.000  C
  H53      1.0000 0.42250  0.01140  0.56130  Biso   1.000  H
  C135     1.0000 0.46050  0.01651  0.68850  Biso   1.000  C
  C136     1.0000 0.43140  0.03427  0.74930  Biso   1.000  C
  H54      1.0000 0.46970  0.02960  0.80690  Biso   1.000  H
  C137     1.0000 0.54970  0.98910  0.71520  Biso   1.000  C
  C138     1.0000 0.26110  0.05769  0.48660  Biso   1.000  C
  O41      1.0000 0.86620  0.29164  0.46110  Biso   1.000  O
  O42      1.0000 0.84780  0.27359  0.33200  Biso   1.000  O
  O43      1.0000 0.00250  0.15768  0.40420  Biso   1.000  O
  O44      1.0000 0.96060  0.10904  0.30980  Biso   1.000  O
  O45      1.0000 0.71420  0.14741  0.02450  Biso   1.000  O
  O46      1.0000 0.57900  0.18267  0.01810  Biso   1.000  O
  O47      1.0000 0.32550  0.11485  0.33010  Biso   1.000  O
  O48      1.0000 0.16640  0.12856  0.31130  Biso   1.000  O
  O49      1.0000 0.07870  0.26803  0.35110  Biso   1.000  O
  O50      1.0000 0.17960  0.31673  0.34140  Biso   1.000  O
  O51      1.0000 0.93550  0.96312  0.71280  Biso   1.000  O
  O52      1.0000 0.80500  0.97106  0.75420  Biso   1.000  O
  O53      1.0000 0.75890  0.09758  0.87830  Biso   1.000  O
  O54      1.0000 0.88380  0.14213  0.91930  Biso   1.000  O
  O55      1.0000 0.47090  0.15369  0.84430  Biso   1.000  O
  O56      1.0000 0.54910  0.09795  0.88860  Biso   1.000  O
  O57      1.0000 0.60510  0.98660  0.79040  Biso   1.000  O
  O58      1.0000 0.56560  0.97165  0.65530  Biso   1.000  O
  O59      1.0000 0.29590  0.04466  0.43410  Biso   1.000  O
  O60      1.0000 0.18050  0.07655  0.46860  Biso   1.000  O
  Zn13     1.0000 0.19052  0.55801  0.17795  Biso   1.000  Zn
  Zn14     1.0000 0.40514  0.58738  0.14925  Biso   1.000  Zn
  Zn15     1.0000 0.33236  0.86494  0.09789  Biso   1.000  Zn
  Zn16     1.0000 0.50422  0.78818  0.08505  Biso   1.000  Zn
  C139     1.0000 0.68940  0.77795  0.11180  Biso   1.000  C
  C140     1.0000 0.79710  0.76636  0.12840  Biso   1.000  C
  C141     1.0000 0.84950  0.78891  0.09120  Biso   1.000  C
  H55      1.0000 0.81790  0.81110  0.05850  Biso   1.000  H
  C142     1.0000 0.94850  0.77970  0.10090  Biso   1.000  C
  H56      1.0000 0.98270  0.79520  0.07420  Biso   1.000  H
  C143     1.0000 0.99630  0.74738  0.15030  Biso   1.000  C
  C144     1.0000 0.94360  0.72542  0.19100  Biso   1.000  C
  H57      1.0000 0.97670  0.70440  0.22700  Biso   1.000  H
  C145     1.0000 0.84380  0.73395  0.17940  Biso   1.000  C
  C146     1.0000 0.79180  0.70720  0.22180  Biso   1.000  C
  C147     1.0000 0.70080  0.68797  0.17430  Biso   1.000  C
  H58      1.0000 0.67000  0.69310  0.11590  Biso   1.000  H
  C148     1.0000 0.83580  0.69947  0.30810  Biso   1.000  C
  H59      1.0000 0.89680  0.71200  0.34070  Biso   1.000  H
  C149     1.0000 0.79090  0.67356  0.34690  Biso   1.000  C
  C150     1.0000 0.83580  0.66749  0.44230  Biso   1.000  C
  C151     1.0000 0.70130  0.65414  0.29900  Biso   1.000  C
  H60      1.0000 0.67170  0.63620  0.32520  Biso   1.000  H
  C152     1.0000 0.65550  0.66149  0.21180  Biso   1.000  C
  C153     1.0000 0.55640  0.64214  0.16030  Biso   1.000  C
  C154     1.0000 0.10030  0.73513  0.15850  Biso   1.000  C
  C155     1.0000 0.12580  0.69489  0.16660  Biso   1.000  C
  H61      1.0000 0.07850  0.67620  0.16960  Biso   1.000  H
  C156     1.0000 0.22060  0.68200  0.17030  Biso   1.000  C
  C157     1.0000 0.29300  0.70993  0.16950  Biso   1.000  C
  H62      1.0000 0.35780  0.70180  0.17420  Biso   1.000  H
  C158     1.0000 0.26690  0.75036  0.16170  Biso   1.000  C
  C159     1.0000 0.17210  0.76222  0.15590  Biso   1.000  C
  H63      1.0000 0.15570  0.78930  0.15010  Biso   1.000  H
  C160     1.0000 0.24530  0.63847  0.17640  Biso   1.000  C
  C161     1.0000 0.34330  0.78089  0.15560  Biso   1.000  C
  C162     1.0000 0.61250  0.48206  0.75030  Biso   1.000  C
  C163     1.0000 0.56930  0.52092  0.70910  Biso   1.000  C
  C164     1.0000 0.62820  0.54631  0.68030  Biso   1.000  C
  H64      1.0000 0.69420  0.53890  0.68690  Biso   1.000  H
  C165     1.0000 0.58950  0.58190  0.64260  Biso   1.000  C
  C166     1.0000 0.49090  0.59300  0.63390  Biso   1.000  C
  H65      1.0000 0.46510  0.61760  0.60920  Biso   1.000  H
  C167     1.0000 0.43110  0.56818  0.66110  Biso   1.000  C
  C168     1.0000 0.47270  0.53196  0.69990  Biso   1.000  C
  H66      1.0000 0.43400  0.51510  0.71970  Biso   1.000  H
  C169     1.0000 0.65240  0.61011  0.61140  Biso   1.000  C
  C170     1.0000 0.32570  0.57934  0.65210  Biso   1.000  C
  C171     1.0000 0.26310  0.60295  0.58400  Biso   1.000  C
  H67      1.0000 0.28640  0.61110  0.54160  Biso   1.000  H
  C172     1.0000 0.16810  0.61416  0.57940  Biso   1.000  C
  H68      1.0000 0.12910  0.63130  0.53590  Biso   1.000  H
  C173     1.0000 0.12890  0.60016  0.63920  Biso   1.000  C
  C174     1.0000 0.18710  0.57540  0.70560  Biso   1.000  C
  C175     1.0000 0.28610  0.56616  0.71170  Biso   1.000  C
  H69      1.0000 0.32710  0.55060  0.75740  Biso   1.000  H
  C176     1.0000 0.02800  0.61750  0.63580  Biso   1.000  C
  C177     1.0000 0.15320  0.55888  0.77260  Biso   1.000  C
  C178     1.0000 0.20940  0.56531  0.85830  Biso   1.000  C
  H70      1.0000 0.26790  0.58110  0.87420  Biso   1.000  H
  C179     1.0000 0.18010  0.54869  0.92110  Biso   1.000  C
  C180     1.0000 0.09610  0.52360  0.89700  Biso   1.000  C
  H71      1.0000 0.07750  0.51140  0.93870  Biso   1.000  H
  C181     1.0000 0.03950  0.51651  0.81150  Biso   1.000  C
  C182     1.0000 0.06860  0.53427  0.75070  Biso   1.000  C
  H72      1.0000 0.03030  0.52960  0.69310  Biso   1.000  H
  C183     1.0000 0.95030  0.48910  0.78480  Biso   1.000  C
  C184     1.0000 0.23890  0.55769  0.01340  Biso   1.000  C
  O61      1.0000 0.63380  0.79164  0.03890  Biso   1.000  O
  O62      1.0000 0.65220  0.77359  0.16800  Biso   1.000  O
  O63      1.0000 0.49750  0.65768  0.09580  Biso   1.000  O
  O64      1.0000 0.53940  0.60904  0.19020  Biso   1.000  O
  O65      1.0000 0.78580  0.64741  0.47550  Biso   1.000  O
  O66      1.0000 0.92100  0.68267  0.48190  Biso   1.000  O
  O67      1.0000 0.17450  0.61485  0.16990  Biso   1.000  O
  O68      1.0000 0.33360  0.62856  0.18870  Biso   1.000  O
  O69      1.0000 0.42130  0.76803  0.14890  Biso   1.000  O
  O70      1.0000 0.32040  0.81673  0.15860  Biso   1.000  O
  O71      1.0000 0.56450  0.46312  0.78720  Biso   1.000  O
  O72      1.0000 0.69500  0.47106  0.74580  Biso   1.000  O
  O73      1.0000 0.74110  0.59758  0.62170  Biso   1.000  O
  O74      1.0000 0.61620  0.64213  0.58070  Biso   1.000  O
  O75      1.0000 0.02910  0.65369  0.65570  Biso   1.000  O
  O76      1.0000 0.95090  0.59795  0.61140  Biso   1.000  O
  O77      1.0000 0.89490  0.48660  0.70960  Biso   1.000  O
  O78      1.0000 0.93440  0.47165  0.84470  Biso   1.000  O
  O79      1.0000 0.20410  0.54466  0.06590  Biso   1.000  O
  O80      1.0000 0.31950  0.57655  0.03140  Biso   1.000  O
