data_image0
_cell_length_a       28.017
_cell_length_b       9.6175
_cell_length_c       8.2586
_cell_angle_alpha    90
_cell_angle_beta     90
_cell_angle_gamma    90

_symmetry_space_group_name_H-M    "P 1"
_symmetry_int_tables_number       1

loop_
  _symmetry_equiv_pos_as_xyz
  'x, y, z'

loop_
  _atom_site_label
  _atom_site_occupancy
  _atom_site_fract_x
  _atom_site_fract_y
  _atom_site_fract_z
  _atom_site_thermal_displace_type
  _atom_site_B_iso_or_equiv
  _atom_site_type_symbol
  Gd1      1.0000 0.99625  0.41512  0.90705  Biso   1.000  Gd
  O1       1.0000 0.07167  0.47830  0.99970  Biso   1.000  O
  O2       1.0000 0.06324  0.61180  0.21610  Biso   1.000  O
  O3       1.0000 0.45157  0.88550  0.96550  Biso   1.000  O
  O4       1.0000 0.45926  0.79630  0.21220  Biso   1.000  O
  O5       1.0000 0.22844  0.77740  0.35070  Biso   1.000  O
  O6       1.0000 0.30071  0.56200  0.31620  Biso   1.000  O
  O7       1.0000 0.97769  0.41200  0.21160  Biso   1.000  O
  O8       1.0000 0.92674  0.30570  0.05100  Biso   1.000  O
  C1       1.0000 0.08779  0.55770  0.10760  Biso   1.000  C
  C2       1.0000 0.13987  0.59370  0.10370  Biso   1.000  C
  C3       1.0000 0.16793  0.55630  0.97140  Biso   1.000  C
  H1       1.0000 0.15500  0.50680  0.88510  Biso   1.000  H
  C4       1.0000 0.21589  0.59510  0.97160  Biso   1.000  C
  H2       1.0000 0.23490  0.57100  0.88360  Biso   1.000  H
  C5       1.0000 0.23621  0.66860  0.09930  Biso   1.000  C
  C6       1.0000 0.20708  0.70270  0.23120  Biso   1.000  C
  C7       1.0000 0.15902  0.66630  0.23260  Biso   1.000  C
  H3       1.0000 0.13990  0.69070  0.32000  Biso   1.000  H
  C8       1.0000 0.28766  0.70740  0.09440  Biso   1.000  C
  C9       1.0000 0.30458  0.79390  0.97800  Biso   1.000  C
  H4       1.0000 0.28370  0.82880  0.90040  Biso   1.000  H
  C10      1.0000 0.35279  0.83140  0.97250  Biso   1.000  C
  H5       1.0000 0.36390  0.88960  0.89070  Biso   1.000  H
  C11      1.0000 0.38376  0.78210  0.08840  Biso   1.000  C
  C12      1.0000 0.36694  0.69250  0.20640  Biso   1.000  C
  H6       1.0000 0.38780  0.65760  0.28400  Biso   1.000  H
  C13      1.0000 0.31923  0.65450  0.21000  Biso   1.000  C
  C14      1.0000 0.43528  0.82510  0.08660  Biso   1.000  C
  C15      1.0000 0.20580  0.78360  0.50340  Biso   1.000  C
  H7       1.0000 0.22450  0.83990  0.57560  Biso   1.000  H
  H8       1.0000 0.20300  0.69150  0.54700  Biso   1.000  H
  H9       1.0000 0.17460  0.82370  0.49150  Biso   1.000  H
  C16      1.0000 0.32820  0.51260  0.44680  Biso   1.000  C
  H10      1.0000 0.30970  0.44770  0.50890  Biso   1.000  H
  H11      1.0000 0.33740  0.58920  0.51440  Biso   1.000  H
  H12      1.0000 0.35620  0.46710  0.40610  Biso   1.000  H
  C17      1.0000 0.93981  0.34350  0.18690  Biso   1.000  C
  H13      1.0000 0.92090  0.32050  0.27550  Biso   1.000  H
  Gd2      1.0000 0.00375  0.58488  0.40705  Biso   1.000  Gd
  O9       1.0000 0.92833  0.52170  0.49970  Biso   1.000  O
  O10      1.0000 0.93676  0.38820  0.71610  Biso   1.000  O
  O11      1.0000 0.54843  0.11450  0.46550  Biso   1.000  O
  O12      1.0000 0.54074  0.20370  0.71220  Biso   1.000  O
  O13      1.0000 0.77156  0.22260  0.85070  Biso   1.000  O
  O14      1.0000 0.69929  0.43800  0.81620  Biso   1.000  O
  O15      1.0000 0.02231  0.58800  0.71160  Biso   1.000  O
  O16      1.0000 0.07326  0.69430  0.55100  Biso   1.000  O
  C18      1.0000 0.91221  0.44230  0.60760  Biso   1.000  C
  C19      1.0000 0.86013  0.40630  0.60370  Biso   1.000  C
  C20      1.0000 0.83207  0.44370  0.47140  Biso   1.000  C
  H14      1.0000 0.84500  0.49320  0.38510  Biso   1.000  H
  C21      1.0000 0.78411  0.40490  0.47160  Biso   1.000  C
  H15      1.0000 0.76510  0.42900  0.38360  Biso   1.000  H
  C22      1.0000 0.76379  0.33140  0.59930  Biso   1.000  C
  C23      1.0000 0.79292  0.29730  0.73120  Biso   1.000  C
  C24      1.0000 0.84098  0.33370  0.73260  Biso   1.000  C
  H16      1.0000 0.86010  0.30930  0.82000  Biso   1.000  H
  C25      1.0000 0.71234  0.29260  0.59440  Biso   1.000  C
  C26      1.0000 0.69542  0.20610  0.47800  Biso   1.000  C
  H17      1.0000 0.71630  0.17120  0.40040  Biso   1.000  H
  C27      1.0000 0.64721  0.16860  0.47250  Biso   1.000  C
  H18      1.0000 0.63610  0.11040  0.39070  Biso   1.000  H
  C28      1.0000 0.61624  0.21790  0.58840  Biso   1.000  C
  C29      1.0000 0.63306  0.30750  0.70640  Biso   1.000  C
  H19      1.0000 0.61220  0.34240  0.78400  Biso   1.000  H
  C30      1.0000 0.68077  0.34550  0.71000  Biso   1.000  C
  C31      1.0000 0.56472  0.17490  0.58660  Biso   1.000  C
  C32      1.0000 0.79420  0.21640  0.00340  Biso   1.000  C
  H20      1.0000 0.77550  0.16010  0.07560  Biso   1.000  H
  H21      1.0000 0.79700  0.30850  0.04700  Biso   1.000  H
  H22      1.0000 0.82540  0.17630  0.99150  Biso   1.000  H
  C33      1.0000 0.67180  0.48740  0.94680  Biso   1.000  C
  H23      1.0000 0.69030  0.55230  0.00890  Biso   1.000  H
  H24      1.0000 0.66260  0.41080  0.01440  Biso   1.000  H
  H25      1.0000 0.64380  0.53290  0.90610  Biso   1.000  H
  C34      1.0000 0.06019  0.65650  0.68690  Biso   1.000  C
  H26      1.0000 0.07910  0.67950  0.77550  Biso   1.000  H
  Gd3      1.0000 0.49625  0.08488  0.90705  Biso   1.000  Gd
  O17      1.0000 0.57167  0.02170  0.99970  Biso   1.000  O
  O18      1.0000 0.56324  0.88820  0.21610  Biso   1.000  O
  O19      1.0000 0.95157  0.61450  0.96550  Biso   1.000  O
  O20      1.0000 0.95926  0.70370  0.21220  Biso   1.000  O
  O21      1.0000 0.72844  0.72260  0.35070  Biso   1.000  O
  O22      1.0000 0.80071  0.93800  0.31620  Biso   1.000  O
  O23      1.0000 0.47769  0.08800  0.21160  Biso   1.000  O
  O24      1.0000 0.42674  0.19430  0.05100  Biso   1.000  O
  C35      1.0000 0.58779  0.94230  0.10760  Biso   1.000  C
  C36      1.0000 0.63987  0.90630  0.10370  Biso   1.000  C
  C37      1.0000 0.66793  0.94370  0.97140  Biso   1.000  C
  H27      1.0000 0.65500  0.99320  0.88510  Biso   1.000  H
  C38      1.0000 0.71589  0.90490  0.97160  Biso   1.000  C
  H28      1.0000 0.73490  0.92900  0.88360  Biso   1.000  H
  C39      1.0000 0.73621  0.83140  0.09930  Biso   1.000  C
  C40      1.0000 0.70708  0.79730  0.23120  Biso   1.000  C
  C41      1.0000 0.65902  0.83370  0.23260  Biso   1.000  C
  H29      1.0000 0.63990  0.80930  0.32000  Biso   1.000  H
  C42      1.0000 0.78766  0.79260  0.09440  Biso   1.000  C
  C43      1.0000 0.80458  0.70610  0.97800  Biso   1.000  C
  H30      1.0000 0.78370  0.67120  0.90040  Biso   1.000  H
  C44      1.0000 0.85279  0.66860  0.97250  Biso   1.000  C
  H31      1.0000 0.86390  0.61040  0.89070  Biso   1.000  H
  C45      1.0000 0.88376  0.71790  0.08840  Biso   1.000  C
  C46      1.0000 0.86694  0.80750  0.20640  Biso   1.000  C
  H32      1.0000 0.88780  0.84240  0.28400  Biso   1.000  H
  C47      1.0000 0.81923  0.84550  0.21000  Biso   1.000  C
  C48      1.0000 0.93528  0.67490  0.08660  Biso   1.000  C
  C49      1.0000 0.70580  0.71640  0.50340  Biso   1.000  C
  H33      1.0000 0.72450  0.66010  0.57560  Biso   1.000  H
  H34      1.0000 0.70300  0.80850  0.54700  Biso   1.000  H
  H35      1.0000 0.67460  0.67630  0.49150  Biso   1.000  H
  C50      1.0000 0.82820  0.98740  0.44680  Biso   1.000  C
  H36      1.0000 0.80970  0.05230  0.50890  Biso   1.000  H
  H37      1.0000 0.83740  0.91080  0.51440  Biso   1.000  H
  H38      1.0000 0.85620  0.03290  0.40610  Biso   1.000  H
  C51      1.0000 0.43981  0.15650  0.18690  Biso   1.000  C
  H39      1.0000 0.42090  0.17950  0.27550  Biso   1.000  H
  Gd4      1.0000 0.50375  0.91512  0.40705  Biso   1.000  Gd
  O25      1.0000 0.42833  0.97830  0.49970  Biso   1.000  O
  O26      1.0000 0.43676  0.11180  0.71610  Biso   1.000  O
  O27      1.0000 0.04843  0.38550  0.46550  Biso   1.000  O
  O28      1.0000 0.04074  0.29630  0.71220  Biso   1.000  O
  O29      1.0000 0.27156  0.27740  0.85070  Biso   1.000  O
  O30      1.0000 0.19929  0.06200  0.81620  Biso   1.000  O
  O31      1.0000 0.52231  0.91200  0.71160  Biso   1.000  O
  O32      1.0000 0.57326  0.80570  0.55100  Biso   1.000  O
  C52      1.0000 0.41221  0.05770  0.60760  Biso   1.000  C
  C53      1.0000 0.36013  0.09370  0.60370  Biso   1.000  C
  C54      1.0000 0.33207  0.05630  0.47140  Biso   1.000  C
  H40      1.0000 0.34500  0.00680  0.38510  Biso   1.000  H
  C55      1.0000 0.28411  0.09510  0.47160  Biso   1.000  C
  H41      1.0000 0.26510  0.07100  0.38360  Biso   1.000  H
  C56      1.0000 0.26379  0.16860  0.59930  Biso   1.000  C
  C57      1.0000 0.29292  0.20270  0.73120  Biso   1.000  C
  C58      1.0000 0.34098  0.16630  0.73260  Biso   1.000  C
  H42      1.0000 0.36010  0.19070  0.82000  Biso   1.000  H
  C59      1.0000 0.21234  0.20740  0.59440  Biso   1.000  C
  C60      1.0000 0.19542  0.29390  0.47800  Biso   1.000  C
  H43      1.0000 0.21630  0.32880  0.40040  Biso   1.000  H
  C61      1.0000 0.14721  0.33140  0.47250  Biso   1.000  C
  H44      1.0000 0.13610  0.38960  0.39070  Biso   1.000  H
  C62      1.0000 0.11624  0.28210  0.58840  Biso   1.000  C
  C63      1.0000 0.13306  0.19250  0.70640  Biso   1.000  C
  H45      1.0000 0.11220  0.15760  0.78400  Biso   1.000  H
  C64      1.0000 0.18077  0.15450  0.71000  Biso   1.000  C
  C65      1.0000 0.06472  0.32510  0.58660  Biso   1.000  C
  C66      1.0000 0.29420  0.28360  0.00340  Biso   1.000  C
  H46      1.0000 0.27550  0.33990  0.07560  Biso   1.000  H
  H47      1.0000 0.29700  0.19150  0.04700  Biso   1.000  H
  H48      1.0000 0.32540  0.32370  0.99150  Biso   1.000  H
  C67      1.0000 0.17180  0.01260  0.94680  Biso   1.000  C
  H49      1.0000 0.19030  0.94770  0.00890  Biso   1.000  H
  H50      1.0000 0.16260  0.08920  0.01440  Biso   1.000  H
  H51      1.0000 0.14380  0.96710  0.90610  Biso   1.000  H
  C68      1.0000 0.56019  0.84350  0.68690  Biso   1.000  C
  H52      1.0000 0.57910  0.82050  0.77550  Biso   1.000  H
