data_image0
_cell_length_a       27.951
_cell_length_b       9.6124
_cell_length_c       8.1937
_cell_angle_alpha    90
_cell_angle_beta     90
_cell_angle_gamma    90

_symmetry_space_group_name_H-M    "P 1"
_symmetry_int_tables_number       1

loop_
  _symmetry_equiv_pos_as_xyz
  'x, y, z'

loop_
  _atom_site_label
  _atom_site_occupancy
  _atom_site_fract_x
  _atom_site_fract_y
  _atom_site_fract_z
  _atom_site_thermal_displace_type
  _atom_site_B_iso_or_equiv
  _atom_site_type_symbol
  Dy1      1.0000 0.00377  0.58480  0.09288  Biso   1.000  Dy
  O1       1.0000 0.92928  0.52300  0.99940  Biso   1.000  O
  O2       1.0000 0.93764  0.38720  0.78290  Biso   1.000  O
  O3       1.0000 0.54863  0.11040  0.03510  Biso   1.000  O
  O4       1.0000 0.54097  0.20140  0.78550  Biso   1.000  O
  O5       1.0000 0.77186  0.22100  0.64890  Biso   1.000  O
  O6       1.0000 0.69966  0.43820  0.68460  Biso   1.000  O
  O7       1.0000 0.02158  0.58780  0.78790  Biso   1.000  O
  O8       1.0000 0.07243  0.69450  0.94800  Biso   1.000  O
  C1       1.0000 0.91317  0.44100  0.89200  Biso   1.000  C
  C2       1.0000 0.86104  0.40510  0.89620  Biso   1.000  C
  C3       1.0000 0.83282  0.44570  0.02990  Biso   1.000  C
  H1       1.0000 0.84560  0.49770  0.11520  Biso   1.000  H
  C4       1.0000 0.78456  0.40440  0.02970  Biso   1.000  C
  H2       1.0000 0.76560  0.42670  0.11920  Biso   1.000  H
  C5       1.0000 0.76428  0.33200  0.90170  Biso   1.000  C
  C6       1.0000 0.79350  0.29580  0.76990  Biso   1.000  C
  C7       1.0000 0.84133  0.33370  0.76830  Biso   1.000  C
  H3       1.0000 0.86030  0.31030  0.67910  Biso   1.000  H
  C8       1.0000 0.71251  0.29380  0.90800  Biso   1.000  C
  C9       1.0000 0.69562  0.20610  0.02430  Biso   1.000  C
  H4       1.0000 0.71670  0.17050  0.10170  Biso   1.000  H
  C10      1.0000 0.64743  0.16800  0.03080  Biso   1.000  C
  H5       1.0000 0.63630  0.11030  0.11370  Biso   1.000  H
  C11      1.0000 0.61657  0.21660  0.91320  Biso   1.000  C
  C12      1.0000 0.63333  0.30620  0.79370  Biso   1.000  C
  H6       1.0000 0.61250  0.34050  0.71500  Biso   1.000  H
  C13      1.0000 0.68070  0.34430  0.79160  Biso   1.000  C
  C14      1.0000 0.56468  0.17230  0.91250  Biso   1.000  C
  C15      1.0000 0.79380  0.21600  0.49330  Biso   1.000  C
  H7       1.0000 0.77500  0.15940  0.42140  Biso   1.000  H
  H8       1.0000 0.82530  0.17680  0.50340  Biso   1.000  H
  H9       1.0000 0.79620  0.30850  0.44970  Biso   1.000  H
  C16      1.0000 0.67260  0.48170  0.55000  Biso   1.000  C
  H10      1.0000 0.69090  0.54690  0.48680  Biso   1.000  H
  H11      1.0000 0.64370  0.52540  0.58740  Biso   1.000  H
  H12      1.0000 0.66470  0.40270  0.48370  Biso   1.000  H
  C17      1.0000 0.05930  0.65580  0.81340  Biso   1.000  C
  H13      1.0000 0.07830  0.67810  0.72410  Biso   1.000  H
  Dy2      1.0000 0.99623  0.41520  0.59288  Biso   1.000  Dy
  O9       1.0000 0.07072  0.47700  0.49940  Biso   1.000  O
  O10      1.0000 0.06236  0.61280  0.28290  Biso   1.000  O
  O11      1.0000 0.45137  0.88960  0.53510  Biso   1.000  O
  O12      1.0000 0.45903  0.79860  0.28550  Biso   1.000  O
  O13      1.0000 0.22814  0.77900  0.14890  Biso   1.000  O
  O14      1.0000 0.30034  0.56180  0.18460  Biso   1.000  O
  O15      1.0000 0.97842  0.41220  0.28790  Biso   1.000  O
  O16      1.0000 0.92757  0.30550  0.44800  Biso   1.000  O
  C18      1.0000 0.08683  0.55900  0.39200  Biso   1.000  C
  C19      1.0000 0.13896  0.59490  0.39620  Biso   1.000  C
  C20      1.0000 0.16718  0.55430  0.52990  Biso   1.000  C
  H14      1.0000 0.15440  0.50230  0.61520  Biso   1.000  H
  C21      1.0000 0.21544  0.59560  0.52970  Biso   1.000  C
  H15      1.0000 0.23440  0.57330  0.61920  Biso   1.000  H
  C22      1.0000 0.23572  0.66800  0.40170  Biso   1.000  C
  C23      1.0000 0.20650  0.70420  0.26990  Biso   1.000  C
  C24      1.0000 0.15867  0.66630  0.26830  Biso   1.000  C
  H16      1.0000 0.13970  0.68970  0.17910  Biso   1.000  H
  C25      1.0000 0.28749  0.70620  0.40800  Biso   1.000  C
  C26      1.0000 0.30438  0.79390  0.52430  Biso   1.000  C
  H17      1.0000 0.28330  0.82950  0.60170  Biso   1.000  H
  C27      1.0000 0.35257  0.83200  0.53080  Biso   1.000  C
  H18      1.0000 0.36370  0.88970  0.61370  Biso   1.000  H
  C28      1.0000 0.38343  0.78340  0.41320  Biso   1.000  C
  C29      1.0000 0.36667  0.69380  0.29370  Biso   1.000  C
  H19      1.0000 0.38750  0.65950  0.21500  Biso   1.000  H
  C30      1.0000 0.31930  0.65570  0.29160  Biso   1.000  C
  C31      1.0000 0.43532  0.82770  0.41250  Biso   1.000  C
  C32      1.0000 0.20620  0.78400  0.99330  Biso   1.000  C
  H20      1.0000 0.22500  0.84060  0.92140  Biso   1.000  H
  H21      1.0000 0.17470  0.82320  0.00340  Biso   1.000  H
  H22      1.0000 0.20380  0.69150  0.94970  Biso   1.000  H
  C33      1.0000 0.32740  0.51830  0.05000  Biso   1.000  C
  H23      1.0000 0.30910  0.45310  0.98680  Biso   1.000  H
  H24      1.0000 0.35630  0.47460  0.08740  Biso   1.000  H
  H25      1.0000 0.33530  0.59730  0.98370  Biso   1.000  H
  C34      1.0000 0.94070  0.34420  0.31340  Biso   1.000  C
  H26      1.0000 0.92170  0.32190  0.22410  Biso   1.000  H
  Dy3      1.0000 0.50377  0.91520  0.09288  Biso   1.000  Dy
  O17      1.0000 0.42928  0.97700  0.99940  Biso   1.000  O
  O18      1.0000 0.43764  0.11280  0.78290  Biso   1.000  O
  O19      1.0000 0.04863  0.38960  0.03510  Biso   1.000  O
  O20      1.0000 0.04097  0.29860  0.78550  Biso   1.000  O
  O21      1.0000 0.27186  0.27900  0.64890  Biso   1.000  O
  O22      1.0000 0.19966  0.06180  0.68460  Biso   1.000  O
  O23      1.0000 0.52158  0.91220  0.78790  Biso   1.000  O
  O24      1.0000 0.57243  0.80550  0.94800  Biso   1.000  O
  C35      1.0000 0.41317  0.05900  0.89200  Biso   1.000  C
  C36      1.0000 0.36104  0.09490  0.89620  Biso   1.000  C
  C37      1.0000 0.33282  0.05430  0.02990  Biso   1.000  C
  H27      1.0000 0.34560  0.00230  0.11520  Biso   1.000  H
  C38      1.0000 0.28456  0.09560  0.02970  Biso   1.000  C
  H28      1.0000 0.26560  0.07330  0.11920  Biso   1.000  H
  C39      1.0000 0.26428  0.16800  0.90170  Biso   1.000  C
  C40      1.0000 0.29350  0.20420  0.76990  Biso   1.000  C
  C41      1.0000 0.34133  0.16630  0.76830  Biso   1.000  C
  H29      1.0000 0.36030  0.18970  0.67910  Biso   1.000  H
  C42      1.0000 0.21251  0.20620  0.90800  Biso   1.000  C
  C43      1.0000 0.19562  0.29390  0.02430  Biso   1.000  C
  H30      1.0000 0.21670  0.32950  0.10170  Biso   1.000  H
  C44      1.0000 0.14743  0.33200  0.03080  Biso   1.000  C
  H31      1.0000 0.13630  0.38970  0.11370  Biso   1.000  H
  C45      1.0000 0.11657  0.28340  0.91320  Biso   1.000  C
  C46      1.0000 0.13333  0.19380  0.79370  Biso   1.000  C
  H32      1.0000 0.11250  0.15950  0.71500  Biso   1.000  H
  C47      1.0000 0.18070  0.15570  0.79160  Biso   1.000  C
  C48      1.0000 0.06468  0.32770  0.91250  Biso   1.000  C
  C49      1.0000 0.29380  0.28400  0.49330  Biso   1.000  C
  H33      1.0000 0.27500  0.34060  0.42140  Biso   1.000  H
  H34      1.0000 0.32530  0.32320  0.50340  Biso   1.000  H
  H35      1.0000 0.29620  0.19150  0.44970  Biso   1.000  H
  C50      1.0000 0.17260  0.01830  0.55000  Biso   1.000  C
  H36      1.0000 0.19090  0.95310  0.48680  Biso   1.000  H
  H37      1.0000 0.14370  0.97460  0.58740  Biso   1.000  H
  H38      1.0000 0.16470  0.09730  0.48370  Biso   1.000  H
  C51      1.0000 0.55930  0.84420  0.81340  Biso   1.000  C
  H39      1.0000 0.57830  0.82190  0.72410  Biso   1.000  H
  Dy4      1.0000 0.49623  0.08480  0.59288  Biso   1.000  Dy
  O25      1.0000 0.57072  0.02300  0.49940  Biso   1.000  O
  O26      1.0000 0.56236  0.88720  0.28290  Biso   1.000  O
  O27      1.0000 0.95137  0.61040  0.53510  Biso   1.000  O
  O28      1.0000 0.95903  0.70140  0.28550  Biso   1.000  O
  O29      1.0000 0.72814  0.72100  0.14890  Biso   1.000  O
  O30      1.0000 0.80034  0.93820  0.18460  Biso   1.000  O
  O31      1.0000 0.47842  0.08780  0.28790  Biso   1.000  O
  O32      1.0000 0.42757  0.19450  0.44800  Biso   1.000  O
  C52      1.0000 0.58683  0.94100  0.39200  Biso   1.000  C
  C53      1.0000 0.63896  0.90510  0.39620  Biso   1.000  C
  C54      1.0000 0.66718  0.94570  0.52990  Biso   1.000  C
  H40      1.0000 0.65440  0.99770  0.61520  Biso   1.000  H
  C55      1.0000 0.71544  0.90440  0.52970  Biso   1.000  C
  H41      1.0000 0.73440  0.92670  0.61920  Biso   1.000  H
  C56      1.0000 0.73572  0.83200  0.40170  Biso   1.000  C
  C57      1.0000 0.70650  0.79580  0.26990  Biso   1.000  C
  C58      1.0000 0.65867  0.83370  0.26830  Biso   1.000  C
  H42      1.0000 0.63970  0.81030  0.17910  Biso   1.000  H
  C59      1.0000 0.78749  0.79380  0.40800  Biso   1.000  C
  C60      1.0000 0.80438  0.70610  0.52430  Biso   1.000  C
  H43      1.0000 0.78330  0.67050  0.60170  Biso   1.000  H
  C61      1.0000 0.85257  0.66800  0.53080  Biso   1.000  C
  H44      1.0000 0.86370  0.61030  0.61370  Biso   1.000  H
  C62      1.0000 0.88343  0.71660  0.41320  Biso   1.000  C
  C63      1.0000 0.86667  0.80620  0.29370  Biso   1.000  C
  H45      1.0000 0.88750  0.84050  0.21500  Biso   1.000  H
  C64      1.0000 0.81930  0.84430  0.29160  Biso   1.000  C
  C65      1.0000 0.93532  0.67230  0.41250  Biso   1.000  C
  C66      1.0000 0.70620  0.71600  0.99330  Biso   1.000  C
  H46      1.0000 0.72500  0.65940  0.92140  Biso   1.000  H
  H47      1.0000 0.67470  0.67680  0.00340  Biso   1.000  H
  H48      1.0000 0.70380  0.80850  0.94970  Biso   1.000  H
  C67      1.0000 0.82740  0.98170  0.05000  Biso   1.000  C
  H49      1.0000 0.80910  0.04690  0.98680  Biso   1.000  H
  H50      1.0000 0.85630  0.02540  0.08740  Biso   1.000  H
  H51      1.0000 0.83530  0.90270  0.98370  Biso   1.000  H
  C68      1.0000 0.44070  0.15580  0.31340  Biso   1.000  C
  H52      1.0000 0.42170  0.17810  0.22410  Biso   1.000  H
