data_NUDLAA_clean
_audit_creation_date              2014-07-02
_audit_creation_method            'Materials Studio'
_symmetry_space_group_name_H-M    'P1'
_symmetry_Int_Tables_number       1
_symmetry_cell_setting            triclinic
loop_
_symmetry_equiv_pos_as_xyz
  x,y,z
_cell_length_a                    11.1753
_cell_length_b                    27.6090
_cell_length_c                    27.6090
_cell_angle_alpha                 87.6526
_cell_angle_beta                  78.3236
_cell_angle_gamma                 78.3237
loop_
_atom_site_label
_atom_site_type_symbol
_atom_site_fract_x
_atom_site_fract_y
_atom_site_fract_z
_atom_site_U_iso_or_equiv
_atom_site_adp_type
_atom_site_occupancy
Zn1    Zn    0.39435   0.45855   0.45975   0.01267  Uiso   1.00
Zn2    Zn    0.31265   0.54145   0.54025   0.01267  Uiso   1.00
Zn3    Zn    0.10410   0.04025   0.95855   0.01267  Uiso   1.00
Zn4    Zn    0.10290   0.95975   0.04145   0.01267  Uiso   1.00
Zn5    Zn    0.93735   0.95975   0.95855   0.01267  Uiso   1.00
Zn6    Zn    0.85565   0.04025   0.04145   0.01267  Uiso   1.00
Zn7    Zn    0.14710   0.45855   0.54025   0.01267  Uiso   1.00
Zn8    Zn    0.14590   0.54145   0.45975   0.01267  Uiso   1.00
Zn9    Zn    0.41168   0.17664   0.00000   0.01267  Uiso   1.00
Zn10   Zn    0.58832   0.82336   0.00000   0.01267  Uiso   1.00
Zn11   Zn    0.66168   0.50000   0.67664   0.01267  Uiso   1.00
Zn12   Zn    0.83832   0.50000   0.32336   0.01267  Uiso   1.00
Zn13   Zn    0.41324  -0.00000   0.17352   0.01267  Uiso   1.00
Zn14   Zn    0.58676   0.00000   0.82648   0.01267  Uiso   1.00
Zn15   Zn    0.83676   0.32648   0.50000   0.01267  Uiso   1.00
Zn16   Zn    0.66324   0.67352   0.50000   0.01267  Uiso   1.00
H1     H     0.41380   0.13470   0.09130   0.01267  Uiso   1.00
H2     H     0.44700   0.10170   0.13270   0.01267  Uiso   1.00
H3     H     0.22570   0.12890   0.96550   0.01267  Uiso   1.00
H4     H     0.21800   0.97330   0.12950   0.01267  Uiso   1.00
H5     H     0.57370   0.32680   0.32940   0.01267  Uiso   1.00
H6     H     0.55050   0.28910   0.25910   0.01267  Uiso   1.00
H7     H     0.20830   0.37350   0.26930   0.01267  Uiso   1.00
H8     H     0.23150   0.41110   0.33950   0.01267  Uiso   1.00
H9     H     0.47410   0.23880   0.22320   0.01267  Uiso   1.00
H10    H     0.46960   0.20200   0.14980   0.01267  Uiso   1.00
H11    H     0.24470   0.32480   0.11320   0.01267  Uiso   1.00
H12    H     0.24920   0.36170   0.18650   0.01267  Uiso   1.00
H13    H     0.03770   0.97430   0.29390   0.01267  Uiso   1.00
H14    H     0.93460   0.91990   0.34390   0.01267  Uiso   1.00
H15    H     0.21430   0.80690   0.29210   0.01267  Uiso   1.00
H16    H     0.31750   0.86140   0.24200   0.01267  Uiso   1.00
H17    H     0.63980   0.86530   0.90870   0.01267  Uiso   1.00
H18    H     0.68140   0.89830   0.86730   0.01267  Uiso   1.00
H19    H     0.32010   0.87110   0.03450   0.01267  Uiso   1.00
H20    H     0.32080   0.02670   0.87050   0.01267  Uiso   1.00
H21    H     0.22990   0.67320   0.67060   0.01267  Uiso   1.00
H22    H     0.09870   0.71090   0.74090   0.01267  Uiso   1.00
H23    H     0.85110   0.62650   0.73070   0.01267  Uiso   1.00
H24    H     0.98210   0.58890   0.66050   0.01267  Uiso   1.00
H25    H     0.93610   0.76120   0.77680   0.01267  Uiso   1.00
H26    H     0.82140   0.79800   0.85020   0.01267  Uiso   1.00
H27    H     0.68270   0.67520   0.88680   0.01267  Uiso   1.00
H28    H     0.79740   0.63830   0.81350   0.01267  Uiso   1.00
H29    H     0.30590   0.02570   0.70610   0.01267  Uiso   1.00
H30    H     0.19840   0.08010   0.65610   0.01267  Uiso   1.00
H31    H     0.31330   0.19310   0.70790   0.01267  Uiso   1.00
H32    H     0.42090   0.13860   0.75800   0.01267  Uiso   1.00
H33    H     0.75510   0.40870   0.63470   0.01267  Uiso   1.00
H34    H     0.82970   0.36730   0.60170   0.01267  Uiso   1.00
H35    H     0.44120   0.53450   0.62890   0.01267  Uiso   1.00
H36    H     0.59750   0.37050   0.47330   0.01267  Uiso   1.00
H37    H     0.15310   0.17060   0.82680   0.01267  Uiso   1.00
H38    H     0.05960   0.24090   0.78910   0.01267  Uiso   1.00
H39    H     0.72760   0.23070   0.87350   0.01267  Uiso   1.00
H40    H     0.82100   0.16050   0.91110   0.01267  Uiso   1.00
H41    H     0.94730   0.27680   0.73880   0.01267  Uiso   1.00
H42    H     0.86940   0.35020   0.70200   0.01267  Uiso   1.00
H43    H     0.60790   0.38680   0.82480   0.01267  Uiso   1.00
H44    H     0.68570   0.31350   0.86170   0.01267  Uiso   1.00
H45    H     0.58160   0.20610   0.47430   0.01267  Uiso   1.00
H46    H     0.52850   0.15610   0.41990   0.01267  Uiso   1.00
H47    H     0.75640   0.20790   0.30690   0.01267  Uiso   1.00
H48    H     0.80950   0.25800   0.36140   0.01267  Uiso   1.00
H49    H     0.79850   0.59130   0.36530   0.01267  Uiso   1.00
H50    H     0.79870   0.63270   0.39830   0.01267  Uiso   1.00
H51    H     0.60460   0.46550   0.37110   0.01267  Uiso   1.00
H52    H     0.44130   0.62950   0.52670   0.01267  Uiso   1.00
H53    H     0.15050   0.82940   0.17320   0.01267  Uiso   1.00
H54    H     0.08960   0.75910   0.21090   0.01267  Uiso   1.00
H55    H     0.83180   0.76930   0.12650   0.01267  Uiso   1.00
H56    H     0.89260   0.83950   0.08890   0.01267  Uiso   1.00
H57    H     0.96290   0.72320   0.26120   0.01267  Uiso   1.00
H58    H     0.92160   0.64980   0.29800   0.01267  Uiso   1.00
H59    H     0.81950   0.61320   0.17520   0.01267  Uiso   1.00
H60    H     0.86090   0.68650   0.13830   0.01267  Uiso   1.00
H61    H     0.26200   0.79390   0.52570   0.01267  Uiso   1.00
H62    H     0.10450   0.84390   0.58010   0.01267  Uiso   1.00
H63    H     0.27120   0.79210   0.69310   0.01267  Uiso   1.00
H64    H     0.42890   0.74200   0.63860   0.01267  Uiso   1.00
H65    H     0.61020   0.59130   0.63470   0.01267  Uiso   1.00
H66    H     0.56860   0.63270   0.60170   0.01267  Uiso   1.00
H67    H     0.92990   0.46550   0.62890   0.01267  Uiso   1.00
H68    H     0.92920   0.62950   0.47330   0.01267  Uiso   1.00
H69    H     0.02010   0.82940   0.82680   0.01267  Uiso   1.00
H70    H     0.15130   0.75910   0.78910   0.01267  Uiso   1.00
H71    H     0.39890   0.76930   0.87350   0.01267  Uiso   1.00
H72    H     0.26790   0.83950   0.91110   0.01267  Uiso   1.00
H73    H     0.31390   0.72320   0.73880   0.01267  Uiso   1.00
H74    H     0.42860   0.64980   0.70200   0.01267  Uiso   1.00
H75    H     0.56730   0.61320   0.82480   0.01267  Uiso   1.00
H76    H     0.45260   0.68650   0.86170   0.01267  Uiso   1.00
H77    H     0.94410   0.79390   0.47430   0.01267  Uiso   1.00
H78    H     0.05160   0.84390   0.41990   0.01267  Uiso   1.00
H79    H     0.93670   0.79210   0.30690   0.01267  Uiso   1.00
H80    H     0.82910   0.74200   0.36140   0.01267  Uiso   1.00
H81    H     0.83620   0.40870   0.36530   0.01267  Uiso   1.00
H82    H     0.80300   0.36730   0.39830   0.01267  Uiso   1.00
H83    H     0.02430   0.53450   0.37110   0.01267  Uiso   1.00
H84    H     0.03200   0.37050   0.52670   0.01267  Uiso   1.00
H85    H     0.67630   0.17060   0.17320   0.01267  Uiso   1.00
H86    H     0.69950   0.24090   0.21090   0.01267  Uiso   1.00
H87    H     0.04170   0.23070   0.12650   0.01267  Uiso   1.00
H88    H     0.01850   0.16050   0.08890   0.01267  Uiso   1.00
H89    H     0.77590   0.27680   0.26120   0.01267  Uiso   1.00
H90    H     0.78040   0.35020   0.29800   0.01267  Uiso   1.00
H91    H     0.00530   0.38680   0.17520   0.01267  Uiso   1.00
H92    H     0.00080   0.31350   0.13830   0.01267  Uiso   1.00
H93    H     0.21230   0.20610   0.52570   0.01267  Uiso   1.00
H94    H     0.31540   0.15610   0.58010   0.01267  Uiso   1.00
H95    H     0.03570   0.20790   0.69310   0.01267  Uiso   1.00
H96    H     0.93250   0.25800   0.63860   0.01267  Uiso   1.00
H97    H     0.45150   0.13470   0.90870   0.01267  Uiso   1.00
H98    H     0.45130   0.10170   0.86730   0.01267  Uiso   1.00
H99    H     0.64540   0.12890   0.03450   0.01267  Uiso   1.00
H100   H     0.80870   0.97330   0.87050   0.01267  Uiso   1.00
H101   H     0.09950   0.32680   0.67060   0.01267  Uiso   1.00
H102   H     0.16040   0.28910   0.74090   0.01267  Uiso   1.00
H103   H     0.41820   0.37350   0.73070   0.01267  Uiso   1.00
H104   H     0.35740   0.41110   0.66050   0.01267  Uiso   1.00
H105   H     0.28710   0.23880   0.77680   0.01267  Uiso   1.00
H106   H     0.32840   0.20200   0.85020   0.01267  Uiso   1.00
H107   H     0.43050   0.32480   0.88680   0.01267  Uiso   1.00
H108   H     0.38910   0.36170   0.81350   0.01267  Uiso   1.00
H109   H     0.98800   0.97430   0.70610   0.01267  Uiso   1.00
H110   H     0.14550   0.91990   0.65610   0.01267  Uiso   1.00
H111   H     0.97880   0.80690   0.70790   0.01267  Uiso   1.00
H112   H     0.82110   0.86140   0.75800   0.01267  Uiso   1.00
H113   H     0.49490   0.86530   0.09130   0.01267  Uiso   1.00
H114   H     0.42030   0.89830   0.13270   0.01267  Uiso   1.00
H115   H     0.80880   0.87110   0.96550   0.01267  Uiso   1.00
H116   H     0.65250   0.02670   0.12950   0.01267  Uiso   1.00
H117   H     0.09690   0.67320   0.32940   0.01267  Uiso   1.00
H118   H     0.19040   0.71090   0.25910   0.01267  Uiso   1.00
H119   H     0.52240   0.62650   0.26930   0.01267  Uiso   1.00
H120   H     0.42900   0.58890   0.33950   0.01267  Uiso   1.00
H121   H     0.30270   0.76120   0.22320   0.01267  Uiso   1.00
H122   H     0.38060   0.79800   0.14980   0.01267  Uiso   1.00
H123   H     0.64210   0.67520   0.11320   0.01267  Uiso   1.00
H124   H     0.56430   0.63830   0.18650   0.01267  Uiso   1.00
H125   H     0.66840   0.02570   0.29390   0.01267  Uiso   1.00
H126   H     0.72150   0.08010   0.34390   0.01267  Uiso   1.00
H127   H     0.49360   0.19310   0.29210   0.01267  Uiso   1.00
H128   H     0.44050   0.13860   0.24200   0.01267  Uiso   1.00
C1     C     0.23480   0.11120   0.99440   0.01267  Uiso   1.00
C2     C     0.21480   0.05410   0.04550   0.01267  Uiso   1.00
C3     C     0.23460   0.00070   0.11050   0.01267  Uiso   1.00
C4     C     0.33800   0.07330   0.09530   0.01267  Uiso   1.00
C5     C     0.28550   0.08510   0.05890   0.01267  Uiso   1.00
C6     C     0.42850   0.39830   0.38530   0.01267  Uiso   1.00
C7     C     0.50050   0.33610   0.31730   0.01267  Uiso   1.00
C8     C     0.48660   0.31360   0.27520   0.01267  Uiso   1.00
C9     C     0.37710   0.32760   0.25720   0.01267  Uiso   1.00
C10    C     0.28160   0.36410   0.28130   0.01267  Uiso   1.00
C11    C     0.29540   0.38670   0.32350   0.01267  Uiso   1.00
C12    C     0.40490   0.37260   0.34140   0.01267  Uiso   1.00
C13    C     0.42810   0.25610   0.20110   0.01267  Uiso   1.00
C14    C     0.42550   0.23390   0.15710   0.01267  Uiso   1.00
C15    C     0.35680   0.25960   0.12420   0.01267  Uiso   1.00
C16    C     0.29070   0.30760   0.13520   0.01267  Uiso   1.00
C17    C     0.29340   0.32970   0.17910   0.01267  Uiso   1.00
C18    C     0.36200   0.30400   0.21220   0.01267  Uiso   1.00
C19    C     0.35420   0.23640   0.07540   0.01267  Uiso   1.00
C20    C     0.26360   0.95390   0.23050   0.01267  Uiso   1.00
C21    C     0.07280   0.94080   0.29360   0.01267  Uiso   1.00
C22    C     0.01130   0.90810   0.32350   0.01267  Uiso   1.00
C23    C     0.06450   0.85800   0.32300   0.01267  Uiso   1.00
C24    C     0.17850   0.84050   0.29250   0.01267  Uiso   1.00
C25    C     0.24070   0.87310   0.26250   0.01267  Uiso   1.00
C26    C     0.18780   0.92320   0.26300   0.01267  Uiso   1.00
C27    C     0.34040   0.88880   0.00560   0.01267  Uiso   1.00
C28    C     0.31440   0.94590   0.95450   0.01267  Uiso   1.00
C29    C     0.34580   0.99930   0.88950   0.01267  Uiso   1.00
C30    C     0.50660   0.92670   0.90470   0.01267  Uiso   1.00
C31    C     0.42950   0.91490   0.94110   0.01267  Uiso   1.00
C32    C     0.21210   0.60170   0.61470   0.01267  Uiso   1.00
C33    C     0.15390   0.66390   0.68270   0.01267  Uiso   1.00
C34    C     0.07540   0.68640   0.72480   0.01267  Uiso   1.00
C35    C     0.96190   0.67240   0.74280   0.01267  Uiso   1.00
C36    C     0.92700   0.63590   0.71870   0.01267  Uiso   1.00
C37    C     0.00560   0.61330   0.67650   0.01267  Uiso   1.00
C38    C     0.11890   0.62740   0.65860   0.01267  Uiso   1.00
C39    C     0.88530   0.74390   0.79890   0.01267  Uiso   1.00
C40    C     0.81650   0.76610   0.84290   0.01267  Uiso   1.00
C41    C     0.74060   0.74040   0.87580   0.01267  Uiso   1.00
C42    C     0.73350   0.69240   0.86480   0.01267  Uiso   1.00
C43    C     0.80220   0.67030   0.82090   0.01267  Uiso   1.00
C44    C     0.87820   0.69600   0.78780   0.01267  Uiso   1.00
C45    C     0.66600   0.76360   0.92460   0.01267  Uiso   1.00
C46    C     0.44800   0.04610   0.76950   0.01267  Uiso   1.00
C47    C     0.30720   0.05920   0.70640   0.01267  Uiso   1.00
C48    C     0.24290   0.09190   0.67650   0.01267  Uiso   1.00
C49    C     0.24550   0.14200   0.67700   0.01267  Uiso   1.00
C50    C     0.31150   0.15950   0.70750   0.01267  Uiso   1.00
C51    C     0.37630   0.12690   0.73750   0.01267  Uiso   1.00
C52    C     0.37400   0.07680   0.73700   0.01267  Uiso   1.00
C53    C     0.47920   0.50560   0.61120   0.01267  Uiso   1.00
C54    C     0.51030   0.45450   0.55410   0.01267  Uiso   1.00
C55    C     0.59510   0.38950   0.50070   0.01267  Uiso   1.00
C56    C     0.68330   0.40470   0.57330   0.01267  Uiso   1.00
C57    C     0.59440   0.44110   0.58510   0.01267  Uiso   1.00
C58    C     0.06380   0.11470   0.89830   0.01267  Uiso   1.00
C59    C     0.06780   0.18270   0.83610   0.01267  Uiso   1.00
C60    C     0.01180   0.22480   0.81360   0.01267  Uiso   1.00
C61    C     0.88430   0.24280   0.82760   0.01267  Uiso   1.00
C62    C     0.81290   0.21870   0.86410   0.01267  Uiso   1.00
C63    C     0.86890   0.17650   0.88670   0.01267  Uiso   1.00
C64    C     0.99630   0.15860   0.87260   0.01267  Uiso   1.00
C65    C     0.87920   0.29890   0.75610   0.01267  Uiso   1.00
C66    C     0.83260   0.34290   0.73390   0.01267  Uiso   1.00
C67    C     0.73100   0.37580   0.75960   0.01267  Uiso   1.00
C68    C     0.67590   0.36480   0.80760   0.01267  Uiso   1.00
C69    C     0.72250   0.32090   0.82970   0.01267  Uiso   1.00
C70    C     0.82420   0.28780   0.80400   0.01267  Uiso   1.00
C71    C     0.67960   0.42460   0.73640   0.01267  Uiso   1.00
C72    C     0.74410   0.26950   0.45390   0.01267  Uiso   1.00
C73    C     0.61640   0.20640   0.44080   0.01267  Uiso   1.00
C74    C     0.58480   0.17650   0.40810   0.01267  Uiso   1.00
C75    C     0.63750   0.17700   0.35800   0.01267  Uiso   1.00
C76    C     0.72100   0.20750   0.34050   0.01267  Uiso   1.00
C77    C     0.75320   0.23750   0.37310   0.01267  Uiso   1.00
C78    C     0.70080   0.23700   0.42320   0.01267  Uiso   1.00
C79    C     0.59600   0.49440   0.38880   0.01267  Uiso   1.00
C80    C     0.51890   0.54550   0.44590   0.01267  Uiso   1.00
C81    C     0.48530   0.61050   0.49930   0.01267  Uiso   1.00
C82    C     0.66130   0.59530   0.42670   0.01267  Uiso   1.00
C83    C     0.62060   0.55890   0.41490   0.01267  Uiso   1.00
C84    C     0.07680   0.88530   0.10170   0.01267  Uiso   1.00
C85    C     0.08660   0.81730   0.16390   0.01267  Uiso   1.00
C86    C     0.05020   0.77520   0.18640   0.01267  Uiso   1.00
C87    C     0.95470   0.75720   0.17240   0.01267  Uiso   1.00
C88    C     0.89570   0.78130   0.13590   0.01267  Uiso   1.00
C89    C     0.93210   0.82350   0.11330   0.01267  Uiso   1.00
C90    C     0.02750   0.84140   0.12740   0.01267  Uiso   1.00
C91    C     0.93420   0.70110   0.24390   0.01267  Uiso   1.00
C92    C     0.90940   0.65710   0.26610   0.01267  Uiso   1.00
C93    C     0.86640   0.62420   0.24040   0.01267  Uiso   1.00
C94    C     0.84830   0.63520   0.19240   0.01267  Uiso   1.00
C95    C     0.87310   0.67910   0.17030   0.01267  Uiso   1.00
C96    C     0.91600   0.71220   0.19600   0.01267  Uiso   1.00
C97    C     0.84060   0.57540   0.26360   0.01267  Uiso   1.00
C98    C     0.46750   0.73050   0.54610   0.01267  Uiso   1.00
C99    C     0.26360   0.79360   0.55920   0.01267  Uiso   1.00
C100   C     0.16940   0.82350   0.59190   0.01267  Uiso   1.00
C101   C     0.17250   0.82300   0.64200   0.01267  Uiso   1.00
C102   C     0.26900   0.79250   0.65950   0.01267  Uiso   1.00
C103   C     0.36380   0.76250   0.62690   0.01267  Uiso   1.00
C104   C     0.36100   0.76300   0.57680   0.01267  Uiso   1.00
C105   C     0.90960   0.49440   0.61120   0.01267  Uiso   1.00
C106   C     0.93560   0.54550   0.55410   0.01267  Uiso   1.00
C107   C     0.90420   0.61050   0.50070   0.01267  Uiso   1.00
C108   C     0.74340   0.59530   0.57330   0.01267  Uiso   1.00
C109   C     0.82050   0.55890   0.58510   0.01267  Uiso   1.00
C110   C     0.03790   0.88530   0.89830   0.01267  Uiso   1.00
C111   C     0.09610   0.81730   0.83610   0.01267  Uiso   1.00
C112   C     0.17460   0.77520   0.81360   0.01267  Uiso   1.00
C113   C     0.28810   0.75720   0.82760   0.01267  Uiso   1.00
C114   C     0.32300   0.78130   0.86410   0.01267  Uiso   1.00
C115   C     0.24440   0.82350   0.88670   0.01267  Uiso   1.00
C116   C     0.13110   0.84140   0.87260   0.01267  Uiso   1.00
C117   C     0.36470   0.70110   0.75610   0.01267  Uiso   1.00
C118   C     0.43350   0.65710   0.73390   0.01267  Uiso   1.00
C119   C     0.50940   0.62420   0.75960   0.01267  Uiso   1.00
C120   C     0.51650   0.63520   0.80760   0.01267  Uiso   1.00
C121   C     0.44780   0.67910   0.82970   0.01267  Uiso   1.00
C122   C     0.37180   0.71220   0.80400   0.01267  Uiso   1.00
C123   C     0.58400   0.57540   0.73640   0.01267  Uiso   1.00
C124   C     0.80200   0.73050   0.45390   0.01267  Uiso   1.00
C125   C     0.94280   0.79360   0.44080   0.01267  Uiso   1.00
C126   C     0.00710   0.82350   0.40810   0.01267  Uiso   1.00
C127   C     0.00450   0.82300   0.35800   0.01267  Uiso   1.00
C128   C     0.93850   0.79250   0.34050   0.01267  Uiso   1.00
C129   C     0.87370   0.76250   0.37310   0.01267  Uiso   1.00
C130   C     0.87600   0.76300   0.42320   0.01267  Uiso   1.00
C131   C     0.01520   0.50560   0.38880   0.01267  Uiso   1.00
C132   C     0.03520   0.45450   0.44590   0.01267  Uiso   1.00
C133   C     0.01540   0.38950   0.49930   0.01267  Uiso   1.00
C134   C     0.91200   0.40470   0.42670   0.01267  Uiso   1.00
C135   C     0.96450   0.44110   0.41490   0.01267  Uiso   1.00
C136   C     0.82150   0.11470   0.10170   0.01267  Uiso   1.00
C137   C     0.74950   0.18270   0.16390   0.01267  Uiso   1.00
C138   C     0.76340   0.22480   0.18640   0.01267  Uiso   1.00
C139   C     0.87290   0.24280   0.17240   0.01267  Uiso   1.00
C140   C     0.96840   0.21870   0.13590   0.01267  Uiso   1.00
C141   C     0.95460   0.17650   0.11330   0.01267  Uiso   1.00
C142   C     0.84510   0.15860   0.12740   0.01267  Uiso   1.00
C143   C     0.82190   0.29890   0.24390   0.01267  Uiso   1.00
C144   C     0.82450   0.34290   0.26610   0.01267  Uiso   1.00
C145   C     0.89320   0.37580   0.24040   0.01267  Uiso   1.00
C146   C     0.95930   0.36480   0.19240   0.01267  Uiso   1.00
C147   C     0.95660   0.32090   0.17030   0.01267  Uiso   1.00
C148   C     0.88800   0.28780   0.19600   0.01267  Uiso   1.00
C149   C     0.89580   0.42460   0.26360   0.01267  Uiso   1.00
C150   C     0.98640   0.26950   0.54610   0.01267  Uiso   1.00
C151   C     0.17720   0.20640   0.55920   0.01267  Uiso   1.00
C152   C     0.23870   0.17650   0.59190   0.01267  Uiso   1.00
C153   C     0.18550   0.17700   0.64200   0.01267  Uiso   1.00
C154   C     0.07150   0.20750   0.65950   0.01267  Uiso   1.00
C155   C     0.00930   0.23750   0.62690   0.01267  Uiso   1.00
C156   C     0.06220   0.23700   0.57680   0.01267  Uiso   1.00
C157   C     0.65400   0.11120   0.00560   0.01267  Uiso   1.00
C158   C     0.73110   0.05410   0.95450   0.01267  Uiso   1.00
C159   C     0.76470   0.00070   0.88950   0.01267  Uiso   1.00
C160   C     0.58870   0.07330   0.90470   0.01267  Uiso   1.00
C161   C     0.62940   0.08510   0.94110   0.01267  Uiso   1.00
C162   C     0.17320   0.39830   0.61470   0.01267  Uiso   1.00
C163   C     0.16340   0.33610   0.68270   0.01267  Uiso   1.00
C164   C     0.19980   0.31360   0.72480   0.01267  Uiso   1.00
C165   C     0.29530   0.32760   0.74280   0.01267  Uiso   1.00
C166   C     0.35430   0.36410   0.71870   0.01267  Uiso   1.00
C167   C     0.31790   0.38670   0.67650   0.01267  Uiso   1.00
C168   C     0.22250   0.37260   0.65860   0.01267  Uiso   1.00
C169   C     0.31580   0.25610   0.79890   0.01267  Uiso   1.00
C170   C     0.34060   0.23390   0.84290   0.01267  Uiso   1.00
C171   C     0.38360   0.25960   0.87580   0.01267  Uiso   1.00
C172   C     0.40170   0.30760   0.86480   0.01267  Uiso   1.00
C173   C     0.37690   0.32970   0.82090   0.01267  Uiso   1.00
C174   C     0.33400   0.30400   0.78780   0.01267  Uiso   1.00
C175   C     0.40940   0.23640   0.92460   0.01267  Uiso   1.00
C176   C     0.78250   0.95390   0.76950   0.01267  Uiso   1.00
C177   C     0.98640   0.94080   0.70640   0.01267  Uiso   1.00
C178   C     0.08060   0.90810   0.67650   0.01267  Uiso   1.00
C179   C     0.07750   0.85800   0.67700   0.01267  Uiso   1.00
C180   C     0.98100   0.84050   0.70750   0.01267  Uiso   1.00
C181   C     0.88620   0.87310   0.73750   0.01267  Uiso   1.00
C182   C     0.88900   0.92320   0.73700   0.01267  Uiso   1.00
C183   C     0.77080   0.88880   0.99440   0.01267  Uiso   1.00
C184   C     0.73970   0.94590   0.04550   0.01267  Uiso   1.00
C185   C     0.65490   0.99930   0.11050   0.01267  Uiso   1.00
C186   C     0.56670   0.92670   0.09530   0.01267  Uiso   1.00
C187   C     0.65560   0.91490   0.05890   0.01267  Uiso   1.00
C188   C     0.18620   0.60170   0.38530   0.01267  Uiso   1.00
C189   C     0.18220   0.66390   0.31730   0.01267  Uiso   1.00
C190   C     0.23820   0.68640   0.27520   0.01267  Uiso   1.00
C191   C     0.36570   0.67240   0.25720   0.01267  Uiso   1.00
C192   C     0.43710   0.63590   0.28130   0.01267  Uiso   1.00
C193   C     0.38110   0.61330   0.32350   0.01267  Uiso   1.00
C194   C     0.25370   0.62740   0.34140   0.01267  Uiso   1.00
C195   C     0.37080   0.74390   0.20110   0.01267  Uiso   1.00
C196   C     0.41740   0.76610   0.15710   0.01267  Uiso   1.00
C197   C     0.51900   0.74040   0.12420   0.01267  Uiso   1.00
C198   C     0.57410   0.69240   0.13520   0.01267  Uiso   1.00
C199   C     0.52750   0.67030   0.17910   0.01267  Uiso   1.00
C200   C     0.42580   0.69600   0.21220   0.01267  Uiso   1.00
C201   C     0.57040   0.76360   0.07540   0.01267  Uiso   1.00
C202   C     0.50590   0.04610   0.23050   0.01267  Uiso   1.00
C203   C     0.63360   0.05920   0.29360   0.01267  Uiso   1.00
C204   C     0.66520   0.09190   0.32350   0.01267  Uiso   1.00
C205   C     0.61250   0.14200   0.32300   0.01267  Uiso   1.00
C206   C     0.52900   0.15950   0.29250   0.01267  Uiso   1.00
C207   C     0.49680   0.12690   0.26250   0.01267  Uiso   1.00
C208   C     0.54920   0.07680   0.26300   0.01267  Uiso   1.00
N1     N     0.18320   0.07180   0.00580   0.01267  Uiso   1.00
N2     N     0.18340   0.01290   0.06990   0.01267  Uiso   1.00
N3     N     0.30600   0.02730   0.12270   0.01267  Uiso   1.00
N4     N     0.30410   0.12560   0.02720   0.01267  Uiso   1.00
N5     N     0.40941   0.10799   0.10819   0.01267  Uiso   1.00
N6     N     0.26080   0.92820   0.99420   0.01267  Uiso   1.00
N7     N     0.26620   0.98710   0.93010   0.01267  Uiso   1.00
N8     N     0.45600   0.97270   0.87730   0.01267  Uiso   1.00
N9     N     0.45690   0.87440   0.97280   0.01267  Uiso   1.00
N10    N     0.62559   0.89201   0.89181   0.01267  Uiso   1.00
N11    N     0.43900   0.49420   0.57180   0.01267  Uiso   1.00
N12    N     0.50330   0.43010   0.51290   0.01267  Uiso   1.00
N13    N     0.67870   0.37730   0.52730   0.01267  Uiso   1.00
N14    N     0.58130   0.47280   0.62560   0.01267  Uiso   1.00
N15    N     0.76760   0.39181   0.60799   0.01267  Uiso   1.00
N16    N     0.50500   0.50580   0.42820   0.01267  Uiso   1.00
N17    N     0.44630   0.56990   0.48710   0.01267  Uiso   1.00
N18    N     0.58330   0.62270   0.47270   0.01267  Uiso   1.00
N19    N     0.67970   0.52720   0.37440   0.01267  Uiso   1.00
N20    N     0.76740   0.60819   0.39201   0.01267  Uiso   1.00
N21    N     0.98920   0.50580   0.57180   0.01267  Uiso   1.00
N22    N     0.98380   0.56990   0.51290   0.01267  Uiso   1.00
N23    N     0.79400   0.62270   0.52730   0.01267  Uiso   1.00
N24    N     0.79310   0.52720   0.62560   0.01267  Uiso   1.00
N25    N     0.62441   0.60819   0.60799   0.01267  Uiso   1.00
N26    N     0.06680   0.49420   0.42820   0.01267  Uiso   1.00
N27    N     0.06660   0.43010   0.48710   0.01267  Uiso   1.00
N28    N     0.94400   0.37730   0.47270   0.01267  Uiso   1.00
N29    N     0.94590   0.47280   0.37440   0.01267  Uiso   1.00
N30    N     0.84059   0.39181   0.39201   0.01267  Uiso   1.00
N31    N     0.74500   0.07180   0.99420   0.01267  Uiso   1.00
N32    N     0.80370   0.01290   0.93010   0.01267  Uiso   1.00
N33    N     0.66670   0.02730   0.87730   0.01267  Uiso   1.00
N34    N     0.57030   0.12560   0.97280   0.01267  Uiso   1.00
N35    N     0.48260   0.10799   0.89181   0.01267  Uiso   1.00
N36    N     0.81100   0.92820   0.00580   0.01267  Uiso   1.00
N37    N     0.74670   0.98710   0.06990   0.01267  Uiso   1.00
N38    N     0.57130   0.97270   0.12270   0.01267  Uiso   1.00
N39    N     0.66870   0.87440   0.02720   0.01267  Uiso   1.00
N40    N     0.48240   0.89201   0.10819   0.01267  Uiso   1.00
O1     O     0.53150   0.39020   0.39340   0.01267  Uiso   1.00
O2     O     0.33730   0.43020   0.40640   0.01267  Uiso   1.00
O3     O     0.44130   0.19990   0.05970   0.01267  Uiso   1.00
O4     O     0.27150   0.25000   0.05320   0.01267  Uiso   1.00
O5     O     0.34730   0.93970   0.19770   0.01267  Uiso   1.00
O6     O     0.23670   0.99940   0.24200   0.01267  Uiso   1.00
O7     O     0.31510   0.60980   0.60660   0.01267  Uiso   1.00
O8     O     0.17390   0.56980   0.59360   0.01267  Uiso   1.00
O9     O     0.70090   0.80010   0.94030   0.01267  Uiso   1.00
O10    O     0.57470   0.75000   0.94680   0.01267  Uiso   1.00
O11    O     0.48470   0.06030   0.80230   0.01267  Uiso   1.00
O12    O     0.47810   0.00060   0.75800   0.01267  Uiso   1.00
O13    O     0.17490   0.10660   0.89020   0.01267  Uiso   1.00
O14    O     0.99370   0.09360   0.93020   0.01267  Uiso   1.00
O15    O     0.75100   0.44030   0.69990   0.01267  Uiso   1.00
O16    O     0.57470   0.44680   0.75000   0.01267  Uiso   1.00
O17    O     0.79500   0.30230   0.43970   0.01267  Uiso   1.00
O18    O     0.72870   0.25800   0.49940   0.01267  Uiso   1.00
O19    O     0.17170   0.89340   0.10980   0.01267  Uiso   1.00
O20    O     0.01750   0.90640   0.06980   0.01267  Uiso   1.00
O21    O     0.89120   0.55970   0.30010   0.01267  Uiso   1.00
O22    O     0.77150   0.55320   0.25000   0.01267  Uiso   1.00
O23    O     0.53700   0.69770   0.56030   0.01267  Uiso   1.00
O24    O     0.48610   0.74200   0.50060   0.01267  Uiso   1.00
O25    O     0.93490   0.89340   0.89020   0.01267  Uiso   1.00
O26    O     0.07610   0.90640   0.93020   0.01267  Uiso   1.00
O27    O     0.54910   0.55970   0.69990   0.01267  Uiso   1.00
O28    O     0.67530   0.55320   0.75000   0.01267  Uiso   1.00
O29    O     0.76530   0.69770   0.43970   0.01267  Uiso   1.00
O30    O     0.77190   0.74200   0.49940   0.01267  Uiso   1.00
O31    O     0.71850   0.10660   0.10980   0.01267  Uiso   1.00
O32    O     0.91270   0.09360   0.06980   0.01267  Uiso   1.00
O33    O     0.80870   0.44030   0.30010   0.01267  Uiso   1.00
O34    O     0.97850   0.44680   0.25000   0.01267  Uiso   1.00
O35    O     0.90270   0.30230   0.56030   0.01267  Uiso   1.00
O36    O     0.01330   0.25800   0.50060   0.01267  Uiso   1.00
O37    O     0.07830   0.39020   0.60660   0.01267  Uiso   1.00
O38    O     0.23250   0.43020   0.59360   0.01267  Uiso   1.00
O39    O     0.35880   0.19990   0.94030   0.01267  Uiso   1.00
O40    O     0.47850   0.25000   0.94680   0.01267  Uiso   1.00
O41    O     0.71300   0.93970   0.80230   0.01267  Uiso   1.00
O42    O     0.76390   0.99940   0.75800   0.01267  Uiso   1.00
O43    O     0.07510   0.60980   0.39340   0.01267  Uiso   1.00
O44    O     0.25630   0.56980   0.40640   0.01267  Uiso   1.00
O45    O     0.49900   0.80010   0.05970   0.01267  Uiso   1.00
O46    O     0.67530   0.75000   0.05320   0.01267  Uiso   1.00
O47    O     0.45500   0.06030   0.19770   0.01267  Uiso   1.00
O48    O     0.52130   0.00060   0.24200   0.01267  Uiso   1.00
O49    O     0.25000   0.50000   0.50000   0.01267  Uiso   1.00
O50    O     0.00000   0.00000   0.00000   0.01267  Uiso   1.00
