data_image0
_cell_length_a       17.8074
_cell_length_b       13.1145
_cell_length_c       11.0514
_cell_angle_alpha    90
_cell_angle_beta     103.844
_cell_angle_gamma    90

_symmetry_space_group_name_H-M    "P 1"
_symmetry_int_tables_number       1

loop_
  _symmetry_equiv_pos_as_xyz
  'x, y, z'

loop_
  _atom_site_label
  _atom_site_occupancy
  _atom_site_fract_x
  _atom_site_fract_y
  _atom_site_fract_z
  _atom_site_thermal_displace_type
  _atom_site_B_iso_or_equiv
  _atom_site_type_symbol
  Mg1      1.0000 0.58662  0.03403  0.54347  Biso   1.000  Mg
  N1       1.0000 0.68677  0.93120  0.61550  Biso   1.000  N
  O1       1.0000 0.57715  0.98486  0.72229  Biso   1.000  O
  O2       1.0000 0.63585  0.91444  0.90432  Biso   1.000  O
  O3       1.0000 0.85157  0.65944  0.86760  Biso   1.000  O
  O4       1.0000 0.91611  0.70314  0.72400  Biso   1.000  O
  O5       1.0000 0.47874  0.08445  0.55380  Biso   1.000  O
  H1       1.0000 0.46700  0.13600  0.52800  Biso   1.000  H
  C1       1.0000 0.69094  0.89260  0.73030  Biso   1.000  C
  C2       1.0000 0.74621  0.82200  0.78740  Biso   1.000  C
  H2       1.0000 0.74700  0.79900  0.87700  Biso   1.000  H
  C3       1.0000 0.80081  0.79030  0.72380  Biso   1.000  C
  C4       1.0000 0.79819  0.83230  0.60730  Biso   1.000  C
  H3       1.0000 0.83500  0.80800  0.55500  Biso   1.000  H
  C5       1.0000 0.74046  0.90120  0.55650  Biso   1.000  C
  H4       1.0000 0.73400  0.93000  0.47500  Biso   1.000  H
  C6       1.0000 0.63005  0.93330  0.79210  Biso   1.000  C
  C7       1.0000 0.86140  0.71080  0.77720  Biso   1.000  C
  Mg2      1.0000 0.08662  0.53403  0.54347  Biso   1.000  Mg
  N2       1.0000 0.18677  0.43120  0.61550  Biso   1.000  N
  O6       1.0000 0.07715  0.48486  0.72229  Biso   1.000  O
  O7       1.0000 0.13585  0.41444  0.90432  Biso   1.000  O
  O8       1.0000 0.35157  0.15944  0.86760  Biso   1.000  O
  O9       1.0000 0.41611  0.20314  0.72400  Biso   1.000  O
  O10      1.0000 0.97874  0.58445  0.55380  Biso   1.000  O
  H5       1.0000 0.96700  0.63600  0.52800  Biso   1.000  H
  C8       1.0000 0.19094  0.39260  0.73030  Biso   1.000  C
  C9       1.0000 0.24621  0.32200  0.78740  Biso   1.000  C
  H6       1.0000 0.24700  0.29900  0.87700  Biso   1.000  H
  C10      1.0000 0.30081  0.29030  0.72380  Biso   1.000  C
  C11      1.0000 0.29819  0.33230  0.60730  Biso   1.000  C
  H7       1.0000 0.33500  0.30800  0.55500  Biso   1.000  H
  C12      1.0000 0.24046  0.40120  0.55650  Biso   1.000  C
  H8       1.0000 0.23400  0.43000  0.47500  Biso   1.000  H
  C13      1.0000 0.13005  0.43330  0.79210  Biso   1.000  C
  C14      1.0000 0.36140  0.21080  0.77720  Biso   1.000  C
  Mg3      1.0000 0.41338  0.03403  0.95653  Biso   1.000  Mg
  N3       1.0000 0.31323  0.93120  0.88450  Biso   1.000  N
  O11      1.0000 0.42285  0.98486  0.77771  Biso   1.000  O
  O12      1.0000 0.36415  0.91444  0.59568  Biso   1.000  O
  O13      1.0000 0.14843  0.65944  0.63240  Biso   1.000  O
  O14      1.0000 0.08389  0.70314  0.77600  Biso   1.000  O
  O15      1.0000 0.52126  0.08445  0.94620  Biso   1.000  O
  H9       1.0000 0.53300  0.13600  0.97200  Biso   1.000  H
  C15      1.0000 0.30906  0.89260  0.76970  Biso   1.000  C
  C16      1.0000 0.25379  0.82200  0.71260  Biso   1.000  C
  H10      1.0000 0.25300  0.79900  0.62300  Biso   1.000  H
  C17      1.0000 0.19919  0.79030  0.77620  Biso   1.000  C
  C18      1.0000 0.20181  0.83230  0.89270  Biso   1.000  C
  H11      1.0000 0.16500  0.80800  0.94500  Biso   1.000  H
  C19      1.0000 0.25954  0.90120  0.94350  Biso   1.000  C
  H12      1.0000 0.26600  0.93000  0.02500  Biso   1.000  H
  C20      1.0000 0.36995  0.93330  0.70790  Biso   1.000  C
  C21      1.0000 0.13860  0.71080  0.72280  Biso   1.000  C
  Mg4      1.0000 0.91338  0.53403  0.95653  Biso   1.000  Mg
  N4       1.0000 0.81323  0.43120  0.88450  Biso   1.000  N
  O16      1.0000 0.92285  0.48486  0.77771  Biso   1.000  O
  O17      1.0000 0.86415  0.41444  0.59568  Biso   1.000  O
  O18      1.0000 0.64843  0.15944  0.63240  Biso   1.000  O
  O19      1.0000 0.58389  0.20314  0.77600  Biso   1.000  O
  O20      1.0000 0.02126  0.58445  0.94620  Biso   1.000  O
  H13      1.0000 0.03300  0.63600  0.97200  Biso   1.000  H
  C22      1.0000 0.80906  0.39260  0.76970  Biso   1.000  C
  C23      1.0000 0.75379  0.32200  0.71260  Biso   1.000  C
  H14      1.0000 0.75300  0.29900  0.62300  Biso   1.000  H
  C24      1.0000 0.69919  0.29030  0.77620  Biso   1.000  C
  C25      1.0000 0.70181  0.33230  0.89270  Biso   1.000  C
  H15      1.0000 0.66500  0.30800  0.94500  Biso   1.000  H
  C26      1.0000 0.75954  0.40120  0.94350  Biso   1.000  C
  H16      1.0000 0.76600  0.43000  0.02500  Biso   1.000  H
  C27      1.0000 0.86995  0.43330  0.70790  Biso   1.000  C
  C28      1.0000 0.63860  0.21080  0.72280  Biso   1.000  C
  Mg5      1.0000 0.41338  0.96597  0.45653  Biso   1.000  Mg
  N5       1.0000 0.31323  0.06880  0.38450  Biso   1.000  N
  O21      1.0000 0.42285  0.01514  0.27771  Biso   1.000  O
  O22      1.0000 0.36415  0.08556  0.09568  Biso   1.000  O
  O23      1.0000 0.14843  0.34056  0.13240  Biso   1.000  O
  O24      1.0000 0.08389  0.29686  0.27600  Biso   1.000  O
  O25      1.0000 0.52126  0.91555  0.44620  Biso   1.000  O
  H17      1.0000 0.53300  0.86400  0.47200  Biso   1.000  H
  C29      1.0000 0.30906  0.10740  0.26970  Biso   1.000  C
  C30      1.0000 0.25379  0.17800  0.21260  Biso   1.000  C
  H18      1.0000 0.25300  0.20100  0.12300  Biso   1.000  H
  C31      1.0000 0.19919  0.20970  0.27620  Biso   1.000  C
  C32      1.0000 0.20181  0.16770  0.39270  Biso   1.000  C
  H19      1.0000 0.16500  0.19200  0.44500  Biso   1.000  H
  C33      1.0000 0.25954  0.09880  0.44350  Biso   1.000  C
  H20      1.0000 0.26600  0.07000  0.52500  Biso   1.000  H
  C34      1.0000 0.36995  0.06670  0.20790  Biso   1.000  C
  C35      1.0000 0.13860  0.28920  0.22280  Biso   1.000  C
  Mg6      1.0000 0.91338  0.46597  0.45653  Biso   1.000  Mg
  N6       1.0000 0.81323  0.56880  0.38450  Biso   1.000  N
  O26      1.0000 0.92285  0.51514  0.27771  Biso   1.000  O
  O27      1.0000 0.86415  0.58556  0.09568  Biso   1.000  O
  O28      1.0000 0.64843  0.84056  0.13240  Biso   1.000  O
  O29      1.0000 0.58389  0.79686  0.27600  Biso   1.000  O
  O30      1.0000 0.02126  0.41555  0.44620  Biso   1.000  O
  H21      1.0000 0.03300  0.36400  0.47200  Biso   1.000  H
  C36      1.0000 0.80906  0.60740  0.26970  Biso   1.000  C
  C37      1.0000 0.75379  0.67800  0.21260  Biso   1.000  C
  H22      1.0000 0.75300  0.70100  0.12300  Biso   1.000  H
  C38      1.0000 0.69919  0.70970  0.27620  Biso   1.000  C
  C39      1.0000 0.70181  0.66770  0.39270  Biso   1.000  C
  H23      1.0000 0.66500  0.69200  0.44500  Biso   1.000  H
  C40      1.0000 0.75954  0.59880  0.44350  Biso   1.000  C
  H24      1.0000 0.76600  0.57000  0.52500  Biso   1.000  H
  C41      1.0000 0.86995  0.56670  0.20790  Biso   1.000  C
  C42      1.0000 0.63860  0.78920  0.22280  Biso   1.000  C
  Mg7      1.0000 0.58662  0.96597  0.04347  Biso   1.000  Mg
  N7       1.0000 0.68677  0.06880  0.11550  Biso   1.000  N
  O31      1.0000 0.57715  0.01514  0.22229  Biso   1.000  O
  O32      1.0000 0.63585  0.08556  0.40432  Biso   1.000  O
  O33      1.0000 0.85157  0.34056  0.36760  Biso   1.000  O
  O34      1.0000 0.91611  0.29686  0.22400  Biso   1.000  O
  O35      1.0000 0.47874  0.91555  0.05380  Biso   1.000  O
  H25      1.0000 0.46700  0.86400  0.02800  Biso   1.000  H
  C43      1.0000 0.69094  0.10740  0.23030  Biso   1.000  C
  C44      1.0000 0.74621  0.17800  0.28740  Biso   1.000  C
  H26      1.0000 0.74700  0.20100  0.37700  Biso   1.000  H
  C45      1.0000 0.80081  0.20970  0.22380  Biso   1.000  C
  C46      1.0000 0.79819  0.16770  0.10730  Biso   1.000  C
  H27      1.0000 0.83500  0.19200  0.05500  Biso   1.000  H
  C47      1.0000 0.74046  0.09880  0.05650  Biso   1.000  C
  H28      1.0000 0.73400  0.07000  0.97500  Biso   1.000  H
  C48      1.0000 0.63005  0.06670  0.29210  Biso   1.000  C
  C49      1.0000 0.86140  0.28920  0.27720  Biso   1.000  C
  Mg8      1.0000 0.08662  0.46597  0.04347  Biso   1.000  Mg
  N8       1.0000 0.18677  0.56880  0.11550  Biso   1.000  N
  O36      1.0000 0.07715  0.51514  0.22229  Biso   1.000  O
  O37      1.0000 0.13585  0.58556  0.40432  Biso   1.000  O
  O38      1.0000 0.35157  0.84056  0.36760  Biso   1.000  O
  O39      1.0000 0.41611  0.79686  0.22400  Biso   1.000  O
  O40      1.0000 0.97874  0.41555  0.05380  Biso   1.000  O
  H29      1.0000 0.96700  0.36400  0.02800  Biso   1.000  H
  C50      1.0000 0.19094  0.60740  0.23030  Biso   1.000  C
  C51      1.0000 0.24621  0.67800  0.28740  Biso   1.000  C
  H30      1.0000 0.24700  0.70100  0.37700  Biso   1.000  H
  C52      1.0000 0.30081  0.70970  0.22380  Biso   1.000  C
  C53      1.0000 0.29819  0.66770  0.10730  Biso   1.000  C
  H31      1.0000 0.33500  0.69200  0.05500  Biso   1.000  H
  C54      1.0000 0.24046  0.59880  0.05650  Biso   1.000  C
  H32      1.0000 0.23400  0.57000  0.97500  Biso   1.000  H
  C55      1.0000 0.13005  0.56670  0.29210  Biso   1.000  C
  C56      1.0000 0.36140  0.78920  0.27720  Biso   1.000  C
  Mg9      1.0000 0.50000  0.09502  0.75000  Biso   1.000  Mg
  Mg10     1.0000 0.00000  0.59502  0.75000  Biso   1.000  Mg
  Mg11     1.0000 0.50000  0.90498  0.25000  Biso   1.000  Mg
  Mg12     1.0000 0.00000  0.40498  0.25000  Biso   1.000  Mg
