data_image0
_cell_length_a       17.9958
_cell_length_b       12.8531
_cell_length_c       11.0394
_cell_angle_alpha    90
_cell_angle_beta     103.588
_cell_angle_gamma    90

_symmetry_space_group_name_H-M    "P 1"
_symmetry_int_tables_number       1

loop_
  _symmetry_equiv_pos_as_xyz
  'x, y, z'

loop_
  _atom_site_label
  _atom_site_occupancy
  _atom_site_fract_x
  _atom_site_fract_y
  _atom_site_fract_z
  _atom_site_thermal_displace_type
  _atom_site_B_iso_or_equiv
  _atom_site_type_symbol
  Mg1      1.0000 0.41464  0.53577  0.45809  Biso   1.000  Mg
  O1       1.0000 0.52131  0.58608  0.44628  Biso   1.000  O
  H1       1.0000 0.53720  0.63620  0.47400  Biso   1.000  H
  O2       1.0000 0.36506  0.41384  0.09729  Biso   1.000  O
  O3       1.0000 0.08303  0.20798  0.27519  Biso   1.000  O
  O4       1.0000 0.14517  0.16520  0.12839  Biso   1.000  O
  O5       1.0000 0.42330  0.48576  0.27891  Biso   1.000  O
  C1       1.0000 0.30926  0.39449  0.27046  Biso   1.000  C
  N1       1.0000 0.31386  0.43302  0.38578  Biso   1.000  N
  C2       1.0000 0.13655  0.21628  0.22092  Biso   1.000  C
  C3       1.0000 0.25285  0.32559  0.21243  Biso   1.000  C
  H2       1.0000 0.25390  0.29940  0.13200  Biso   1.000  H
  C4       1.0000 0.19803  0.29536  0.27529  Biso   1.000  C
  C5       1.0000 0.20159  0.33673  0.39237  Biso   1.000  C
  H3       1.0000 0.16460  0.31940  0.43600  Biso   1.000  H
  C6       1.0000 0.37057  0.43374  0.20905  Biso   1.000  C
  C7       1.0000 0.26001  0.40442  0.44415  Biso   1.000  C
  H4       1.0000 0.26410  0.43410  0.52600  Biso   1.000  H
  Mg2      1.0000 0.91464  0.03577  0.45809  Biso   1.000  Mg
  O6       1.0000 0.02131  0.08608  0.44628  Biso   1.000  O
  H5       1.0000 0.03720  0.13620  0.47400  Biso   1.000  H
  O7       1.0000 0.86506  0.91384  0.09729  Biso   1.000  O
  O8       1.0000 0.58303  0.70798  0.27519  Biso   1.000  O
  O9       1.0000 0.64517  0.66520  0.12839  Biso   1.000  O
  O10      1.0000 0.92330  0.98576  0.27891  Biso   1.000  O
  C8       1.0000 0.80926  0.89449  0.27046  Biso   1.000  C
  N2       1.0000 0.81386  0.93302  0.38578  Biso   1.000  N
  C9       1.0000 0.63655  0.71628  0.22092  Biso   1.000  C
  C10      1.0000 0.75285  0.82559  0.21243  Biso   1.000  C
  H6       1.0000 0.75390  0.79940  0.13200  Biso   1.000  H
  C11      1.0000 0.69803  0.79536  0.27529  Biso   1.000  C
  C12      1.0000 0.70159  0.83673  0.39237  Biso   1.000  C
  H7       1.0000 0.66460  0.81940  0.43600  Biso   1.000  H
  C13      1.0000 0.87057  0.93374  0.20905  Biso   1.000  C
  C14      1.0000 0.76001  0.90442  0.44415  Biso   1.000  C
  H8       1.0000 0.76410  0.93410  0.52600  Biso   1.000  H
  Mg3      1.0000 0.58536  0.53577  0.04191  Biso   1.000  Mg
  O11      1.0000 0.47869  0.58608  0.05372  Biso   1.000  O
  H9       1.0000 0.46280  0.63620  0.02600  Biso   1.000  H
  O12      1.0000 0.63494  0.41384  0.40271  Biso   1.000  O
  O13      1.0000 0.91697  0.20798  0.22481  Biso   1.000  O
  O14      1.0000 0.85483  0.16520  0.37161  Biso   1.000  O
  O15      1.0000 0.57670  0.48576  0.22109  Biso   1.000  O
  C15      1.0000 0.69074  0.39449  0.22954  Biso   1.000  C
  N3       1.0000 0.68614  0.43302  0.11422  Biso   1.000  N
  C16      1.0000 0.86345  0.21628  0.27908  Biso   1.000  C
  C17      1.0000 0.74715  0.32559  0.28757  Biso   1.000  C
  H10      1.0000 0.74610  0.29940  0.36800  Biso   1.000  H
  C18      1.0000 0.80197  0.29536  0.22471  Biso   1.000  C
  C19      1.0000 0.79841  0.33673  0.10763  Biso   1.000  C
  H11      1.0000 0.83540  0.31940  0.06400  Biso   1.000  H
  C20      1.0000 0.62943  0.43374  0.29095  Biso   1.000  C
  C21      1.0000 0.73999  0.40442  0.05585  Biso   1.000  C
  H12      1.0000 0.73590  0.43410  0.97400  Biso   1.000  H
  Mg4      1.0000 0.08536  0.03577  0.04191  Biso   1.000  Mg
  O16      1.0000 0.97869  0.08608  0.05372  Biso   1.000  O
  H13      1.0000 0.96280  0.13620  0.02600  Biso   1.000  H
  O17      1.0000 0.13494  0.91384  0.40271  Biso   1.000  O
  O18      1.0000 0.41697  0.70798  0.22481  Biso   1.000  O
  O19      1.0000 0.35483  0.66520  0.37161  Biso   1.000  O
  O20      1.0000 0.07670  0.98576  0.22109  Biso   1.000  O
  C22      1.0000 0.19074  0.89449  0.22954  Biso   1.000  C
  N4       1.0000 0.18614  0.93302  0.11422  Biso   1.000  N
  C23      1.0000 0.36345  0.71628  0.27908  Biso   1.000  C
  C24      1.0000 0.24715  0.82559  0.28757  Biso   1.000  C
  H14      1.0000 0.24610  0.79940  0.36800  Biso   1.000  H
  C25      1.0000 0.30197  0.79536  0.22471  Biso   1.000  C
  C26      1.0000 0.29841  0.83673  0.10763  Biso   1.000  C
  H15      1.0000 0.33540  0.81940  0.06400  Biso   1.000  H
  C27      1.0000 0.12943  0.93374  0.29095  Biso   1.000  C
  C28      1.0000 0.23999  0.90442  0.05585  Biso   1.000  C
  H16      1.0000 0.23590  0.93410  0.97400  Biso   1.000  H
  Mg5      1.0000 0.58536  0.46423  0.54191  Biso   1.000  Mg
  O21      1.0000 0.47869  0.41392  0.55372  Biso   1.000  O
  H17      1.0000 0.46280  0.36380  0.52600  Biso   1.000  H
  O22      1.0000 0.63494  0.58616  0.90271  Biso   1.000  O
  O23      1.0000 0.91697  0.79202  0.72481  Biso   1.000  O
  O24      1.0000 0.85483  0.83480  0.87161  Biso   1.000  O
  O25      1.0000 0.57670  0.51424  0.72109  Biso   1.000  O
  C29      1.0000 0.69074  0.60551  0.72954  Biso   1.000  C
  N5       1.0000 0.68614  0.56698  0.61422  Biso   1.000  N
  C30      1.0000 0.86345  0.78372  0.77908  Biso   1.000  C
  C31      1.0000 0.74715  0.67441  0.78757  Biso   1.000  C
  H18      1.0000 0.74610  0.70060  0.86800  Biso   1.000  H
  C32      1.0000 0.80197  0.70464  0.72471  Biso   1.000  C
  C33      1.0000 0.79841  0.66327  0.60763  Biso   1.000  C
  H19      1.0000 0.83540  0.68060  0.56400  Biso   1.000  H
  C34      1.0000 0.62943  0.56626  0.79095  Biso   1.000  C
  C35      1.0000 0.73999  0.59558  0.55585  Biso   1.000  C
  H20      1.0000 0.73590  0.56590  0.47400  Biso   1.000  H
  Mg6      1.0000 0.08536  0.96423  0.54191  Biso   1.000  Mg
  O26      1.0000 0.97869  0.91392  0.55372  Biso   1.000  O
  H21      1.0000 0.96280  0.86380  0.52600  Biso   1.000  H
  O27      1.0000 0.13494  0.08616  0.90271  Biso   1.000  O
  O28      1.0000 0.41697  0.29202  0.72481  Biso   1.000  O
  O29      1.0000 0.35483  0.33480  0.87161  Biso   1.000  O
  O30      1.0000 0.07670  0.01424  0.72109  Biso   1.000  O
  C36      1.0000 0.19074  0.10551  0.72954  Biso   1.000  C
  N6       1.0000 0.18614  0.06698  0.61422  Biso   1.000  N
  C37      1.0000 0.36345  0.28372  0.77908  Biso   1.000  C
  C38      1.0000 0.24715  0.17441  0.78757  Biso   1.000  C
  H22      1.0000 0.24610  0.20060  0.86800  Biso   1.000  H
  C39      1.0000 0.30197  0.20464  0.72471  Biso   1.000  C
  C40      1.0000 0.29841  0.16327  0.60763  Biso   1.000  C
  H23      1.0000 0.33540  0.18060  0.56400  Biso   1.000  H
  C41      1.0000 0.12943  0.06626  0.79095  Biso   1.000  C
  C42      1.0000 0.23999  0.09558  0.55585  Biso   1.000  C
  H24      1.0000 0.23590  0.06590  0.47400  Biso   1.000  H
  Mg7      1.0000 0.41464  0.46423  0.95809  Biso   1.000  Mg
  O31      1.0000 0.52131  0.41392  0.94628  Biso   1.000  O
  H25      1.0000 0.53720  0.36380  0.97400  Biso   1.000  H
  O32      1.0000 0.36506  0.58616  0.59729  Biso   1.000  O
  O33      1.0000 0.08303  0.79202  0.77519  Biso   1.000  O
  O34      1.0000 0.14517  0.83480  0.62839  Biso   1.000  O
  O35      1.0000 0.42330  0.51424  0.77891  Biso   1.000  O
  C43      1.0000 0.30926  0.60551  0.77046  Biso   1.000  C
  N7       1.0000 0.31386  0.56698  0.88578  Biso   1.000  N
  C44      1.0000 0.13655  0.78372  0.72092  Biso   1.000  C
  C45      1.0000 0.25285  0.67441  0.71243  Biso   1.000  C
  H26      1.0000 0.25390  0.70060  0.63200  Biso   1.000  H
  C46      1.0000 0.19803  0.70464  0.77529  Biso   1.000  C
  C47      1.0000 0.20159  0.66327  0.89237  Biso   1.000  C
  H27      1.0000 0.16460  0.68060  0.93600  Biso   1.000  H
  C48      1.0000 0.37057  0.56626  0.70905  Biso   1.000  C
  C49      1.0000 0.26001  0.59558  0.94415  Biso   1.000  C
  H28      1.0000 0.26410  0.56590  0.02600  Biso   1.000  H
  Mg8      1.0000 0.91464  0.96423  0.95809  Biso   1.000  Mg
  O36      1.0000 0.02131  0.91392  0.94628  Biso   1.000  O
  H29      1.0000 0.03720  0.86380  0.97400  Biso   1.000  H
  O37      1.0000 0.86506  0.08616  0.59729  Biso   1.000  O
  O38      1.0000 0.58303  0.29202  0.77519  Biso   1.000  O
  O39      1.0000 0.64517  0.33480  0.62839  Biso   1.000  O
  O40      1.0000 0.92330  0.01424  0.77891  Biso   1.000  O
  C50      1.0000 0.80926  0.10551  0.77046  Biso   1.000  C
  N8       1.0000 0.81386  0.06698  0.88578  Biso   1.000  N
  C51      1.0000 0.63655  0.28372  0.72092  Biso   1.000  C
  C52      1.0000 0.75285  0.17441  0.71243  Biso   1.000  C
  H30      1.0000 0.75390  0.20060  0.63200  Biso   1.000  H
  C53      1.0000 0.69803  0.20464  0.77529  Biso   1.000  C
  C54      1.0000 0.70159  0.16327  0.89237  Biso   1.000  C
  H31      1.0000 0.66460  0.18060  0.93600  Biso   1.000  H
  C55      1.0000 0.87057  0.06626  0.70905  Biso   1.000  C
  C56      1.0000 0.76001  0.09558  0.94415  Biso   1.000  C
  H32      1.0000 0.76410  0.06590  0.02600  Biso   1.000  H
  Mg9      1.0000 0.50000  0.59773  0.25000  Biso   1.000  Mg
  Mg10     1.0000 0.00000  0.09773  0.25000  Biso   1.000  Mg
  Mg11     1.0000 0.50000  0.40227  0.75000  Biso   1.000  Mg
  Mg12     1.0000 0.00000  0.90227  0.75000  Biso   1.000  Mg
