data_image0
_cell_length_a       18.204
_cell_length_b       12.3884
_cell_length_c       11.0014
_cell_angle_alpha    90
_cell_angle_beta     102.366
_cell_angle_gamma    90

_symmetry_space_group_name_H-M    "P 1"
_symmetry_int_tables_number       1

loop_
  _symmetry_equiv_pos_as_xyz
  'x, y, z'

loop_
  _atom_site_label
  _atom_site_occupancy
  _atom_site_fract_x
  _atom_site_fract_y
  _atom_site_fract_z
  _atom_site_thermal_displace_type
  _atom_site_B_iso_or_equiv
  _atom_site_type_symbol
  N1       1.0000 0.81640  0.56780  0.38990  Biso   1.000  N
  Mg1      1.0000 0.91703  0.46405  0.46041  Biso   1.000  Mg
  O1       1.0000 0.92470  0.51440  0.28050  Biso   1.000  O
  O2       1.0000 0.86949  0.59120  0.10180  Biso   1.000  O
  O3       1.0000 0.64534  0.83280  0.12830  Biso   1.000  O
  O4       1.0000 0.58117  0.78210  0.27120  Biso   1.000  O
  O5       1.0000 0.02100  0.41030  0.44540  Biso   1.000  O
  H1       1.0000 0.03500  0.36600  0.48000  Biso   1.000  H
  C1       1.0000 0.81190  0.60700  0.27430  Biso   1.000  C
  C2       1.0000 0.75490  0.67450  0.21570  Biso   1.000  C
  H2       1.0000 0.75800  0.70200  0.14300  Biso   1.000  H
  C3       1.0000 0.69960  0.70120  0.27770  Biso   1.000  C
  C4       1.0000 0.70240  0.66000  0.39370  Biso   1.000  C
  H3       1.0000 0.66100  0.67100  0.44000  Biso   1.000  H
  C5       1.0000 0.76200  0.59520  0.44740  Biso   1.000  C
  H4       1.0000 0.76500  0.57100  0.52300  Biso   1.000  H
  C6       1.0000 0.87420  0.56820  0.21240  Biso   1.000  C
  C7       1.0000 0.63630  0.77810  0.21940  Biso   1.000  C
  N2       1.0000 0.31640  0.06780  0.38990  Biso   1.000  N
  Mg2      1.0000 0.41703  0.96405  0.46041  Biso   1.000  Mg
  O6       1.0000 0.42470  0.01440  0.28050  Biso   1.000  O
  O7       1.0000 0.36949  0.09120  0.10180  Biso   1.000  O
  O8       1.0000 0.14534  0.33280  0.12830  Biso   1.000  O
  O9       1.0000 0.08117  0.28210  0.27120  Biso   1.000  O
  O10      1.0000 0.52100  0.91030  0.44540  Biso   1.000  O
  H5       1.0000 0.53500  0.86600  0.48000  Biso   1.000  H
  C8       1.0000 0.31190  0.10700  0.27430  Biso   1.000  C
  C9       1.0000 0.25490  0.17450  0.21570  Biso   1.000  C
  H6       1.0000 0.25800  0.20200  0.14300  Biso   1.000  H
  C10      1.0000 0.19960  0.20120  0.27770  Biso   1.000  C
  C11      1.0000 0.20240  0.16000  0.39370  Biso   1.000  C
  H7       1.0000 0.16100  0.17100  0.44000  Biso   1.000  H
  C12      1.0000 0.26200  0.09520  0.44740  Biso   1.000  C
  H8       1.0000 0.26500  0.07100  0.52300  Biso   1.000  H
  C13      1.0000 0.37420  0.06820  0.21240  Biso   1.000  C
  C14      1.0000 0.13630  0.27810  0.21940  Biso   1.000  C
  N3       1.0000 0.18360  0.56780  0.11010  Biso   1.000  N
  Mg3      1.0000 0.08297  0.46405  0.03959  Biso   1.000  Mg
  O11      1.0000 0.07530  0.51440  0.21950  Biso   1.000  O
  O12      1.0000 0.13051  0.59120  0.39820  Biso   1.000  O
  O13      1.0000 0.35466  0.83280  0.37170  Biso   1.000  O
  O14      1.0000 0.41883  0.78210  0.22880  Biso   1.000  O
  O15      1.0000 0.97900  0.41030  0.05460  Biso   1.000  O
  H9       1.0000 0.96500  0.36600  0.02000  Biso   1.000  H
  C15      1.0000 0.18810  0.60700  0.22570  Biso   1.000  C
  C16      1.0000 0.24510  0.67450  0.28430  Biso   1.000  C
  H10      1.0000 0.24200  0.70200  0.35700  Biso   1.000  H
  C17      1.0000 0.30040  0.70120  0.22230  Biso   1.000  C
  C18      1.0000 0.29760  0.66000  0.10630  Biso   1.000  C
  H11      1.0000 0.33900  0.67100  0.06000  Biso   1.000  H
  C19      1.0000 0.23800  0.59520  0.05260  Biso   1.000  C
  H12      1.0000 0.23500  0.57100  0.97700  Biso   1.000  H
  C20      1.0000 0.12580  0.56820  0.28760  Biso   1.000  C
  C21      1.0000 0.36370  0.77810  0.28060  Biso   1.000  C
  N4       1.0000 0.68360  0.06780  0.11010  Biso   1.000  N
  Mg4      1.0000 0.58297  0.96405  0.03959  Biso   1.000  Mg
  O16      1.0000 0.57530  0.01440  0.21950  Biso   1.000  O
  O17      1.0000 0.63051  0.09120  0.39820  Biso   1.000  O
  O18      1.0000 0.85466  0.33280  0.37170  Biso   1.000  O
  O19      1.0000 0.91883  0.28210  0.22880  Biso   1.000  O
  O20      1.0000 0.47900  0.91030  0.05460  Biso   1.000  O
  H13      1.0000 0.46500  0.86600  0.02000  Biso   1.000  H
  C22      1.0000 0.68810  0.10700  0.22570  Biso   1.000  C
  C23      1.0000 0.74510  0.17450  0.28430  Biso   1.000  C
  H14      1.0000 0.74200  0.20200  0.35700  Biso   1.000  H
  C24      1.0000 0.80040  0.20120  0.22230  Biso   1.000  C
  C25      1.0000 0.79760  0.16000  0.10630  Biso   1.000  C
  H15      1.0000 0.83900  0.17100  0.06000  Biso   1.000  H
  C26      1.0000 0.73800  0.09520  0.05260  Biso   1.000  C
  H16      1.0000 0.73500  0.07100  0.97700  Biso   1.000  H
  C27      1.0000 0.62580  0.06820  0.28760  Biso   1.000  C
  C28      1.0000 0.86370  0.27810  0.28060  Biso   1.000  C
  N5       1.0000 0.18360  0.43220  0.61010  Biso   1.000  N
  Mg5      1.0000 0.08297  0.53595  0.53959  Biso   1.000  Mg
  O21      1.0000 0.07530  0.48560  0.71950  Biso   1.000  O
  O22      1.0000 0.13051  0.40880  0.89820  Biso   1.000  O
  O23      1.0000 0.35466  0.16720  0.87170  Biso   1.000  O
  O24      1.0000 0.41883  0.21790  0.72880  Biso   1.000  O
  O25      1.0000 0.97900  0.58970  0.55460  Biso   1.000  O
  H17      1.0000 0.96500  0.63400  0.52000  Biso   1.000  H
  C29      1.0000 0.18810  0.39300  0.72570  Biso   1.000  C
  C30      1.0000 0.24510  0.32550  0.78430  Biso   1.000  C
  H18      1.0000 0.24200  0.29800  0.85700  Biso   1.000  H
  C31      1.0000 0.30040  0.29880  0.72230  Biso   1.000  C
  C32      1.0000 0.29760  0.34000  0.60630  Biso   1.000  C
  H19      1.0000 0.33900  0.32900  0.56000  Biso   1.000  H
  C33      1.0000 0.23800  0.40480  0.55260  Biso   1.000  C
  H20      1.0000 0.23500  0.42900  0.47700  Biso   1.000  H
  C34      1.0000 0.12580  0.43180  0.78760  Biso   1.000  C
  C35      1.0000 0.36370  0.22190  0.78060  Biso   1.000  C
  N6       1.0000 0.68360  0.93220  0.61010  Biso   1.000  N
  Mg6      1.0000 0.58297  0.03595  0.53959  Biso   1.000  Mg
  O26      1.0000 0.57530  0.98560  0.71950  Biso   1.000  O
  O27      1.0000 0.63051  0.90880  0.89820  Biso   1.000  O
  O28      1.0000 0.85466  0.66720  0.87170  Biso   1.000  O
  O29      1.0000 0.91883  0.71790  0.72880  Biso   1.000  O
  O30      1.0000 0.47900  0.08970  0.55460  Biso   1.000  O
  H21      1.0000 0.46500  0.13400  0.52000  Biso   1.000  H
  C36      1.0000 0.68810  0.89300  0.72570  Biso   1.000  C
  C37      1.0000 0.74510  0.82550  0.78430  Biso   1.000  C
  H22      1.0000 0.74200  0.79800  0.85700  Biso   1.000  H
  C38      1.0000 0.80040  0.79880  0.72230  Biso   1.000  C
  C39      1.0000 0.79760  0.84000  0.60630  Biso   1.000  C
  H23      1.0000 0.83900  0.82900  0.56000  Biso   1.000  H
  C40      1.0000 0.73800  0.90480  0.55260  Biso   1.000  C
  H24      1.0000 0.73500  0.92900  0.47700  Biso   1.000  H
  C41      1.0000 0.62580  0.93180  0.78760  Biso   1.000  C
  C42      1.0000 0.86370  0.72190  0.78060  Biso   1.000  C
  N7       1.0000 0.81640  0.43220  0.88990  Biso   1.000  N
  Mg7      1.0000 0.91703  0.53595  0.96041  Biso   1.000  Mg
  O31      1.0000 0.92470  0.48560  0.78050  Biso   1.000  O
  O32      1.0000 0.86949  0.40880  0.60180  Biso   1.000  O
  O33      1.0000 0.64534  0.16720  0.62830  Biso   1.000  O
  O34      1.0000 0.58117  0.21790  0.77120  Biso   1.000  O
  O35      1.0000 0.02100  0.58970  0.94540  Biso   1.000  O
  H25      1.0000 0.03500  0.63400  0.98000  Biso   1.000  H
  C43      1.0000 0.81190  0.39300  0.77430  Biso   1.000  C
  C44      1.0000 0.75490  0.32550  0.71570  Biso   1.000  C
  H26      1.0000 0.75800  0.29800  0.64300  Biso   1.000  H
  C45      1.0000 0.69960  0.29880  0.77770  Biso   1.000  C
  C46      1.0000 0.70240  0.34000  0.89370  Biso   1.000  C
  H27      1.0000 0.66100  0.32900  0.94000  Biso   1.000  H
  C47      1.0000 0.76200  0.40480  0.94740  Biso   1.000  C
  H28      1.0000 0.76500  0.42900  0.02300  Biso   1.000  H
  C48      1.0000 0.87420  0.43180  0.71240  Biso   1.000  C
  C49      1.0000 0.63630  0.22190  0.71940  Biso   1.000  C
  N8       1.0000 0.31640  0.93220  0.88990  Biso   1.000  N
  Mg8      1.0000 0.41703  0.03595  0.96041  Biso   1.000  Mg
  O36      1.0000 0.42470  0.98560  0.78050  Biso   1.000  O
  O37      1.0000 0.36949  0.90880  0.60180  Biso   1.000  O
  O38      1.0000 0.14534  0.66720  0.62830  Biso   1.000  O
  O39      1.0000 0.08117  0.71790  0.77120  Biso   1.000  O
  O40      1.0000 0.52100  0.08970  0.94540  Biso   1.000  O
  H29      1.0000 0.53500  0.13400  0.98000  Biso   1.000  H
  C50      1.0000 0.31190  0.89300  0.77430  Biso   1.000  C
  C51      1.0000 0.25490  0.82550  0.71570  Biso   1.000  C
  H30      1.0000 0.25800  0.79800  0.64300  Biso   1.000  H
  C52      1.0000 0.19960  0.79880  0.77770  Biso   1.000  C
  C53      1.0000 0.20240  0.84000  0.89370  Biso   1.000  C
  H31      1.0000 0.16100  0.82900  0.94000  Biso   1.000  H
  C54      1.0000 0.26200  0.90480  0.94740  Biso   1.000  C
  H32      1.0000 0.26500  0.92900  0.02300  Biso   1.000  H
  C55      1.0000 0.37420  0.93180  0.71240  Biso   1.000  C
  C56      1.0000 0.13630  0.72190  0.71940  Biso   1.000  C
  Mg9      1.0000 0.00000  0.39659  0.25000  Biso   1.000  Mg
  Mg10     1.0000 0.50000  0.89659  0.25000  Biso   1.000  Mg
  Mg11     1.0000 0.00000  0.60341  0.75000  Biso   1.000  Mg
  Mg12     1.0000 0.50000  0.10341  0.75000  Biso   1.000  Mg
