data_image0
_cell_length_a       18.0488
_cell_length_b       12.7515
_cell_length_c       10.9978
_cell_angle_alpha    90
_cell_angle_beta     103.13
_cell_angle_gamma    90

_symmetry_space_group_name_H-M    "P 1"
_symmetry_int_tables_number       1

loop_
  _symmetry_equiv_pos_as_xyz
  'x, y, z'

loop_
  _atom_site_label
  _atom_site_occupancy
  _atom_site_fract_x
  _atom_site_fract_y
  _atom_site_fract_z
  _atom_site_thermal_displace_type
  _atom_site_B_iso_or_equiv
  _atom_site_type_symbol
  N1       1.0000 0.18565  0.93323  0.61203  Biso   1.000  N
  Mg1      1.0000 0.08501  0.03650  0.54126  Biso   1.000  Mg
  O1       1.0000 0.07652  0.98555  0.72054  Biso   1.000  O
  O2       1.0000 0.13326  0.91067  0.90084  Biso   1.000  O
  O3       1.0000 0.35463  0.66607  0.86983  Biso   1.000  O
  O4       1.0000 0.41701  0.70971  0.72387  Biso   1.000  O
  O5       1.0000 0.97880  0.08679  0.55373  Biso   1.000  O
  H1       1.0000 0.96240  0.14500  0.52800  Biso   1.000  H
  C1       1.0000 0.19032  0.89409  0.72760  Biso   1.000  C
  C2       1.0000 0.24655  0.82590  0.78590  Biso   1.000  C
  H2       1.0000 0.24450  0.80600  0.86400  Biso   1.000  H
  C3       1.0000 0.30175  0.79570  0.72250  Biso   1.000  C
  C4       1.0000 0.29836  0.83790  0.60480  Biso   1.000  C
  H3       1.0000 0.33620  0.82000  0.55900  Biso   1.000  H
  C5       1.0000 0.23999  0.90550  0.55330  Biso   1.000  C
  H4       1.0000 0.23220  0.93400  0.46600  Biso   1.000  H
  C6       1.0000 0.12824  0.93213  0.78900  Biso   1.000  C
  C7       1.0000 0.36325  0.71731  0.77750  Biso   1.000  C
  N2       1.0000 0.68565  0.43323  0.61203  Biso   1.000  N
  Mg2      1.0000 0.58501  0.53650  0.54126  Biso   1.000  Mg
  O6       1.0000 0.57652  0.48555  0.72054  Biso   1.000  O
  O7       1.0000 0.63326  0.41067  0.90084  Biso   1.000  O
  O8       1.0000 0.85463  0.16607  0.86983  Biso   1.000  O
  O9       1.0000 0.91701  0.20971  0.72387  Biso   1.000  O
  O10      1.0000 0.47880  0.58679  0.55373  Biso   1.000  O
  H5       1.0000 0.46240  0.64500  0.52800  Biso   1.000  H
  C8       1.0000 0.69032  0.39409  0.72760  Biso   1.000  C
  C9       1.0000 0.74655  0.32590  0.78590  Biso   1.000  C
  H6       1.0000 0.74450  0.30600  0.86400  Biso   1.000  H
  C10      1.0000 0.80175  0.29570  0.72250  Biso   1.000  C
  C11      1.0000 0.79836  0.33790  0.60480  Biso   1.000  C
  H7       1.0000 0.83620  0.32000  0.55900  Biso   1.000  H
  C12      1.0000 0.73999  0.40550  0.55330  Biso   1.000  C
  H8       1.0000 0.73220  0.43400  0.46600  Biso   1.000  H
  C13      1.0000 0.62824  0.43213  0.78900  Biso   1.000  C
  C14      1.0000 0.86325  0.21731  0.77750  Biso   1.000  C
  N3       1.0000 0.81435  0.93323  0.88797  Biso   1.000  N
  Mg3      1.0000 0.91499  0.03650  0.95874  Biso   1.000  Mg
  O11      1.0000 0.92348  0.98555  0.77946  Biso   1.000  O
  O12      1.0000 0.86674  0.91067  0.59916  Biso   1.000  O
  O13      1.0000 0.64537  0.66607  0.63017  Biso   1.000  O
  O14      1.0000 0.58299  0.70971  0.77613  Biso   1.000  O
  O15      1.0000 0.02120  0.08679  0.94627  Biso   1.000  O
  H9       1.0000 0.03760  0.14500  0.97200  Biso   1.000  H
  C15      1.0000 0.80968  0.89409  0.77240  Biso   1.000  C
  C16      1.0000 0.75345  0.82590  0.71410  Biso   1.000  C
  H10      1.0000 0.75550  0.80600  0.63600  Biso   1.000  H
  C17      1.0000 0.69825  0.79570  0.77750  Biso   1.000  C
  C18      1.0000 0.70164  0.83790  0.89520  Biso   1.000  C
  H11      1.0000 0.66380  0.82000  0.94100  Biso   1.000  H
  C19      1.0000 0.76001  0.90550  0.94670  Biso   1.000  C
  H12      1.0000 0.76780  0.93400  0.03400  Biso   1.000  H
  C20      1.0000 0.87176  0.93213  0.71100  Biso   1.000  C
  C21      1.0000 0.63675  0.71731  0.72250  Biso   1.000  C
  N4       1.0000 0.31435  0.43323  0.88797  Biso   1.000  N
  Mg4      1.0000 0.41499  0.53650  0.95874  Biso   1.000  Mg
  O16      1.0000 0.42348  0.48555  0.77946  Biso   1.000  O
  O17      1.0000 0.36674  0.41067  0.59916  Biso   1.000  O
  O18      1.0000 0.14537  0.16607  0.63017  Biso   1.000  O
  O19      1.0000 0.08299  0.20971  0.77613  Biso   1.000  O
  O20      1.0000 0.52120  0.58679  0.94627  Biso   1.000  O
  H13      1.0000 0.53760  0.64500  0.97200  Biso   1.000  H
  C22      1.0000 0.30968  0.39409  0.77240  Biso   1.000  C
  C23      1.0000 0.25345  0.32590  0.71410  Biso   1.000  C
  H14      1.0000 0.25550  0.30600  0.63600  Biso   1.000  H
  C24      1.0000 0.19825  0.29570  0.77750  Biso   1.000  C
  C25      1.0000 0.20164  0.33790  0.89520  Biso   1.000  C
  H15      1.0000 0.16380  0.32000  0.94100  Biso   1.000  H
  C26      1.0000 0.26001  0.40550  0.94670  Biso   1.000  C
  H16      1.0000 0.26780  0.43400  0.03400  Biso   1.000  H
  C27      1.0000 0.37176  0.43213  0.71100  Biso   1.000  C
  C28      1.0000 0.13675  0.21731  0.72250  Biso   1.000  C
  N5       1.0000 0.81435  0.06677  0.38797  Biso   1.000  N
  Mg5      1.0000 0.91499  0.96350  0.45874  Biso   1.000  Mg
  O21      1.0000 0.92348  0.01445  0.27946  Biso   1.000  O
  O22      1.0000 0.86674  0.08933  0.09916  Biso   1.000  O
  O23      1.0000 0.64537  0.33393  0.13017  Biso   1.000  O
  O24      1.0000 0.58299  0.29029  0.27613  Biso   1.000  O
  O25      1.0000 0.02120  0.91321  0.44627  Biso   1.000  O
  H17      1.0000 0.03760  0.85500  0.47200  Biso   1.000  H
  C29      1.0000 0.80968  0.10591  0.27240  Biso   1.000  C
  C30      1.0000 0.75345  0.17410  0.21410  Biso   1.000  C
  H18      1.0000 0.75550  0.19400  0.13600  Biso   1.000  H
  C31      1.0000 0.69825  0.20430  0.27750  Biso   1.000  C
  C32      1.0000 0.70164  0.16210  0.39520  Biso   1.000  C
  H19      1.0000 0.66380  0.18000  0.44100  Biso   1.000  H
  C33      1.0000 0.76001  0.09450  0.44670  Biso   1.000  C
  H20      1.0000 0.76780  0.06600  0.53400  Biso   1.000  H
  C34      1.0000 0.87176  0.06787  0.21100  Biso   1.000  C
  C35      1.0000 0.63675  0.28269  0.22250  Biso   1.000  C
  N6       1.0000 0.31435  0.56677  0.38797  Biso   1.000  N
  Mg6      1.0000 0.41499  0.46350  0.45874  Biso   1.000  Mg
  O26      1.0000 0.42348  0.51445  0.27946  Biso   1.000  O
  O27      1.0000 0.36674  0.58933  0.09916  Biso   1.000  O
  O28      1.0000 0.14537  0.83393  0.13017  Biso   1.000  O
  O29      1.0000 0.08299  0.79029  0.27613  Biso   1.000  O
  O30      1.0000 0.52120  0.41321  0.44627  Biso   1.000  O
  H21      1.0000 0.53760  0.35500  0.47200  Biso   1.000  H
  C36      1.0000 0.30968  0.60591  0.27240  Biso   1.000  C
  C37      1.0000 0.25345  0.67410  0.21410  Biso   1.000  C
  H22      1.0000 0.25550  0.69400  0.13600  Biso   1.000  H
  C38      1.0000 0.19825  0.70430  0.27750  Biso   1.000  C
  C39      1.0000 0.20164  0.66210  0.39520  Biso   1.000  C
  H23      1.0000 0.16380  0.68000  0.44100  Biso   1.000  H
  C40      1.0000 0.26001  0.59450  0.44670  Biso   1.000  C
  H24      1.0000 0.26780  0.56600  0.53400  Biso   1.000  H
  C41      1.0000 0.37176  0.56787  0.21100  Biso   1.000  C
  C42      1.0000 0.13675  0.78269  0.22250  Biso   1.000  C
  N7       1.0000 0.18565  0.06677  0.11203  Biso   1.000  N
  Mg7      1.0000 0.08501  0.96350  0.04126  Biso   1.000  Mg
  O31      1.0000 0.07652  0.01445  0.22054  Biso   1.000  O
  O32      1.0000 0.13326  0.08933  0.40084  Biso   1.000  O
  O33      1.0000 0.35463  0.33393  0.36983  Biso   1.000  O
  O34      1.0000 0.41701  0.29029  0.22387  Biso   1.000  O
  O35      1.0000 0.97880  0.91321  0.05373  Biso   1.000  O
  H25      1.0000 0.96240  0.85500  0.02800  Biso   1.000  H
  C43      1.0000 0.19032  0.10591  0.22760  Biso   1.000  C
  C44      1.0000 0.24655  0.17410  0.28590  Biso   1.000  C
  H26      1.0000 0.24450  0.19400  0.36400  Biso   1.000  H
  C45      1.0000 0.30175  0.20430  0.22250  Biso   1.000  C
  C46      1.0000 0.29836  0.16210  0.10480  Biso   1.000  C
  H27      1.0000 0.33620  0.18000  0.05900  Biso   1.000  H
  C47      1.0000 0.23999  0.09450  0.05330  Biso   1.000  C
  H28      1.0000 0.23220  0.06600  0.96600  Biso   1.000  H
  C48      1.0000 0.12824  0.06787  0.28900  Biso   1.000  C
  C49      1.0000 0.36325  0.28269  0.27750  Biso   1.000  C
  N8       1.0000 0.68565  0.56677  0.11203  Biso   1.000  N
  Mg8      1.0000 0.58501  0.46350  0.04126  Biso   1.000  Mg
  O36      1.0000 0.57652  0.51445  0.22054  Biso   1.000  O
  O37      1.0000 0.63326  0.58933  0.40084  Biso   1.000  O
  O38      1.0000 0.85463  0.83393  0.36983  Biso   1.000  O
  O39      1.0000 0.91701  0.79029  0.22387  Biso   1.000  O
  O40      1.0000 0.47880  0.41321  0.05373  Biso   1.000  O
  H29      1.0000 0.46240  0.35500  0.02800  Biso   1.000  H
  C50      1.0000 0.69032  0.60591  0.22760  Biso   1.000  C
  C51      1.0000 0.74655  0.67410  0.28590  Biso   1.000  C
  H30      1.0000 0.74450  0.69400  0.36400  Biso   1.000  H
  C52      1.0000 0.80175  0.70430  0.22250  Biso   1.000  C
  C53      1.0000 0.79836  0.66210  0.10480  Biso   1.000  C
  H31      1.0000 0.83620  0.68000  0.05900  Biso   1.000  H
  C54      1.0000 0.73999  0.59450  0.05330  Biso   1.000  C
  H32      1.0000 0.73220  0.56600  0.96600  Biso   1.000  H
  C55      1.0000 0.62824  0.56787  0.28900  Biso   1.000  C
  C56      1.0000 0.86325  0.78269  0.27750  Biso   1.000  C
  Mg9      1.0000 0.00000  0.09826  0.75000  Biso   1.000  Mg
  Mg10     1.0000 0.50000  0.59826  0.75000  Biso   1.000  Mg
  Mg11     1.0000 0.00000  0.90174  0.25000  Biso   1.000  Mg
  Mg12     1.0000 0.50000  0.40174  0.25000  Biso   1.000  Mg
