data_image0
_cell_length_a       12.024
_cell_length_b       13.773
_cell_length_c       15.85
_cell_angle_alpha    90
_cell_angle_beta     99.093
_cell_angle_gamma    90

_symmetry_space_group_name_H-M    "P 1"
_symmetry_int_tables_number       1

loop_
  _symmetry_equiv_pos_as_xyz
  'x, y, z'

loop_
  _atom_site_label
  _atom_site_occupancy
  _atom_site_fract_x
  _atom_site_fract_y
  _atom_site_fract_z
  _atom_site_thermal_displace_type
  _atom_site_B_iso_or_equiv
  _atom_site_type_symbol
  Zn1      1.0000 0.37139  0.21356  0.43228  Biso   1.000  Zn
  Zn2      1.0000 0.25255  0.10472  0.24010  Biso   1.000  Zn
  O1       1.0000 0.76037  0.64198  0.04370  Biso   1.000  O
  O2       1.0000 0.83898  0.56893  0.16606  Biso   1.000  O
  O3       1.0000 0.60148  0.55820  0.18146  Biso   1.000  O
  O4       1.0000 0.49961  0.62851  0.06943  Biso   1.000  O
  C1       1.0000 0.01950  0.51600  0.08625  Biso   1.000  C
  H1       1.0000 0.03250  0.52700  0.14620  Biso   1.000  H
  C2       1.0000 0.41440  0.50830  0.14346  Biso   1.000  C
  C3       1.0000 0.21840  0.46340  0.10284  Biso   1.000  C
  C4       1.0000 0.10660  0.47850  0.04780  Biso   1.000  C
  C5       1.0000 0.91430  0.53800  0.04048  Biso   1.000  C
  C6       1.0000 0.31150  0.51700  0.08819  Biso   1.000  C
  H2       1.0000 0.30550  0.55960  0.04050  Biso   1.000  H
  C7       1.0000 0.33010  0.38940  0.22512  Biso   1.000  C
  C8       1.0000 0.83010  0.58530  0.08792  Biso   1.000  C
  C9       1.0000 0.22820  0.40010  0.17170  Biso   1.000  C
  H3       1.0000 0.16460  0.36390  0.18220  Biso   1.000  H
  O5       1.0000 0.27110  0.25210  0.29752  Biso   1.000  O
  C10      1.0000 0.42280  0.44480  0.21283  Biso   1.000  C
  H4       1.0000 0.49150  0.43950  0.25140  Biso   1.000  H
  C11      1.0000 0.51260  0.56930  0.13116  Biso   1.000  C
  O6       1.0000 0.40170  0.20897  0.03841  Biso   1.000  O
  O7       1.0000 0.35540  0.13990  0.15299  Biso   1.000  O
  O8       1.0000 0.41960  0.32960  0.35939  Biso   1.000  O
  C12      1.0000 0.33980  0.31970  0.29730  Biso   1.000  C
  C13      1.0000 0.33330  0.19530  0.08974  Biso   1.000  C
  Zn3      1.0000 0.62861  0.71356  0.06772  Biso   1.000  Zn
  Zn4      1.0000 0.74745  0.60472  0.25990  Biso   1.000  Zn
  O9       1.0000 0.23963  0.14198  0.45630  Biso   1.000  O
  O10      1.0000 0.16102  0.06893  0.33394  Biso   1.000  O
  O11      1.0000 0.39852  0.05820  0.31854  Biso   1.000  O
  O12      1.0000 0.50039  0.12851  0.43057  Biso   1.000  O
  C14      1.0000 0.98050  0.01600  0.41375  Biso   1.000  C
  H5       1.0000 0.96750  0.02700  0.35380  Biso   1.000  H
  C15      1.0000 0.58560  0.00830  0.35654  Biso   1.000  C
  C16      1.0000 0.78160  0.96340  0.39716  Biso   1.000  C
  C17      1.0000 0.89340  0.97850  0.45220  Biso   1.000  C
  C18      1.0000 0.08570  0.03800  0.45952  Biso   1.000  C
  C19      1.0000 0.68850  0.01700  0.41181  Biso   1.000  C
  H6       1.0000 0.69450  0.05960  0.45950  Biso   1.000  H
  C20      1.0000 0.66990  0.88940  0.27488  Biso   1.000  C
  C21      1.0000 0.16990  0.08530  0.41208  Biso   1.000  C
  C22      1.0000 0.77180  0.90010  0.32830  Biso   1.000  C
  H7       1.0000 0.83540  0.86390  0.31780  Biso   1.000  H
  O13      1.0000 0.72890  0.75210  0.20248  Biso   1.000  O
  C23      1.0000 0.57720  0.94480  0.28717  Biso   1.000  C
  H8       1.0000 0.50850  0.93950  0.24860  Biso   1.000  H
  C24      1.0000 0.48740  0.06930  0.36884  Biso   1.000  C
  O14      1.0000 0.59830  0.70897  0.46159  Biso   1.000  O
  O15      1.0000 0.64460  0.63990  0.34701  Biso   1.000  O
  O16      1.0000 0.58040  0.82960  0.14061  Biso   1.000  O
  C25      1.0000 0.66020  0.81970  0.20270  Biso   1.000  C
  C26      1.0000 0.66670  0.69530  0.41026  Biso   1.000  C
  Zn5      1.0000 0.62861  0.78644  0.56772  Biso   1.000  Zn
  Zn6      1.0000 0.74745  0.89528  0.75990  Biso   1.000  Zn
  O17      1.0000 0.23963  0.35802  0.95630  Biso   1.000  O
  O18      1.0000 0.16102  0.43107  0.83394  Biso   1.000  O
  O19      1.0000 0.39852  0.44180  0.81854  Biso   1.000  O
  O20      1.0000 0.50039  0.37149  0.93057  Biso   1.000  O
  C27      1.0000 0.98050  0.48400  0.91375  Biso   1.000  C
  H9       1.0000 0.96750  0.47300  0.85380  Biso   1.000  H
  C28      1.0000 0.58560  0.49170  0.85654  Biso   1.000  C
  C29      1.0000 0.78160  0.53660  0.89716  Biso   1.000  C
  C30      1.0000 0.89340  0.52150  0.95220  Biso   1.000  C
  C31      1.0000 0.08570  0.46200  0.95952  Biso   1.000  C
  C32      1.0000 0.68850  0.48300  0.91181  Biso   1.000  C
  H10      1.0000 0.69450  0.44040  0.95950  Biso   1.000  H
  C33      1.0000 0.66990  0.61060  0.77488  Biso   1.000  C
  C34      1.0000 0.16990  0.41470  0.91208  Biso   1.000  C
  C35      1.0000 0.77180  0.59990  0.82830  Biso   1.000  C
  H11      1.0000 0.83540  0.63610  0.81780  Biso   1.000  H
  O21      1.0000 0.72890  0.74790  0.70248  Biso   1.000  O
  C36      1.0000 0.57720  0.55520  0.78717  Biso   1.000  C
  H12      1.0000 0.50850  0.56050  0.74860  Biso   1.000  H
  C37      1.0000 0.48740  0.43070  0.86884  Biso   1.000  C
  O22      1.0000 0.59830  0.79103  0.96159  Biso   1.000  O
  O23      1.0000 0.64460  0.86010  0.84701  Biso   1.000  O
  O24      1.0000 0.58040  0.67040  0.64061  Biso   1.000  O
  C38      1.0000 0.66020  0.68030  0.70270  Biso   1.000  C
  C39      1.0000 0.66670  0.80470  0.91026  Biso   1.000  C
  Zn7      1.0000 0.37139  0.28644  0.93228  Biso   1.000  Zn
  Zn8      1.0000 0.25255  0.39528  0.74010  Biso   1.000  Zn
  O25      1.0000 0.76037  0.85802  0.54370  Biso   1.000  O
  O26      1.0000 0.83898  0.93107  0.66606  Biso   1.000  O
  O27      1.0000 0.60148  0.94180  0.68146  Biso   1.000  O
  O28      1.0000 0.49961  0.87149  0.56943  Biso   1.000  O
  C40      1.0000 0.01950  0.98400  0.58625  Biso   1.000  C
  H13      1.0000 0.03250  0.97300  0.64620  Biso   1.000  H
  C41      1.0000 0.41440  0.99170  0.64346  Biso   1.000  C
  C42      1.0000 0.21840  0.03660  0.60284  Biso   1.000  C
  C43      1.0000 0.10660  0.02150  0.54780  Biso   1.000  C
  C44      1.0000 0.91430  0.96200  0.54048  Biso   1.000  C
  C45      1.0000 0.31150  0.98300  0.58819  Biso   1.000  C
  H14      1.0000 0.30550  0.94040  0.54050  Biso   1.000  H
  C46      1.0000 0.33010  0.11060  0.72512  Biso   1.000  C
  C47      1.0000 0.83010  0.91470  0.58792  Biso   1.000  C
  C48      1.0000 0.22820  0.09990  0.67170  Biso   1.000  C
  H15      1.0000 0.16460  0.13610  0.68220  Biso   1.000  H
  O29      1.0000 0.27110  0.24790  0.79752  Biso   1.000  O
  C49      1.0000 0.42280  0.05520  0.71283  Biso   1.000  C
  H16      1.0000 0.49150  0.06050  0.75140  Biso   1.000  H
  C50      1.0000 0.51260  0.93070  0.63116  Biso   1.000  C
  O30      1.0000 0.40170  0.29103  0.53841  Biso   1.000  O
  O31      1.0000 0.35540  0.36010  0.65299  Biso   1.000  O
  O32      1.0000 0.41960  0.17040  0.85939  Biso   1.000  O
  C51      1.0000 0.33980  0.18030  0.79730  Biso   1.000  C
  C52      1.0000 0.33330  0.30470  0.58974  Biso   1.000  C
