data_image0
_cell_length_a       9.3789
_cell_length_b       10.9247
_cell_length_c       18.8993
_cell_angle_alpha    104.858
_cell_angle_beta     94.314
_cell_angle_gamma    107.714

_symmetry_space_group_name_H-M    "P 1"
_symmetry_int_tables_number       1

loop_
  _symmetry_equiv_pos_as_xyz
  'x, y, z'

loop_
  _atom_site_label
  _atom_site_occupancy
  _atom_site_fract_x
  _atom_site_fract_y
  _atom_site_fract_z
  _atom_site_thermal_displace_type
  _atom_site_B_iso_or_equiv
  _atom_site_type_symbol
  Zn1      1.0000 0.31589  0.03581  0.13786  Biso   1.000  Zn
  Zn2      1.0000 0.04421  0.36595  0.76793  Biso   1.000  Zn
  O1       1.0000 0.97270  0.99690  0.10852  Biso   1.000  O
  O2       1.0000 0.21000  0.15280  0.03254  Biso   1.000  O
  O3       1.0000 0.42690  0.13800  0.07846  Biso   1.000  O
  O4       1.0000 0.17370  0.08060  0.20025  Biso   1.000  O
  C1       1.0000 0.59180  0.30180  0.00147  Biso   1.000  C
  H1       1.0000 0.64610  0.27850  0.03750  Biso   1.000  H
  C2       1.0000 0.34980  0.17440  0.03552  Biso   1.000  C
  C3       1.0000 0.58890  0.41710  0.90894  Biso   1.000  C
  H2       1.0000 0.64130  0.47270  0.88130  Biso   1.000  H
  C4       1.0000 0.03100  0.03280  0.17492  Biso   1.000  C
  C5       1.0000 0.67120  0.38350  0.96123  Biso   1.000  C
  C6       1.0000 0.77740  0.00810  0.21318  Biso   1.000  C
  H3       1.0000 0.74140  0.01250  0.16590  Biso   1.000  H
  C7       1.0000 0.35370  0.28750  0.93605  Biso   1.000  C
  H4       1.0000 0.24590  0.25320  0.92680  Biso   1.000  H
  C8       1.0000 0.92760  0.01830  0.23127  Biso   1.000  C
  C9       1.0000 0.43400  0.25460  0.98923  Biso   1.000  C
  C10      1.0000 0.84030  0.43940  0.97810  Biso   1.000  C
  C11      1.0000 0.68000  0.99150  0.26416  Biso   1.000  C
  C12      1.0000 0.98150  0.01550  0.30125  Biso   1.000  C
  H5       1.0000 0.08540  0.02640  0.31410  Biso   1.000  H
  C13      1.0000 0.43090  0.36990  0.89683  Biso   1.000  C
  O5       1.0000 0.91070  0.15832  0.01810  Biso   1.000  O
  O6       1.0000 0.78940  0.15586  0.91077  Biso   1.000  O
  O7       1.0000 0.49750  0.04470  0.19886  Biso   1.000  O
  O8       1.0000 0.19740  0.37030  0.84208  Biso   1.000  O
  O9       1.0000 0.41740  0.91560  0.27200  Biso   1.000  O
  C14      1.0000 0.93050  0.36470  0.99264  Biso   1.000  C
  C15      1.0000 0.91240  0.57440  0.98486  Biso   1.000  C
  H6       1.0000 0.85370  0.62650  0.97400  Biso   1.000  H
  C16      1.0000 0.87120  0.21420  0.97411  Biso   1.000  C
  O10      1.0000 0.92650  0.73320  0.32803  Biso   1.000  O
  C17      1.0000 0.34050  0.41040  0.84322  Biso   1.000  C
  O11      1.0000 0.40510  0.47720  0.80470  Biso   1.000  O
  C18      1.0000 0.51820  0.98160  0.24468  Biso   1.000  C
  C19      1.0000 0.73260  0.98520  0.33414  Biso   1.000  C
  H7       1.0000 0.66520  0.97310  0.36880  Biso   1.000  H
  C20      1.0000 0.88360  0.99670  0.35269  Biso   1.000  C
  C21      1.0000 0.94050  0.99470  0.42801  Biso   1.000  C
  C22      1.0000 0.08350  0.91980  0.51030  Biso   1.000  C
  H8       1.0000 0.14180  0.86490  0.51690  Biso   1.000  H
  C23      1.0000 0.02520  0.91080  0.43840  Biso   1.000  C
  O12      1.0000 0.17260  0.79570  0.37184  Biso   1.000  O
  C24      1.0000 0.04540  0.80650  0.37520  Biso   1.000  C
  Zn3      1.0000 0.68411  0.96419  0.86214  Biso   1.000  Zn
  Zn4      1.0000 0.95579  0.63405  0.23207  Biso   1.000  Zn
  O13      1.0000 0.02730  0.00310  0.89148  Biso   1.000  O
  O14      1.0000 0.79000  0.84720  0.96746  Biso   1.000  O
  O15      1.0000 0.57310  0.86200  0.92154  Biso   1.000  O
  O16      1.0000 0.82630  0.91940  0.79975  Biso   1.000  O
  C25      1.0000 0.40820  0.69820  0.99853  Biso   1.000  C
  H9       1.0000 0.35390  0.72150  0.96250  Biso   1.000  H
  C26      1.0000 0.65020  0.82560  0.96448  Biso   1.000  C
  C27      1.0000 0.41110  0.58290  0.09106  Biso   1.000  C
  H10      1.0000 0.35870  0.52730  0.11870  Biso   1.000  H
  C28      1.0000 0.96900  0.96720  0.82508  Biso   1.000  C
  C29      1.0000 0.32880  0.61650  0.03877  Biso   1.000  C
  C30      1.0000 0.22260  0.99190  0.78682  Biso   1.000  C
  H11      1.0000 0.25860  0.98750  0.83410  Biso   1.000  H
  C31      1.0000 0.64630  0.71250  0.06395  Biso   1.000  C
  H12      1.0000 0.75410  0.74680  0.07320  Biso   1.000  H
  C32      1.0000 0.07240  0.98170  0.76873  Biso   1.000  C
  C33      1.0000 0.56600  0.74540  0.01077  Biso   1.000  C
  C34      1.0000 0.15970  0.56060  0.02190  Biso   1.000  C
  C35      1.0000 0.32000  0.00850  0.73584  Biso   1.000  C
  C36      1.0000 0.01850  0.98450  0.69875  Biso   1.000  C
  H13      1.0000 0.91460  0.97360  0.68590  Biso   1.000  H
  C37      1.0000 0.56910  0.63010  0.10317  Biso   1.000  C
  O17      1.0000 0.08930  0.84168  0.98190  Biso   1.000  O
  O18      1.0000 0.21060  0.84414  0.08923  Biso   1.000  O
  O19      1.0000 0.50250  0.95530  0.80114  Biso   1.000  O
  O20      1.0000 0.80260  0.62970  0.15792  Biso   1.000  O
  O21      1.0000 0.58260  0.08440  0.72800  Biso   1.000  O
  C38      1.0000 0.06950  0.63530  0.00736  Biso   1.000  C
  C39      1.0000 0.08760  0.42560  0.01514  Biso   1.000  C
  H14      1.0000 0.14630  0.37350  0.02600  Biso   1.000  H
  C40      1.0000 0.12880  0.78580  0.02589  Biso   1.000  C
  O22      1.0000 0.07350  0.26680  0.67197  Biso   1.000  O
  C41      1.0000 0.65950  0.58960  0.15678  Biso   1.000  C
  O23      1.0000 0.59490  0.52280  0.19530  Biso   1.000  O
  C42      1.0000 0.48180  0.01840  0.75532  Biso   1.000  C
  C43      1.0000 0.26740  0.01480  0.66586  Biso   1.000  C
  H15      1.0000 0.33480  0.02690  0.63120  Biso   1.000  H
  C44      1.0000 0.11640  0.00330  0.64731  Biso   1.000  C
  C45      1.0000 0.05950  0.00530  0.57199  Biso   1.000  C
  C46      1.0000 0.91650  0.08020  0.48970  Biso   1.000  C
  H16      1.0000 0.85820  0.13510  0.48310  Biso   1.000  H
  C47      1.0000 0.97480  0.08920  0.56160  Biso   1.000  C
  O24      1.0000 0.82740  0.20430  0.62816  Biso   1.000  O
  C48      1.0000 0.95460  0.19350  0.62480  Biso   1.000  C
  Zn5      1.0000 0.00000  0.00000  0.00000  Biso   1.000  Zn
