data_image0
_cell_length_a       18.3439
_cell_length_b       8.809
_cell_length_c       23.4388
_cell_angle_alpha    90
_cell_angle_beta     101.965
_cell_angle_gamma    90

_symmetry_space_group_name_H-M    "P 1"
_symmetry_int_tables_number       1

loop_
  _symmetry_equiv_pos_as_xyz
  'x, y, z'

loop_
  _atom_site_label
  _atom_site_occupancy
  _atom_site_fract_x
  _atom_site_fract_y
  _atom_site_fract_z
  _atom_site_thermal_displace_type
  _atom_site_B_iso_or_equiv
  _atom_site_type_symbol
  Zn1      1.0000 0.42347  0.70336  0.69666  Biso   1.000  Zn
  O1       1.0000 0.43929  0.82160  0.62234  Biso   1.000  O
  O2       1.0000 0.59560  0.59510  0.72867  Biso   1.000  O
  O3       1.0000 0.81566  0.12970  0.65266  Biso   1.000  O
  C1       1.0000 0.54861  0.29970  0.61971  Biso   1.000  C
  H1       1.0000 0.49600  0.31050  0.60950  Biso   1.000  H
  O4       1.0000 0.82419  0.35010  0.69756  Biso   1.000  O
  O5       1.0000 0.48394  0.52750  0.67640  Biso   1.000  O
  O6       1.0000 0.53326  0.97350  0.66152  Biso   1.000  O
  C2       1.0000 0.58351  0.18750  0.59322  Biso   1.000  C
  C3       1.0000 0.48864  0.91720  0.61909  Biso   1.000  C
  C4       1.0000 0.66772  0.37990  0.67584  Biso   1.000  C
  H2       1.0000 0.69650  0.44580  0.70390  Biso   1.000  H
  C5       1.0000 0.55379  0.51640  0.69109  Biso   1.000  C
  C6       1.0000 0.66076  0.17220  0.60808  Biso   1.000  C
  H3       1.0000 0.68480  0.09640  0.58980  Biso   1.000  H
  C7       1.0000 0.70286  0.26760  0.64967  Biso   1.000  C
  C8       1.0000 0.54369  0.11810  0.48919  Biso   1.000  C
  H4       1.0000 0.57410  0.20000  0.48170  Biso   1.000  H
  C9       1.0000 0.59032  0.39640  0.66109  Biso   1.000  C
  C10      1.0000 0.53959  0.08710  0.54692  Biso   1.000  C
  C11      1.0000 0.49489  0.96590  0.55792  Biso   1.000  C
  C12      1.0000 0.78591  0.24760  0.66721  Biso   1.000  C
  H5       1.0000 0.49000  0.91100  0.77800  Biso   1.000  H
  Zn2      1.0000 0.92347  0.20336  0.69666  Biso   1.000  Zn
  O7       1.0000 0.93929  0.32160  0.62234  Biso   1.000  O
  O8       1.0000 0.09560  0.09510  0.72867  Biso   1.000  O
  O9       1.0000 0.31566  0.62970  0.65266  Biso   1.000  O
  C13      1.0000 0.04861  0.79970  0.61971  Biso   1.000  C
  H6       1.0000 0.99600  0.81050  0.60950  Biso   1.000  H
  O10      1.0000 0.32419  0.85010  0.69756  Biso   1.000  O
  O11      1.0000 0.98394  0.02750  0.67640  Biso   1.000  O
  O12      1.0000 0.03326  0.47350  0.66152  Biso   1.000  O
  C14      1.0000 0.08351  0.68750  0.59322  Biso   1.000  C
  C15      1.0000 0.98864  0.41720  0.61909  Biso   1.000  C
  C16      1.0000 0.16772  0.87990  0.67584  Biso   1.000  C
  H7       1.0000 0.19650  0.94580  0.70390  Biso   1.000  H
  C17      1.0000 0.05379  0.01640  0.69109  Biso   1.000  C
  C18      1.0000 0.16076  0.67220  0.60808  Biso   1.000  C
  H8       1.0000 0.18480  0.59640  0.58980  Biso   1.000  H
  C19      1.0000 0.20286  0.76760  0.64967  Biso   1.000  C
  C20      1.0000 0.04369  0.61810  0.48919  Biso   1.000  C
  H9       1.0000 0.07410  0.70000  0.48170  Biso   1.000  H
  C21      1.0000 0.09032  0.89640  0.66109  Biso   1.000  C
  C22      1.0000 0.03959  0.58710  0.54692  Biso   1.000  C
  C23      1.0000 0.99489  0.46590  0.55792  Biso   1.000  C
  C24      1.0000 0.28591  0.74760  0.66721  Biso   1.000  C
  H10      1.0000 0.99000  0.41100  0.77800  Biso   1.000  H
  Zn3      1.0000 0.57653  0.70336  0.80334  Biso   1.000  Zn
  O13      1.0000 0.56071  0.82160  0.87766  Biso   1.000  O
  O14      1.0000 0.40440  0.59510  0.77133  Biso   1.000  O
  O15      1.0000 0.18434  0.12970  0.84734  Biso   1.000  O
  C25      1.0000 0.45139  0.29970  0.88029  Biso   1.000  C
  H11      1.0000 0.50400  0.31050  0.89050  Biso   1.000  H
  O16      1.0000 0.17581  0.35010  0.80244  Biso   1.000  O
  O17      1.0000 0.51606  0.52750  0.82360  Biso   1.000  O
  O18      1.0000 0.46674  0.97350  0.83848  Biso   1.000  O
  C26      1.0000 0.41649  0.18750  0.90678  Biso   1.000  C
  C27      1.0000 0.51136  0.91720  0.88091  Biso   1.000  C
  C28      1.0000 0.33228  0.37990  0.82416  Biso   1.000  C
  H12      1.0000 0.30350  0.44580  0.79610  Biso   1.000  H
  C29      1.0000 0.44621  0.51640  0.80891  Biso   1.000  C
  C30      1.0000 0.33924  0.17220  0.89192  Biso   1.000  C
  H13      1.0000 0.31520  0.09640  0.91020  Biso   1.000  H
  C31      1.0000 0.29714  0.26760  0.85033  Biso   1.000  C
  C32      1.0000 0.45631  0.11810  0.01081  Biso   1.000  C
  H14      1.0000 0.42590  0.20000  0.01830  Biso   1.000  H
  C33      1.0000 0.40968  0.39640  0.83891  Biso   1.000  C
  C34      1.0000 0.46041  0.08710  0.95308  Biso   1.000  C
  C35      1.0000 0.50511  0.96590  0.94208  Biso   1.000  C
  C36      1.0000 0.21409  0.24760  0.83279  Biso   1.000  C
  H15      1.0000 0.51000  0.91100  0.72200  Biso   1.000  H
  Zn4      1.0000 0.07653  0.20336  0.80334  Biso   1.000  Zn
  O19      1.0000 0.06071  0.32160  0.87766  Biso   1.000  O
  O20      1.0000 0.90440  0.09510  0.77133  Biso   1.000  O
  O21      1.0000 0.68434  0.62970  0.84734  Biso   1.000  O
  C37      1.0000 0.95139  0.79970  0.88029  Biso   1.000  C
  H16      1.0000 0.00400  0.81050  0.89050  Biso   1.000  H
  O22      1.0000 0.67581  0.85010  0.80244  Biso   1.000  O
  O23      1.0000 0.01606  0.02750  0.82360  Biso   1.000  O
  O24      1.0000 0.96674  0.47350  0.83848  Biso   1.000  O
  C38      1.0000 0.91649  0.68750  0.90678  Biso   1.000  C
  C39      1.0000 0.01136  0.41720  0.88091  Biso   1.000  C
  C40      1.0000 0.83228  0.87990  0.82416  Biso   1.000  C
  H17      1.0000 0.80350  0.94580  0.79610  Biso   1.000  H
  C41      1.0000 0.94621  0.01640  0.80891  Biso   1.000  C
  C42      1.0000 0.83924  0.67220  0.89192  Biso   1.000  C
  H18      1.0000 0.81520  0.59640  0.91020  Biso   1.000  H
  C43      1.0000 0.79714  0.76760  0.85033  Biso   1.000  C
  C44      1.0000 0.95631  0.61810  0.01081  Biso   1.000  C
  H19      1.0000 0.92590  0.70000  0.01830  Biso   1.000  H
  C45      1.0000 0.90968  0.89640  0.83891  Biso   1.000  C
  C46      1.0000 0.96041  0.58710  0.95308  Biso   1.000  C
  C47      1.0000 0.00511  0.46590  0.94208  Biso   1.000  C
  C48      1.0000 0.71409  0.74760  0.83279  Biso   1.000  C
  H20      1.0000 0.01000  0.41100  0.72200  Biso   1.000  H
  Zn5      1.0000 0.57653  0.29664  0.30334  Biso   1.000  Zn
  O25      1.0000 0.56071  0.17840  0.37766  Biso   1.000  O
  O26      1.0000 0.40440  0.40490  0.27133  Biso   1.000  O
  O27      1.0000 0.18434  0.87030  0.34734  Biso   1.000  O
  C49      1.0000 0.45139  0.70030  0.38029  Biso   1.000  C
  H21      1.0000 0.50400  0.68950  0.39050  Biso   1.000  H
  O28      1.0000 0.17581  0.64990  0.30244  Biso   1.000  O
  O29      1.0000 0.51606  0.47250  0.32360  Biso   1.000  O
  O30      1.0000 0.46674  0.02650  0.33848  Biso   1.000  O
  C50      1.0000 0.41649  0.81250  0.40678  Biso   1.000  C
  C51      1.0000 0.51136  0.08280  0.38091  Biso   1.000  C
  C52      1.0000 0.33228  0.62010  0.32416  Biso   1.000  C
  H22      1.0000 0.30350  0.55420  0.29610  Biso   1.000  H
  C53      1.0000 0.44621  0.48360  0.30891  Biso   1.000  C
  C54      1.0000 0.33924  0.82780  0.39192  Biso   1.000  C
  H23      1.0000 0.31520  0.90360  0.41020  Biso   1.000  H
  C55      1.0000 0.29714  0.73240  0.35033  Biso   1.000  C
  C56      1.0000 0.45631  0.88190  0.51081  Biso   1.000  C
  H24      1.0000 0.42590  0.80000  0.51830  Biso   1.000  H
  C57      1.0000 0.40968  0.60360  0.33891  Biso   1.000  C
  C58      1.0000 0.46041  0.91290  0.45308  Biso   1.000  C
  C59      1.0000 0.50511  0.03410  0.44208  Biso   1.000  C
  C60      1.0000 0.21409  0.75240  0.33279  Biso   1.000  C
  H25      1.0000 0.51000  0.08900  0.22200  Biso   1.000  H
  Zn6      1.0000 0.07653  0.79664  0.30334  Biso   1.000  Zn
  O31      1.0000 0.06071  0.67840  0.37766  Biso   1.000  O
  O32      1.0000 0.90440  0.90490  0.27133  Biso   1.000  O
  O33      1.0000 0.68434  0.37030  0.34734  Biso   1.000  O
  C61      1.0000 0.95139  0.20030  0.38029  Biso   1.000  C
  H26      1.0000 0.00400  0.18950  0.39050  Biso   1.000  H
  O34      1.0000 0.67581  0.14990  0.30244  Biso   1.000  O
  O35      1.0000 0.01606  0.97250  0.32360  Biso   1.000  O
  O36      1.0000 0.96674  0.52650  0.33848  Biso   1.000  O
  C62      1.0000 0.91649  0.31250  0.40678  Biso   1.000  C
  C63      1.0000 0.01136  0.58280  0.38091  Biso   1.000  C
  C64      1.0000 0.83228  0.12010  0.32416  Biso   1.000  C
  H27      1.0000 0.80350  0.05420  0.29610  Biso   1.000  H
  C65      1.0000 0.94621  0.98360  0.30891  Biso   1.000  C
  C66      1.0000 0.83924  0.32780  0.39192  Biso   1.000  C
  H28      1.0000 0.81520  0.40360  0.41020  Biso   1.000  H
  C67      1.0000 0.79714  0.23240  0.35033  Biso   1.000  C
  C68      1.0000 0.95631  0.38190  0.51081  Biso   1.000  C
  H29      1.0000 0.92590  0.30000  0.51830  Biso   1.000  H
  C69      1.0000 0.90968  0.10360  0.33891  Biso   1.000  C
  C70      1.0000 0.96041  0.41290  0.45308  Biso   1.000  C
  C71      1.0000 0.00511  0.53410  0.44208  Biso   1.000  C
  C72      1.0000 0.71409  0.25240  0.33279  Biso   1.000  C
  H30      1.0000 0.01000  0.58900  0.22200  Biso   1.000  H
  Zn7      1.0000 0.42347  0.29664  0.19666  Biso   1.000  Zn
  O37      1.0000 0.43929  0.17840  0.12234  Biso   1.000  O
  O38      1.0000 0.59560  0.40490  0.22867  Biso   1.000  O
  O39      1.0000 0.81566  0.87030  0.15266  Biso   1.000  O
  C73      1.0000 0.54861  0.70030  0.11971  Biso   1.000  C
  H31      1.0000 0.49600  0.68950  0.10950  Biso   1.000  H
  O40      1.0000 0.82419  0.64990  0.19756  Biso   1.000  O
  O41      1.0000 0.48394  0.47250  0.17640  Biso   1.000  O
  O42      1.0000 0.53326  0.02650  0.16152  Biso   1.000  O
  C74      1.0000 0.58351  0.81250  0.09322  Biso   1.000  C
  C75      1.0000 0.48864  0.08280  0.11909  Biso   1.000  C
  C76      1.0000 0.66772  0.62010  0.17584  Biso   1.000  C
  H32      1.0000 0.69650  0.55420  0.20390  Biso   1.000  H
  C77      1.0000 0.55379  0.48360  0.19109  Biso   1.000  C
  C78      1.0000 0.66076  0.82780  0.10808  Biso   1.000  C
  H33      1.0000 0.68480  0.90360  0.08980  Biso   1.000  H
  C79      1.0000 0.70286  0.73240  0.14967  Biso   1.000  C
  C80      1.0000 0.54369  0.88190  0.98919  Biso   1.000  C
  H34      1.0000 0.57410  0.80000  0.98170  Biso   1.000  H
  C81      1.0000 0.59032  0.60360  0.16109  Biso   1.000  C
  C82      1.0000 0.53959  0.91290  0.04692  Biso   1.000  C
  C83      1.0000 0.49489  0.03410  0.05792  Biso   1.000  C
  C84      1.0000 0.78591  0.75240  0.16721  Biso   1.000  C
  H35      1.0000 0.49000  0.08900  0.27800  Biso   1.000  H
  Zn8      1.0000 0.92347  0.79664  0.19666  Biso   1.000  Zn
  O43      1.0000 0.93929  0.67840  0.12234  Biso   1.000  O
  O44      1.0000 0.09560  0.90490  0.22867  Biso   1.000  O
  O45      1.0000 0.31566  0.37030  0.15266  Biso   1.000  O
  C85      1.0000 0.04861  0.20030  0.11971  Biso   1.000  C
  H36      1.0000 0.99600  0.18950  0.10950  Biso   1.000  H
  O46      1.0000 0.32419  0.14990  0.19756  Biso   1.000  O
  O47      1.0000 0.98394  0.97250  0.17640  Biso   1.000  O
  O48      1.0000 0.03326  0.52650  0.16152  Biso   1.000  O
  C86      1.0000 0.08351  0.31250  0.09322  Biso   1.000  C
  C87      1.0000 0.98864  0.58280  0.11909  Biso   1.000  C
  C88      1.0000 0.16772  0.12010  0.17584  Biso   1.000  C
  H37      1.0000 0.19650  0.05420  0.20390  Biso   1.000  H
  C89      1.0000 0.05379  0.98360  0.19109  Biso   1.000  C
  C90      1.0000 0.16076  0.32780  0.10808  Biso   1.000  C
  H38      1.0000 0.18480  0.40360  0.08980  Biso   1.000  H
  C91      1.0000 0.20286  0.23240  0.14967  Biso   1.000  C
  C92      1.0000 0.04369  0.38190  0.98919  Biso   1.000  C
  H39      1.0000 0.07410  0.30000  0.98170  Biso   1.000  H
  C93      1.0000 0.09032  0.10360  0.16109  Biso   1.000  C
  C94      1.0000 0.03959  0.41290  0.04692  Biso   1.000  C
  C95      1.0000 0.99489  0.53410  0.05792  Biso   1.000  C
  C96      1.0000 0.28591  0.25240  0.16721  Biso   1.000  C
  H40      1.0000 0.99000  0.58900  0.27800  Biso   1.000  H
  O49      1.0000 0.50000  0.84410  0.75000  Biso   1.000  O
  O50      1.0000 0.00000  0.34410  0.75000  Biso   1.000  O
  O51      1.0000 0.50000  0.15590  0.25000  Biso   1.000  O
  O52      1.0000 0.00000  0.65590  0.25000  Biso   1.000  O
