data_image0
_cell_length_a       17.0549
_cell_length_b       15.3986
_cell_length_c       23.0104
_cell_angle_alpha    90
_cell_angle_beta     102.754
_cell_angle_gamma    90

_symmetry_space_group_name_H-M    "P 1"
_symmetry_int_tables_number       1

loop_
  _symmetry_equiv_pos_as_xyz
  'x, y, z'

loop_
  _atom_site_label
  _atom_site_occupancy
  _atom_site_fract_x
  _atom_site_fract_y
  _atom_site_fract_z
  _atom_site_thermal_displace_type
  _atom_site_B_iso_or_equiv
  _atom_site_type_symbol
  Zn1      1.0000 0.98123  0.22561  0.57224  Biso   1.000  Zn
  Zn2      1.0000 0.88540  0.33108  0.43250  Biso   1.000  Zn
  Zn3      1.0000 0.59030  0.03125  0.62390  Biso   1.000  Zn
  Zn4      1.0000 0.54650  0.82961  0.66745  Biso   1.000  Zn
  O1       1.0000 0.82000  0.22954  0.43963  Biso   1.000  O
  O2       1.0000 0.95395  0.71360  0.48311  Biso   1.000  O
  O3       1.0000 0.91645  0.15346  0.50090  Biso   1.000  O
  O4       1.0000 0.00814  0.69934  0.58020  Biso   1.000  O
  O5       1.0000 0.88346  0.42177  0.49110  Biso   1.000  O
  O6       1.0000 0.89311  0.32072  0.56132  Biso   1.000  O
  O7       1.0000 0.55069  0.11308  0.37757  Biso   1.000  O
  O8       1.0000 0.67065  0.94862  0.60799  Biso   1.000  O
  O9       1.0000 0.90939  0.40819  0.76648  Biso   1.000  O
  O10      1.0000 0.88600  0.54467  0.78995  Biso   1.000  O
  O11      1.0000 0.51383  0.99705  0.42271  Biso   1.000  O
  O12      1.0000 0.62308  0.81415  0.61746  Biso   1.000  O
  C1       1.0000 0.80772  0.01882  0.50725  Biso   1.000  C
  H1       1.0000 0.86210  0.01180  0.52790  Biso   1.000  H
  C2       1.0000 0.86784  0.55346  0.57081  Biso   1.000  C
  H2       1.0000 0.86390  0.56830  0.53020  Biso   1.000  H
  C3       1.0000 0.78500  0.09460  0.47470  Biso   1.000  C
  C4       1.0000 0.64960  0.04020  0.44690  Biso   1.000  C
  C5       1.0000 0.76870  0.74740  0.60360  Biso   1.000  C
  H3       1.0000 0.74080  0.71850  0.62950  Biso   1.000  H
  C6       1.0000 0.88350  0.46880  0.58920  Biso   1.000  C
  C7       1.0000 0.74168  0.82818  0.58072  Biso   1.000  C
  C8       1.0000 0.95218  0.71835  0.53622  Biso   1.000  C
  C9       1.0000 0.88730  0.39763  0.54381  Biso   1.000  C
  C10      1.0000 0.67262  0.96523  0.47936  Biso   1.000  C
  H4       1.0000 0.63390  0.92140  0.48080  Biso   1.000  H
  C11      1.0000 0.84640  0.16380  0.47220  Biso   1.000  C
  C12      1.0000 0.86550  0.59574  0.67089  Biso   1.000  C
  H5       1.0000 0.85860  0.63880  0.69890  Biso   1.000  H
  C13      1.0000 0.78065  0.87092  0.54107  Biso   1.000  C
  C14      1.0000 0.75255  0.95342  0.51011  Biso   1.000  C
  C15      1.0000 0.88340  0.51018  0.68943  Biso   1.000  C
  C16      1.0000 0.84764  0.83134  0.52708  Biso   1.000  C
  H6       1.0000 0.87460  0.85950  0.50030  Biso   1.000  H
  C17      1.0000 0.87630  0.75090  0.55160  Biso   1.000  C
  C18      1.0000 0.70511  0.10491  0.44399  Biso   1.000  C
  H7       1.0000 0.68900  0.15600  0.42130  Biso   1.000  H
  C19      1.0000 0.83624  0.70722  0.58962  Biso   1.000  C
  C20      1.0000 0.89215  0.44707  0.64874  Biso   1.000  C
  H8       1.0000 0.90410  0.38890  0.66150  Biso   1.000  H
  C21      1.0000 0.85780  0.61740  0.61140  Biso   1.000  C
  C22      1.0000 0.56420  0.05140  0.41360  Biso   1.000  C
  C23      1.0000 0.67250  0.86630  0.60330  Biso   1.000  C
  C24      1.0000 0.89490  0.48540  0.75395  Biso   1.000  C
  Zn5      1.0000 0.51877  0.72561  0.92776  Biso   1.000  Zn
  Zn6      1.0000 0.61460  0.83108  0.06750  Biso   1.000  Zn
  Zn7      1.0000 0.90970  0.53125  0.87610  Biso   1.000  Zn
  Zn8      1.0000 0.95350  0.32961  0.83255  Biso   1.000  Zn
  O13      1.0000 0.68000  0.72954  0.06037  Biso   1.000  O
  O14      1.0000 0.54605  0.21360  0.01689  Biso   1.000  O
  O15      1.0000 0.58355  0.65346  0.99910  Biso   1.000  O
  O16      1.0000 0.49186  0.19934  0.91980  Biso   1.000  O
  O17      1.0000 0.61654  0.92177  0.00890  Biso   1.000  O
  O18      1.0000 0.60689  0.82072  0.93868  Biso   1.000  O
  O19      1.0000 0.94931  0.61308  0.12243  Biso   1.000  O
  O20      1.0000 0.82935  0.44862  0.89201  Biso   1.000  O
  O21      1.0000 0.59061  0.90819  0.73352  Biso   1.000  O
  O22      1.0000 0.61400  0.04467  0.71005  Biso   1.000  O
  O23      1.0000 0.98617  0.49705  0.07729  Biso   1.000  O
  O24      1.0000 0.87692  0.31415  0.88254  Biso   1.000  O
  C25      1.0000 0.69228  0.51882  0.99275  Biso   1.000  C
  H9       1.0000 0.63790  0.51180  0.97210  Biso   1.000  H
  C26      1.0000 0.63216  0.05346  0.92919  Biso   1.000  C
  H10      1.0000 0.63610  0.06830  0.96980  Biso   1.000  H
  C27      1.0000 0.71500  0.59460  0.02530  Biso   1.000  C
  C28      1.0000 0.85040  0.54020  0.05310  Biso   1.000  C
  C29      1.0000 0.73130  0.24740  0.89640  Biso   1.000  C
  H11      1.0000 0.75920  0.21850  0.87050  Biso   1.000  H
  C30      1.0000 0.61650  0.96880  0.91080  Biso   1.000  C
  C31      1.0000 0.75832  0.32818  0.91928  Biso   1.000  C
  C32      1.0000 0.54782  0.21835  0.96378  Biso   1.000  C
  C33      1.0000 0.61270  0.89763  0.95619  Biso   1.000  C
  C34      1.0000 0.82738  0.46523  0.02064  Biso   1.000  C
  H12      1.0000 0.86610  0.42140  0.01920  Biso   1.000  H
  C35      1.0000 0.65360  0.66380  0.02780  Biso   1.000  C
  C36      1.0000 0.63450  0.09574  0.82911  Biso   1.000  C
  H13      1.0000 0.64140  0.13880  0.80110  Biso   1.000  H
  C37      1.0000 0.71935  0.37092  0.95893  Biso   1.000  C
  C38      1.0000 0.74745  0.45342  0.98989  Biso   1.000  C
  C39      1.0000 0.61660  0.01018  0.81057  Biso   1.000  C
  C40      1.0000 0.65236  0.33134  0.97292  Biso   1.000  C
  H14      1.0000 0.62540  0.35950  0.99970  Biso   1.000  H
  C41      1.0000 0.62370  0.25090  0.94840  Biso   1.000  C
  C42      1.0000 0.79489  0.60491  0.05601  Biso   1.000  C
  H15      1.0000 0.81100  0.65600  0.07870  Biso   1.000  H
  C43      1.0000 0.66376  0.20722  0.91038  Biso   1.000  C
  C44      1.0000 0.60785  0.94707  0.85126  Biso   1.000  C
  H16      1.0000 0.59590  0.88890  0.83850  Biso   1.000  H
  C45      1.0000 0.64220  0.11740  0.88860  Biso   1.000  C
  C46      1.0000 0.93580  0.55140  0.08640  Biso   1.000  C
  C47      1.0000 0.82750  0.36630  0.89670  Biso   1.000  C
  C48      1.0000 0.60510  0.98540  0.74605  Biso   1.000  C
  Zn9      1.0000 0.01877  0.77439  0.42776  Biso   1.000  Zn
  Zn10     1.0000 0.11460  0.66892  0.56750  Biso   1.000  Zn
  Zn11     1.0000 0.40970  0.96875  0.37610  Biso   1.000  Zn
  Zn12     1.0000 0.45350  0.17039  0.33255  Biso   1.000  Zn
  O25      1.0000 0.18000  0.77046  0.56037  Biso   1.000  O
  O26      1.0000 0.04605  0.28640  0.51689  Biso   1.000  O
  O27      1.0000 0.08355  0.84654  0.49910  Biso   1.000  O
  O28      1.0000 0.99186  0.30066  0.41980  Biso   1.000  O
  O29      1.0000 0.11654  0.57823  0.50890  Biso   1.000  O
  O30      1.0000 0.10689  0.67928  0.43868  Biso   1.000  O
  O31      1.0000 0.44931  0.88692  0.62243  Biso   1.000  O
  O32      1.0000 0.32935  0.05138  0.39201  Biso   1.000  O
  O33      1.0000 0.09061  0.59181  0.23352  Biso   1.000  O
  O34      1.0000 0.11400  0.45533  0.21005  Biso   1.000  O
  O35      1.0000 0.48617  0.00295  0.57729  Biso   1.000  O
  O36      1.0000 0.37692  0.18585  0.38254  Biso   1.000  O
  C49      1.0000 0.19228  0.98118  0.49275  Biso   1.000  C
  H17      1.0000 0.13790  0.98820  0.47210  Biso   1.000  H
  C50      1.0000 0.13216  0.44654  0.42919  Biso   1.000  C
  H18      1.0000 0.13610  0.43170  0.46980  Biso   1.000  H
  C51      1.0000 0.21500  0.90540  0.52530  Biso   1.000  C
  C52      1.0000 0.35040  0.95980  0.55310  Biso   1.000  C
  C53      1.0000 0.23130  0.25260  0.39640  Biso   1.000  C
  H19      1.0000 0.25920  0.28150  0.37050  Biso   1.000  H
  C54      1.0000 0.11650  0.53120  0.41080  Biso   1.000  C
  C55      1.0000 0.25832  0.17182  0.41928  Biso   1.000  C
  C56      1.0000 0.04782  0.28165  0.46378  Biso   1.000  C
  C57      1.0000 0.11270  0.60237  0.45619  Biso   1.000  C
  C58      1.0000 0.32738  0.03477  0.52064  Biso   1.000  C
  H20      1.0000 0.36610  0.07860  0.51920  Biso   1.000  H
  C59      1.0000 0.15360  0.83620  0.52780  Biso   1.000  C
  C60      1.0000 0.13450  0.40426  0.32911  Biso   1.000  C
  H21      1.0000 0.14140  0.36120  0.30110  Biso   1.000  H
  C61      1.0000 0.21935  0.12908  0.45893  Biso   1.000  C
  C62      1.0000 0.24745  0.04658  0.48989  Biso   1.000  C
  C63      1.0000 0.11660  0.48982  0.31057  Biso   1.000  C
  C64      1.0000 0.15236  0.16866  0.47292  Biso   1.000  C
  H22      1.0000 0.12540  0.14050  0.49970  Biso   1.000  H
  C65      1.0000 0.12370  0.24910  0.44840  Biso   1.000  C
  C66      1.0000 0.29489  0.89509  0.55601  Biso   1.000  C
  H23      1.0000 0.31100  0.84400  0.57870  Biso   1.000  H
  C67      1.0000 0.16376  0.29278  0.41038  Biso   1.000  C
  C68      1.0000 0.10785  0.55293  0.35126  Biso   1.000  C
  H24      1.0000 0.09590  0.61110  0.33850  Biso   1.000  H
  C69      1.0000 0.14220  0.38260  0.38860  Biso   1.000  C
  C70      1.0000 0.43580  0.94860  0.58640  Biso   1.000  C
  C71      1.0000 0.32750  0.13370  0.39670  Biso   1.000  C
  C72      1.0000 0.10510  0.51460  0.24605  Biso   1.000  C
  Zn13     1.0000 0.48123  0.27439  0.07224  Biso   1.000  Zn
  Zn14     1.0000 0.38540  0.16892  0.93250  Biso   1.000  Zn
  Zn15     1.0000 0.09030  0.46875  0.12390  Biso   1.000  Zn
  Zn16     1.0000 0.04650  0.67039  0.16745  Biso   1.000  Zn
  O37      1.0000 0.32000  0.27046  0.93963  Biso   1.000  O
  O38      1.0000 0.45395  0.78640  0.98311  Biso   1.000  O
  O39      1.0000 0.41645  0.34654  0.00090  Biso   1.000  O
  O40      1.0000 0.50814  0.80066  0.08020  Biso   1.000  O
  O41      1.0000 0.38346  0.07823  0.99110  Biso   1.000  O
  O42      1.0000 0.39311  0.17928  0.06132  Biso   1.000  O
  O43      1.0000 0.05069  0.38692  0.87757  Biso   1.000  O
  O44      1.0000 0.17065  0.55138  0.10799  Biso   1.000  O
  O45      1.0000 0.40939  0.09181  0.26648  Biso   1.000  O
  O46      1.0000 0.38600  0.95533  0.28995  Biso   1.000  O
  O47      1.0000 0.01383  0.50295  0.92271  Biso   1.000  O
  O48      1.0000 0.12308  0.68585  0.11746  Biso   1.000  O
  C73      1.0000 0.30772  0.48118  0.00725  Biso   1.000  C
  H25      1.0000 0.36210  0.48820  0.02790  Biso   1.000  H
  C74      1.0000 0.36784  0.94654  0.07081  Biso   1.000  C
  H26      1.0000 0.36390  0.93170  0.03020  Biso   1.000  H
  C75      1.0000 0.28500  0.40540  0.97470  Biso   1.000  C
  C76      1.0000 0.14960  0.45980  0.94690  Biso   1.000  C
  C77      1.0000 0.26870  0.75260  0.10360  Biso   1.000  C
  H27      1.0000 0.24080  0.78150  0.12950  Biso   1.000  H
  C78      1.0000 0.38350  0.03120  0.08920  Biso   1.000  C
  C79      1.0000 0.24168  0.67182  0.08072  Biso   1.000  C
  C80      1.0000 0.45218  0.78165  0.03622  Biso   1.000  C
  C81      1.0000 0.38730  0.10237  0.04381  Biso   1.000  C
  C82      1.0000 0.17262  0.53477  0.97936  Biso   1.000  C
  H28      1.0000 0.13390  0.57860  0.98080  Biso   1.000  H
  C83      1.0000 0.34640  0.33620  0.97220  Biso   1.000  C
  C84      1.0000 0.36550  0.90426  0.17089  Biso   1.000  C
  H29      1.0000 0.35860  0.86120  0.19890  Biso   1.000  H
  C85      1.0000 0.28065  0.62908  0.04107  Biso   1.000  C
  C86      1.0000 0.25255  0.54658  0.01011  Biso   1.000  C
  C87      1.0000 0.38340  0.98982  0.18943  Biso   1.000  C
  C88      1.0000 0.34764  0.66866  0.02708  Biso   1.000  C
  H30      1.0000 0.37460  0.64050  0.00030  Biso   1.000  H
  C89      1.0000 0.37630  0.74910  0.05160  Biso   1.000  C
  C90      1.0000 0.20511  0.39509  0.94399  Biso   1.000  C
  H31      1.0000 0.18900  0.34400  0.92130  Biso   1.000  H
  C91      1.0000 0.33624  0.79278  0.08962  Biso   1.000  C
  C92      1.0000 0.39215  0.05293  0.14874  Biso   1.000  C
  H32      1.0000 0.40410  0.11110  0.16150  Biso   1.000  H
  C93      1.0000 0.35780  0.88260  0.11140  Biso   1.000  C
  C94      1.0000 0.06420  0.44860  0.91360  Biso   1.000  C
  C95      1.0000 0.17250  0.63370  0.10330  Biso   1.000  C
  C96      1.0000 0.39490  0.01460  0.25395  Biso   1.000  C
