data_image0
_cell_length_a       13.006
_cell_length_b       13.821
_cell_length_c       27.982
_cell_angle_alpha    75.67
_cell_angle_beta     79.35
_cell_angle_gamma    85.62

_symmetry_space_group_name_H-M    "P 1"
_symmetry_int_tables_number       1

loop_
  _symmetry_equiv_pos_as_xyz
  'x, y, z'

loop_
  _atom_site_label
  _atom_site_occupancy
  _atom_site_fract_x
  _atom_site_fract_y
  _atom_site_fract_z
  _atom_site_thermal_displace_type
  _atom_site_B_iso_or_equiv
  _atom_site_type_symbol
  Eu1      1.0000 0.88028  0.02118  0.55405  Biso   1.000  Eu
  Eu2      1.0000 0.47145  0.53782  0.41508  Biso   1.000  Eu
  Eu3      1.0000 0.03068  0.87524  0.06050  Biso   1.000  Eu
  Eu4      1.0000 0.51709  0.48078  0.91415  Biso   1.000  Eu
  O1       1.0000 0.94570  0.93200  0.47215  Biso   1.000  O
  O2       1.0000 0.79910  0.89900  0.52589  Biso   1.000  O
  O3       1.0000 0.59970  0.56730  0.45670  Biso   1.000  O
  O4       1.0000 0.62380  0.59060  0.52878  Biso   1.000  O
  O5       1.0000 0.04520  0.88960  0.14447  Biso   1.000  O
  O6       1.0000 0.93130  0.78580  0.14087  Biso   1.000  O
  O7       1.0000 0.63990  0.51690  0.35808  Biso   1.000  O
  O8       1.0000 0.59550  0.39250  0.42354  Biso   1.000  O
  O9       1.0000 0.86870  0.13510  0.47589  Biso   1.000  O
  O10      1.0000 0.01880  0.12660  0.42246  Biso   1.000  O
  O11      1.0000 0.25990  0.65930  0.14692  Biso   1.000  O
  O12      1.0000 0.32570  0.50800  0.14153  Biso   1.000  O
  O13      1.0000 0.88910  0.98360  0.07757  Biso   1.000  O
  O14      1.0000 0.87590  0.12730  0.02152  Biso   1.000  O
  O15      1.0000 0.50410  0.35110  0.13833  Biso   1.000  O
  O16      1.0000 0.61240  0.38720  0.06681  Biso   1.000  O
  O17      1.0000 0.49050  0.69420  0.36318  Biso   1.000  O
  O18      1.0000 0.44390  0.81440  0.40300  Biso   1.000  O
  O19      1.0000 0.59760  0.57200  0.95480  Biso   1.000  O
  O20      1.0000 0.61130  0.60700  0.02558  Biso   1.000  O
  O21      1.0000 0.90120  0.96790  0.96719  Biso   1.000  O
  O22      1.0000 0.89380  0.82670  0.02536  Biso   1.000  O
  O23      1.0000 0.77830  0.93540  0.63516  Biso   1.000  O
  O24      1.0000 0.91300  0.01760  0.63837  Biso   1.000  O
  C1       1.0000 0.82530  0.82290  0.45730  Biso   1.000  C
  C2       1.0000 0.75070  0.75250  0.48150  Biso   1.000  C
  H1       1.0000 0.72430  0.74510  0.51540  Biso   1.000  H
  C3       1.0000 0.71580  0.69310  0.45490  Biso   1.000  C
  C4       1.0000 0.75200  0.70580  0.40450  Biso   1.000  C
  H2       1.0000 0.72590  0.66710  0.38680  Biso   1.000  H
  C5       1.0000 0.82840  0.77660  0.37910  Biso   1.000  C
  C6       1.0000 0.86560  0.83350  0.40670  Biso   1.000  C
  H3       1.0000 0.91780  0.87890  0.39110  Biso   1.000  H
  C7       1.0000 0.86610  0.78880  0.32440  Biso   1.000  C
  C8       1.0000 0.96210  0.83340  0.30120  Biso   1.000  C
  H4       1.0000 0.00340  0.85510  0.32010  Biso   1.000  H
  C9       1.0000 0.99490  0.84490  0.25010  Biso   1.000  C
  H5       1.0000 0.05870  0.87400  0.23530  Biso   1.000  H
  C10      1.0000 0.93650  0.81480  0.22080  Biso   1.000  C
  C11      1.0000 0.84670  0.76290  0.24430  Biso   1.000  C
  H6       1.0000 0.80920  0.73550  0.22590  Biso   1.000  H
  C12      1.0000 0.81280  0.75200  0.29520  Biso   1.000  C
  H7       1.0000 0.75140  0.71840  0.31010  Biso   1.000  H
  C13      1.0000 0.85980  0.88870  0.48670  Biso   1.000  C
  C14      1.0000 0.64020  0.61260  0.48220  Biso   1.000  C
  C15      1.0000 0.97360  0.83050  0.16540  Biso   1.000  C
  C16      1.0000 0.76570  0.38350  0.37490  Biso   1.000  C
  C17      1.0000 0.79570  0.29850  0.40780  Biso   1.000  C
  H8       1.0000 0.75010  0.27150  0.43710  Biso   1.000  H
  C18      1.0000 0.89440  0.25290  0.39730  Biso   1.000  C
  C19      1.0000 0.96130  0.29310  0.35390  Biso   1.000  C
  H9       1.0000 0.02660  0.26230  0.34690  Biso   1.000  H
  C20      1.0000 0.93300  0.37930  0.32000  Biso   1.000  C
  C21      1.0000 0.83530  0.42300  0.33150  Biso   1.000  C
  H10      1.0000 0.81550  0.48060  0.30950  Biso   1.000  H
  C22      1.0000 0.01100  0.42640  0.27530  Biso   1.000  C
  C23      1.0000 0.01660  0.52940  0.25990  Biso   1.000  C
  H11      1.0000 0.96810  0.56890  0.27600  Biso   1.000  H
  C24      1.0000 0.09290  0.57500  0.22080  Biso   1.000  C
  H12      1.0000 0.09420  0.64430  0.21060  Biso   1.000  H
  C25      1.0000 0.16700  0.51730  0.19710  Biso   1.000  C
  C26      1.0000 0.15940  0.41470  0.21110  Biso   1.000  C
  H13      1.0000 0.20670  0.37500  0.19440  Biso   1.000  H
  C27      1.0000 0.08180  0.37000  0.24970  Biso   1.000  C
  H14      1.0000 0.07760  0.30080  0.25850  Biso   1.000  H
  C28      1.0000 0.66110  0.43290  0.38570  Biso   1.000  C
  C29      1.0000 0.92960  0.16290  0.43530  Biso   1.000  C
  C30      1.0000 0.25590  0.56610  0.15900  Biso   1.000  C
  C31      1.0000 0.76200  0.10270  0.10010  Biso   1.000  C
  C32      1.0000 0.71480  0.19690  0.08790  Biso   1.000  C
  H15      1.0000 0.73820  0.24040  0.05730  Biso   1.000  H
  C33      1.0000 0.63270  0.22680  0.12110  Biso   1.000  C
  C34      1.0000 0.59830  0.16170  0.16660  Biso   1.000  C
  H16      1.0000 0.54390  0.18230  0.18890  Biso   1.000  H
  C35      1.0000 0.64290  0.06650  0.17970  Biso   1.000  C
  C36      1.0000 0.72600  0.03870  0.14560  Biso   1.000  C
  H17      1.0000 0.75780  0.97560  0.15380  Biso   1.000  H
  C37      1.0000 0.60070  0.99610  0.22740  Biso   1.000  C
  C38      1.0000 0.59970  0.89490  0.22980  Biso   1.000  C
  H18      1.0000 0.62660  0.87140  0.20150  Biso   1.000  H
  C39      1.0000 0.55910  0.82780  0.27400  Biso   1.000  C
  H19      1.0000 0.55840  0.76030  0.27470  Biso   1.000  H
  C40      1.0000 0.51980  0.86010  0.31690  Biso   1.000  C
  C41      1.0000 0.52130  0.96050  0.31560  Biso   1.000  C
  H20      1.0000 0.49590  0.98330  0.34430  Biso   1.000  H
  C42      1.0000 0.56100  0.02740  0.27100  Biso   1.000  C
  H21      1.0000 0.56110  0.09500  0.27040  Biso   1.000  H
  C43      1.0000 0.84910  0.06840  0.06400  Biso   1.000  C
  C44      1.0000 0.58020  0.32800  0.10810  Biso   1.000  C
  C45      1.0000 0.48080  0.78480  0.36510  Biso   1.000  C
  C46      1.0000 0.70000  0.70800  0.95200  Biso   1.000  C
  C47      1.0000 0.75180  0.75340  0.97900  Biso   1.000  C
  H22      1.0000 0.74470  0.72950  0.01360  Biso   1.000  H
  C48      1.0000 0.81470  0.83440  0.95510  Biso   1.000  C
  C49      1.0000 0.82360  0.87000  0.90400  Biso   1.000  C
  H23      1.0000 0.86260  0.92630  0.88820  Biso   1.000  H
  C50      1.0000 0.77540  0.82330  0.87540  Biso   1.000  C
  C51      1.0000 0.71290  0.74270  0.89980  Biso   1.000  C
  H24      1.0000 0.67930  0.71140  0.88150  Biso   1.000  H
  C52      1.0000 0.79040  0.85890  0.82000  Biso   1.000  C
  C53      1.0000 0.71430  0.85090  0.79320  Biso   1.000  C
  H25      1.0000 0.65120  0.82260  0.81020  Biso   1.000  H
  C54      1.0000 0.72840  0.88330  0.74180  Biso   1.000  C
  H26      1.0000 0.67490  0.87760  0.72490  Biso   1.000  H
  C55      1.0000 0.82170  0.92430  0.71540  Biso   1.000  C
  C56      1.0000 0.89980  0.93160  0.74090  Biso   1.000  C
  H27      1.0000 0.96370  0.95750  0.72350  Biso   1.000  H
  C57      1.0000 0.88410  0.90010  0.79330  Biso   1.000  C
  H28      1.0000 0.93700  0.90700  0.81030  Biso   1.000  H
  C58      1.0000 0.63040  0.62340  0.97890  Biso   1.000  C
  C59      1.0000 0.87300  0.88010  0.98470  Biso   1.000  C
  C60      1.0000 0.83870  0.96110  0.65930  Biso   1.000  C
  Tb1      1.0000 0.11972  0.97882  0.44595  Biso   1.000  Tb
  Tb2      1.0000 0.96932  0.12476  0.93950  Biso   1.000  Tb
  Eu5      1.0000 0.52855  0.46218  0.58492  Biso   1.000  Eu
  Eu6      1.0000 0.48291  0.51922  0.08585  Biso   1.000  Eu
  O25      1.0000 0.05430  0.06800  0.52785  Biso   1.000  O
  O26      1.0000 0.20090  0.10100  0.47411  Biso   1.000  O
  O27      1.0000 0.40030  0.43270  0.54330  Biso   1.000  O
  O28      1.0000 0.37620  0.40940  0.47122  Biso   1.000  O
  O29      1.0000 0.95480  0.11040  0.85553  Biso   1.000  O
  O30      1.0000 0.06870  0.21420  0.85913  Biso   1.000  O
  O31      1.0000 0.36010  0.48310  0.64192  Biso   1.000  O
  O32      1.0000 0.40450  0.60750  0.57646  Biso   1.000  O
  O33      1.0000 0.13130  0.86490  0.52411  Biso   1.000  O
  O34      1.0000 0.98120  0.87340  0.57754  Biso   1.000  O
  O35      1.0000 0.74010  0.34070  0.85308  Biso   1.000  O
  O36      1.0000 0.67430  0.49200  0.85847  Biso   1.000  O
  O37      1.0000 0.11090  0.01640  0.92243  Biso   1.000  O
  O38      1.0000 0.12410  0.87270  0.97848  Biso   1.000  O
  O39      1.0000 0.49590  0.64890  0.86167  Biso   1.000  O
  O40      1.0000 0.38760  0.61280  0.93319  Biso   1.000  O
  O41      1.0000 0.50950  0.30580  0.63682  Biso   1.000  O
  O42      1.0000 0.55610  0.18560  0.59700  Biso   1.000  O
  O43      1.0000 0.40240  0.42800  0.04520  Biso   1.000  O
  O44      1.0000 0.38870  0.39300  0.97442  Biso   1.000  O
  O45      1.0000 0.09880  0.03210  0.03281  Biso   1.000  O
  O46      1.0000 0.10620  0.17330  0.97464  Biso   1.000  O
  O47      1.0000 0.22170  0.06460  0.36484  Biso   1.000  O
  O48      1.0000 0.08700  0.98240  0.36163  Biso   1.000  O
  C61      1.0000 0.17470  0.17710  0.54270  Biso   1.000  C
  C62      1.0000 0.24930  0.24750  0.51850  Biso   1.000  C
  H29      1.0000 0.27570  0.25490  0.48460  Biso   1.000  H
  C63      1.0000 0.28420  0.30690  0.54510  Biso   1.000  C
  C64      1.0000 0.24800  0.29420  0.59550  Biso   1.000  C
  H30      1.0000 0.27410  0.33290  0.61320  Biso   1.000  H
  C65      1.0000 0.17160  0.22340  0.62090  Biso   1.000  C
  C66      1.0000 0.13440  0.16650  0.59330  Biso   1.000  C
  H31      1.0000 0.08220  0.12110  0.60890  Biso   1.000  H
  C67      1.0000 0.13390  0.21120  0.67560  Biso   1.000  C
  C68      1.0000 0.03790  0.16660  0.69880  Biso   1.000  C
  H32      1.0000 0.99660  0.14490  0.67990  Biso   1.000  H
  C69      1.0000 0.00510  0.15510  0.74990  Biso   1.000  C
  H33      1.0000 0.94130  0.12600  0.76470  Biso   1.000  H
  C70      1.0000 0.06350  0.18520  0.77920  Biso   1.000  C
  C71      1.0000 0.15330  0.23710  0.75570  Biso   1.000  C
  H34      1.0000 0.19080  0.26450  0.77410  Biso   1.000  H
  C72      1.0000 0.18720  0.24800  0.70480  Biso   1.000  C
  H35      1.0000 0.24860  0.28160  0.68990  Biso   1.000  H
  C73      1.0000 0.14020  0.11130  0.51330  Biso   1.000  C
  C74      1.0000 0.35980  0.38740  0.51780  Biso   1.000  C
  C75      1.0000 0.02640  0.16950  0.83460  Biso   1.000  C
  C76      1.0000 0.23430  0.61650  0.62510  Biso   1.000  C
  C77      1.0000 0.20430  0.70150  0.59220  Biso   1.000  C
  H36      1.0000 0.24990  0.72850  0.56290  Biso   1.000  H
  C78      1.0000 0.10560  0.74710  0.60270  Biso   1.000  C
  C79      1.0000 0.03870  0.70690  0.64610  Biso   1.000  C
  H37      1.0000 0.97340  0.73770  0.65310  Biso   1.000  H
  C80      1.0000 0.06700  0.62070  0.68000  Biso   1.000  C
  C81      1.0000 0.16470  0.57700  0.66850  Biso   1.000  C
  H38      1.0000 0.18450  0.51940  0.69050  Biso   1.000  H
  C82      1.0000 0.98900  0.57360  0.72470  Biso   1.000  C
  C83      1.0000 0.98340  0.47060  0.74010  Biso   1.000  C
  H39      1.0000 0.03190  0.43110  0.72400  Biso   1.000  H
  C84      1.0000 0.90710  0.42500  0.77920  Biso   1.000  C
  H40      1.0000 0.90580  0.35570  0.78940  Biso   1.000  H
  C85      1.0000 0.83300  0.48270  0.80290  Biso   1.000  C
  C86      1.0000 0.84060  0.58530  0.78890  Biso   1.000  C
  H41      1.0000 0.79330  0.62500  0.80560  Biso   1.000  H
  C87      1.0000 0.91820  0.63000  0.75030  Biso   1.000  C
  H42      1.0000 0.92240  0.69920  0.74150  Biso   1.000  H
  C88      1.0000 0.33890  0.56710  0.61430  Biso   1.000  C
  C89      1.0000 0.07040  0.83710  0.56470  Biso   1.000  C
  C90      1.0000 0.74410  0.43390  0.84100  Biso   1.000  C
  C91      1.0000 0.23800  0.89730  0.89990  Biso   1.000  C
  C92      1.0000 0.28520  0.80310  0.91210  Biso   1.000  C
  H43      1.0000 0.26180  0.75960  0.94270  Biso   1.000  H
  C93      1.0000 0.36730  0.77320  0.87890  Biso   1.000  C
  C94      1.0000 0.40170  0.83830  0.83340  Biso   1.000  C
  H44      1.0000 0.45610  0.81770  0.81110  Biso   1.000  H
  C95      1.0000 0.35710  0.93350  0.82030  Biso   1.000  C
  C96      1.0000 0.27400  0.96130  0.85440  Biso   1.000  C
  H45      1.0000 0.24220  0.02440  0.84620  Biso   1.000  H
  C97      1.0000 0.39930  0.00390  0.77260  Biso   1.000  C
  C98      1.0000 0.40030  0.10510  0.77020  Biso   1.000  C
  H46      1.0000 0.37340  0.12860  0.79850  Biso   1.000  H
  C99      1.0000 0.44090  0.17220  0.72600  Biso   1.000  C
  H47      1.0000 0.44160  0.23970  0.72530  Biso   1.000  H
  C100     1.0000 0.48020  0.13990  0.68310  Biso   1.000  C
  C101     1.0000 0.47870  0.03950  0.68440  Biso   1.000  C
  H48      1.0000 0.50410  0.01670  0.65570  Biso   1.000  H
  C102     1.0000 0.43900  0.97260  0.72900  Biso   1.000  C
  H49      1.0000 0.43890  0.90500  0.72960  Biso   1.000  H
  C103     1.0000 0.15090  0.93160  0.93600  Biso   1.000  C
  C104     1.0000 0.41980  0.67200  0.89190  Biso   1.000  C
  C105     1.0000 0.51920  0.21520  0.63490  Biso   1.000  C
  C106     1.0000 0.30000  0.29200  0.04800  Biso   1.000  C
  C107     1.0000 0.24820  0.24660  0.02100  Biso   1.000  C
  H50      1.0000 0.25530  0.27050  0.98640  Biso   1.000  H
  C108     1.0000 0.18530  0.16560  0.04490  Biso   1.000  C
  C109     1.0000 0.17640  0.13000  0.09600  Biso   1.000  C
  H51      1.0000 0.13740  0.07370  0.11180  Biso   1.000  H
  C110     1.0000 0.22460  0.17670  0.12460  Biso   1.000  C
  C111     1.0000 0.28710  0.25730  0.10020  Biso   1.000  C
  H52      1.0000 0.32070  0.28860  0.11850  Biso   1.000  H
  C112     1.0000 0.20960  0.14110  0.18000  Biso   1.000  C
  C113     1.0000 0.28570  0.14910  0.20680  Biso   1.000  C
  H53      1.0000 0.34880  0.17740  0.18980  Biso   1.000  H
  C114     1.0000 0.27160  0.11670  0.25820  Biso   1.000  C
  H54      1.0000 0.32510  0.12240  0.27510  Biso   1.000  H
  C115     1.0000 0.17830  0.07570  0.28460  Biso   1.000  C
  C116     1.0000 0.10020  0.06840  0.25910  Biso   1.000  C
  H55      1.0000 0.03630  0.04250  0.27650  Biso   1.000  H
  C117     1.0000 0.11590  0.09990  0.20670  Biso   1.000  C
  H56      1.0000 0.06300  0.09300  0.18970  Biso   1.000  H
  C118     1.0000 0.36960  0.37660  0.02110  Biso   1.000  C
  C119     1.0000 0.12700  0.11990  0.01530  Biso   1.000  C
  C120     1.0000 0.16130  0.03890  0.34070  Biso   1.000  C
