data_image0
_cell_length_a       24.623
_cell_length_b       12.866
_cell_length_c       14.868
_cell_angle_alpha    90
_cell_angle_beta     96.78
_cell_angle_gamma    90

_symmetry_space_group_name_H-M    "P 1"
_symmetry_int_tables_number       1

loop_
  _symmetry_equiv_pos_as_xyz
  'x, y, z'

loop_
  _atom_site_label
  _atom_site_occupancy
  _atom_site_fract_x
  _atom_site_fract_y
  _atom_site_fract_z
  _atom_site_thermal_displace_type
  _atom_site_B_iso_or_equiv
  _atom_site_type_symbol
  Eu1      1.0000 0.67217  0.79764  0.46679  Biso   1.000  Eu
  O1       1.0000 0.30739  0.74140  0.88105  Biso   1.000  O
  O2       1.0000 0.22886  0.65280  0.85310  Biso   1.000  O
  O3       1.0000 0.27461  0.35500  0.53957  Biso   1.000  O
  O4       1.0000 0.20259  0.44950  0.55800  Biso   1.000  O
  O5       1.0000 0.58707  0.83120  0.53650  Biso   1.000  O
  O6       1.0000 0.60086  0.66940  0.49860  Biso   1.000  O
  C1       1.0000 0.29780  0.62730  0.75670  Biso   1.000  C
  C2       1.0000 0.26595  0.55780  0.70250  Biso   1.000  C
  H1       1.0000 0.23010  0.54460  0.71320  Biso   1.000  H
  C3       1.0000 0.28763  0.50770  0.63180  Biso   1.000  C
  C4       1.0000 0.34099  0.52900  0.61460  Biso   1.000  C
  H2       1.0000 0.35590  0.49280  0.56930  Biso   1.000  H
  C5       1.0000 0.37216  0.60410  0.66490  Biso   1.000  C
  C6       1.0000 0.35016  0.65180  0.73720  Biso   1.000  C
  H3       1.0000 0.37080  0.70040  0.77270  Biso   1.000  H
  C7       1.0000 0.42630  0.63630  0.63950  Biso   1.000  C
  C8       1.0000 0.44156  0.74090  0.64310  Biso   1.000  C
  H4       1.0000 0.41910  0.78970  0.66640  Biso   1.000  H
  C9       1.0000 0.49030  0.77260  0.61210  Biso   1.000  C
  H5       1.0000 0.50020  0.84240  0.61540  Biso   1.000  H
  C10      1.0000 0.52377  0.70210  0.57690  Biso   1.000  C
  C11      1.0000 0.51007  0.59850  0.57750  Biso   1.000  C
  H6       1.0000 0.53360  0.54950  0.55730  Biso   1.000  H
  C12      1.0000 0.46138  0.56560  0.60800  Biso   1.000  C
  H7       1.0000 0.45260  0.49530  0.60700  Biso   1.000  H
  C13      1.0000 0.27629  0.67770  0.83730  Biso   1.000  C
  C14      1.0000 0.25266  0.43240  0.57320  Biso   1.000  C
  C15      1.0000 0.57362  0.73590  0.53470  Biso   1.000  C
  Eu2      1.0000 0.17217  0.29764  0.46679  Biso   1.000  Eu
  O7       1.0000 0.80739  0.24140  0.88105  Biso   1.000  O
  O8       1.0000 0.72886  0.15280  0.85310  Biso   1.000  O
  O9       1.0000 0.77461  0.85500  0.53957  Biso   1.000  O
  O10      1.0000 0.70259  0.94950  0.55800  Biso   1.000  O
  O11      1.0000 0.08707  0.33120  0.53650  Biso   1.000  O
  O12      1.0000 0.10086  0.16940  0.49860  Biso   1.000  O
  C16      1.0000 0.79780  0.12730  0.75670  Biso   1.000  C
  C17      1.0000 0.76595  0.05780  0.70250  Biso   1.000  C
  H8       1.0000 0.73010  0.04460  0.71320  Biso   1.000  H
  C18      1.0000 0.78763  0.00770  0.63180  Biso   1.000  C
  C19      1.0000 0.84099  0.02900  0.61460  Biso   1.000  C
  H9       1.0000 0.85590  0.99280  0.56930  Biso   1.000  H
  C20      1.0000 0.87216  0.10410  0.66490  Biso   1.000  C
  C21      1.0000 0.85016  0.15180  0.73720  Biso   1.000  C
  H10      1.0000 0.87080  0.20040  0.77270  Biso   1.000  H
  C22      1.0000 0.92630  0.13630  0.63950  Biso   1.000  C
  C23      1.0000 0.94156  0.24090  0.64310  Biso   1.000  C
  H11      1.0000 0.91910  0.28970  0.66640  Biso   1.000  H
  C24      1.0000 0.99030  0.27260  0.61210  Biso   1.000  C
  H12      1.0000 0.00020  0.34240  0.61540  Biso   1.000  H
  C25      1.0000 0.02377  0.20210  0.57690  Biso   1.000  C
  C26      1.0000 0.01007  0.09850  0.57750  Biso   1.000  C
  H13      1.0000 0.03360  0.04950  0.55730  Biso   1.000  H
  C27      1.0000 0.96138  0.06560  0.60800  Biso   1.000  C
  H14      1.0000 0.95260  0.99530  0.60700  Biso   1.000  H
  C28      1.0000 0.77629  0.17770  0.83730  Biso   1.000  C
  C29      1.0000 0.75266  0.93240  0.57320  Biso   1.000  C
  C30      1.0000 0.07362  0.23590  0.53470  Biso   1.000  C
  Eu3      1.0000 0.32783  0.79764  0.03321  Biso   1.000  Eu
  O13      1.0000 0.69261  0.74140  0.61895  Biso   1.000  O
  O14      1.0000 0.77114  0.65280  0.64690  Biso   1.000  O
  O15      1.0000 0.72539  0.35500  0.96043  Biso   1.000  O
  O16      1.0000 0.79741  0.44950  0.94200  Biso   1.000  O
  O17      1.0000 0.41293  0.83120  0.96350  Biso   1.000  O
  O18      1.0000 0.39914  0.66940  0.00140  Biso   1.000  O
  C31      1.0000 0.70220  0.62730  0.74330  Biso   1.000  C
  C32      1.0000 0.73405  0.55780  0.79750  Biso   1.000  C
  H15      1.0000 0.76990  0.54460  0.78680  Biso   1.000  H
  C33      1.0000 0.71237  0.50770  0.86820  Biso   1.000  C
  C34      1.0000 0.65901  0.52900  0.88540  Biso   1.000  C
  H16      1.0000 0.64410  0.49280  0.93070  Biso   1.000  H
  C35      1.0000 0.62784  0.60410  0.83510  Biso   1.000  C
  C36      1.0000 0.64984  0.65180  0.76280  Biso   1.000  C
  H17      1.0000 0.62920  0.70040  0.72730  Biso   1.000  H
  C37      1.0000 0.57370  0.63630  0.86050  Biso   1.000  C
  C38      1.0000 0.55844  0.74090  0.85690  Biso   1.000  C
  H18      1.0000 0.58090  0.78970  0.83360  Biso   1.000  H
  C39      1.0000 0.50970  0.77260  0.88790  Biso   1.000  C
  H19      1.0000 0.49980  0.84240  0.88460  Biso   1.000  H
  C40      1.0000 0.47623  0.70210  0.92310  Biso   1.000  C
  C41      1.0000 0.48993  0.59850  0.92250  Biso   1.000  C
  H20      1.0000 0.46640  0.54950  0.94270  Biso   1.000  H
  C42      1.0000 0.53862  0.56560  0.89200  Biso   1.000  C
  H21      1.0000 0.54740  0.49530  0.89300  Biso   1.000  H
  C43      1.0000 0.72371  0.67770  0.66270  Biso   1.000  C
  C44      1.0000 0.74734  0.43240  0.92680  Biso   1.000  C
  C45      1.0000 0.42638  0.73590  0.96530  Biso   1.000  C
  Eu4      1.0000 0.82783  0.29764  0.03321  Biso   1.000  Eu
  O19      1.0000 0.19261  0.24140  0.61895  Biso   1.000  O
  O20      1.0000 0.27114  0.15280  0.64690  Biso   1.000  O
  O21      1.0000 0.22539  0.85500  0.96043  Biso   1.000  O
  O22      1.0000 0.29741  0.94950  0.94200  Biso   1.000  O
  O23      1.0000 0.91293  0.33120  0.96350  Biso   1.000  O
  O24      1.0000 0.89914  0.16940  0.00140  Biso   1.000  O
  C46      1.0000 0.20220  0.12730  0.74330  Biso   1.000  C
  C47      1.0000 0.23405  0.05780  0.79750  Biso   1.000  C
  H22      1.0000 0.26990  0.04460  0.78680  Biso   1.000  H
  C48      1.0000 0.21237  0.00770  0.86820  Biso   1.000  C
  C49      1.0000 0.15901  0.02900  0.88540  Biso   1.000  C
  H23      1.0000 0.14410  0.99280  0.93070  Biso   1.000  H
  C50      1.0000 0.12784  0.10410  0.83510  Biso   1.000  C
  C51      1.0000 0.14984  0.15180  0.76280  Biso   1.000  C
  H24      1.0000 0.12920  0.20040  0.72730  Biso   1.000  H
  C52      1.0000 0.07370  0.13630  0.86050  Biso   1.000  C
  C53      1.0000 0.05844  0.24090  0.85690  Biso   1.000  C
  H25      1.0000 0.08090  0.28970  0.83360  Biso   1.000  H
  C54      1.0000 0.00970  0.27260  0.88790  Biso   1.000  C
  H26      1.0000 0.99980  0.34240  0.88460  Biso   1.000  H
  C55      1.0000 0.97623  0.20210  0.92310  Biso   1.000  C
  C56      1.0000 0.98993  0.09850  0.92250  Biso   1.000  C
  H27      1.0000 0.96640  0.04950  0.94270  Biso   1.000  H
  C57      1.0000 0.03862  0.06560  0.89200  Biso   1.000  C
  H28      1.0000 0.04740  0.99530  0.89300  Biso   1.000  H
  C58      1.0000 0.22371  0.17770  0.66270  Biso   1.000  C
  C59      1.0000 0.24734  0.93240  0.92680  Biso   1.000  C
  C60      1.0000 0.92638  0.23590  0.96530  Biso   1.000  C
  Eu5      1.0000 0.32783  0.20236  0.53321  Biso   1.000  Eu
  O25      1.0000 0.69261  0.25860  0.11895  Biso   1.000  O
  O26      1.0000 0.77114  0.34720  0.14690  Biso   1.000  O
  O27      1.0000 0.72539  0.64500  0.46043  Biso   1.000  O
  O28      1.0000 0.79741  0.55050  0.44200  Biso   1.000  O
  O29      1.0000 0.41293  0.16880  0.46350  Biso   1.000  O
  O30      1.0000 0.39914  0.33060  0.50140  Biso   1.000  O
  C61      1.0000 0.70220  0.37270  0.24330  Biso   1.000  C
  C62      1.0000 0.73405  0.44220  0.29750  Biso   1.000  C
  H29      1.0000 0.76990  0.45540  0.28680  Biso   1.000  H
  C63      1.0000 0.71237  0.49230  0.36820  Biso   1.000  C
  C64      1.0000 0.65901  0.47100  0.38540  Biso   1.000  C
  H30      1.0000 0.64410  0.50720  0.43070  Biso   1.000  H
  C65      1.0000 0.62784  0.39590  0.33510  Biso   1.000  C
  C66      1.0000 0.64984  0.34820  0.26280  Biso   1.000  C
  H31      1.0000 0.62920  0.29960  0.22730  Biso   1.000  H
  C67      1.0000 0.57370  0.36370  0.36050  Biso   1.000  C
  C68      1.0000 0.55844  0.25910  0.35690  Biso   1.000  C
  H32      1.0000 0.58090  0.21030  0.33360  Biso   1.000  H
  C69      1.0000 0.50970  0.22740  0.38790  Biso   1.000  C
  H33      1.0000 0.49980  0.15760  0.38460  Biso   1.000  H
  C70      1.0000 0.47623  0.29790  0.42310  Biso   1.000  C
  C71      1.0000 0.48993  0.40150  0.42250  Biso   1.000  C
  H34      1.0000 0.46640  0.45050  0.44270  Biso   1.000  H
  C72      1.0000 0.53862  0.43440  0.39200  Biso   1.000  C
  H35      1.0000 0.54740  0.50470  0.39300  Biso   1.000  H
  C73      1.0000 0.72371  0.32230  0.16270  Biso   1.000  C
  C74      1.0000 0.74734  0.56760  0.42680  Biso   1.000  C
  C75      1.0000 0.42638  0.26410  0.46530  Biso   1.000  C
  Eu6      1.0000 0.82783  0.70236  0.53321  Biso   1.000  Eu
  O31      1.0000 0.19261  0.75860  0.11895  Biso   1.000  O
  O32      1.0000 0.27114  0.84720  0.14690  Biso   1.000  O
  O33      1.0000 0.22539  0.14500  0.46043  Biso   1.000  O
  O34      1.0000 0.29741  0.05050  0.44200  Biso   1.000  O
  O35      1.0000 0.91293  0.66880  0.46350  Biso   1.000  O
  O36      1.0000 0.89914  0.83060  0.50140  Biso   1.000  O
  C76      1.0000 0.20220  0.87270  0.24330  Biso   1.000  C
  C77      1.0000 0.23405  0.94220  0.29750  Biso   1.000  C
  H36      1.0000 0.26990  0.95540  0.28680  Biso   1.000  H
  C78      1.0000 0.21237  0.99230  0.36820  Biso   1.000  C
  C79      1.0000 0.15901  0.97100  0.38540  Biso   1.000  C
  H37      1.0000 0.14410  0.00720  0.43070  Biso   1.000  H
  C80      1.0000 0.12784  0.89590  0.33510  Biso   1.000  C
  C81      1.0000 0.14984  0.84820  0.26280  Biso   1.000  C
  H38      1.0000 0.12920  0.79960  0.22730  Biso   1.000  H
  C82      1.0000 0.07370  0.86370  0.36050  Biso   1.000  C
  C83      1.0000 0.05844  0.75910  0.35690  Biso   1.000  C
  H39      1.0000 0.08090  0.71030  0.33360  Biso   1.000  H
  C84      1.0000 0.00970  0.72740  0.38790  Biso   1.000  C
  H40      1.0000 0.99980  0.65760  0.38460  Biso   1.000  H
  C85      1.0000 0.97623  0.79790  0.42310  Biso   1.000  C
  C86      1.0000 0.98993  0.90150  0.42250  Biso   1.000  C
  H41      1.0000 0.96640  0.95050  0.44270  Biso   1.000  H
  C87      1.0000 0.03862  0.93440  0.39200  Biso   1.000  C
  H42      1.0000 0.04740  0.00470  0.39300  Biso   1.000  H
  C88      1.0000 0.22371  0.82230  0.16270  Biso   1.000  C
  C89      1.0000 0.24734  0.06760  0.42680  Biso   1.000  C
  C90      1.0000 0.92638  0.76410  0.46530  Biso   1.000  C
  Eu7      1.0000 0.67217  0.20236  0.96679  Biso   1.000  Eu
  O37      1.0000 0.30739  0.25860  0.38105  Biso   1.000  O
  O38      1.0000 0.22886  0.34720  0.35310  Biso   1.000  O
  O39      1.0000 0.27461  0.64500  0.03957  Biso   1.000  O
  O40      1.0000 0.20259  0.55050  0.05800  Biso   1.000  O
  O41      1.0000 0.58707  0.16880  0.03650  Biso   1.000  O
  O42      1.0000 0.60086  0.33060  0.99860  Biso   1.000  O
  C91      1.0000 0.29780  0.37270  0.25670  Biso   1.000  C
  C92      1.0000 0.26595  0.44220  0.20250  Biso   1.000  C
  H43      1.0000 0.23010  0.45540  0.21320  Biso   1.000  H
  C93      1.0000 0.28763  0.49230  0.13180  Biso   1.000  C
  C94      1.0000 0.34099  0.47100  0.11460  Biso   1.000  C
  H44      1.0000 0.35590  0.50720  0.06930  Biso   1.000  H
  C95      1.0000 0.37216  0.39590  0.16490  Biso   1.000  C
  C96      1.0000 0.35016  0.34820  0.23720  Biso   1.000  C
  H45      1.0000 0.37080  0.29960  0.27270  Biso   1.000  H
  C97      1.0000 0.42630  0.36370  0.13950  Biso   1.000  C
  C98      1.0000 0.44156  0.25910  0.14310  Biso   1.000  C
  H46      1.0000 0.41910  0.21030  0.16640  Biso   1.000  H
  C99      1.0000 0.49030  0.22740  0.11210  Biso   1.000  C
  H47      1.0000 0.50020  0.15760  0.11540  Biso   1.000  H
  C100     1.0000 0.52377  0.29790  0.07690  Biso   1.000  C
  C101     1.0000 0.51007  0.40150  0.07750  Biso   1.000  C
  H48      1.0000 0.53360  0.45050  0.05730  Biso   1.000  H
  C102     1.0000 0.46138  0.43440  0.10800  Biso   1.000  C
  H49      1.0000 0.45260  0.50470  0.10700  Biso   1.000  H
  C103     1.0000 0.27629  0.32230  0.33730  Biso   1.000  C
  C104     1.0000 0.25266  0.56760  0.07320  Biso   1.000  C
  C105     1.0000 0.57362  0.26410  0.03470  Biso   1.000  C
  Eu8      1.0000 0.17217  0.70236  0.96679  Biso   1.000  Eu
  O43      1.0000 0.80739  0.75860  0.38105  Biso   1.000  O
  O44      1.0000 0.72886  0.84720  0.35310  Biso   1.000  O
  O45      1.0000 0.77461  0.14500  0.03957  Biso   1.000  O
  O46      1.0000 0.70259  0.05050  0.05800  Biso   1.000  O
  O47      1.0000 0.08707  0.66880  0.03650  Biso   1.000  O
  O48      1.0000 0.10086  0.83060  0.99860  Biso   1.000  O
  C106     1.0000 0.79780  0.87270  0.25670  Biso   1.000  C
  C107     1.0000 0.76595  0.94220  0.20250  Biso   1.000  C
  H50      1.0000 0.73010  0.95540  0.21320  Biso   1.000  H
  C108     1.0000 0.78763  0.99230  0.13180  Biso   1.000  C
  C109     1.0000 0.84099  0.97100  0.11460  Biso   1.000  C
  H51      1.0000 0.85590  0.00720  0.06930  Biso   1.000  H
  C110     1.0000 0.87216  0.89590  0.16490  Biso   1.000  C
  C111     1.0000 0.85016  0.84820  0.23720  Biso   1.000  C
  H52      1.0000 0.87080  0.79960  0.27270  Biso   1.000  H
  C112     1.0000 0.92630  0.86370  0.13950  Biso   1.000  C
  C113     1.0000 0.94156  0.75910  0.14310  Biso   1.000  C
  H53      1.0000 0.91910  0.71030  0.16640  Biso   1.000  H
  C114     1.0000 0.99030  0.72740  0.11210  Biso   1.000  C
  H54      1.0000 0.00020  0.65760  0.11540  Biso   1.000  H
  C115     1.0000 0.02377  0.79790  0.07690  Biso   1.000  C
  C116     1.0000 0.01007  0.90150  0.07750  Biso   1.000  C
  H55      1.0000 0.03360  0.95050  0.05730  Biso   1.000  H
  C117     1.0000 0.96138  0.93440  0.10800  Biso   1.000  C
  H56      1.0000 0.95260  0.00470  0.10700  Biso   1.000  H
  C118     1.0000 0.77629  0.82230  0.33730  Biso   1.000  C
  C119     1.0000 0.75266  0.06760  0.07320  Biso   1.000  C
  C120     1.0000 0.07362  0.76410  0.03470  Biso   1.000  C
