data_image0
_cell_length_a       13.895
_cell_length_b       26.9
_cell_length_c       7.613
_cell_angle_alpha    90
_cell_angle_beta     90
_cell_angle_gamma    91.06

_symmetry_space_group_name_H-M    "P 1"
_symmetry_int_tables_number       1

loop_
  _symmetry_equiv_pos_as_xyz
  'x, y, z'

loop_
  _atom_site_label
  _atom_site_occupancy
  _atom_site_fract_x
  _atom_site_fract_y
  _atom_site_fract_z
  _atom_site_thermal_displace_type
  _atom_site_B_iso_or_equiv
  _atom_site_type_symbol
  Cd1      1.0000 0.26681  0.36989  0.38287  Biso   1.000  Cd
  Cd2      1.0000 0.19060  0.63635  0.37897  Biso   1.000  Cd
  Ni1      1.0000 0.19723  0.49967  0.87280  Biso   1.000  Ni
  Ni2      1.0000 0.99598  0.23630  0.26640  Biso   1.000  Ni
  N1       1.0000 0.22650  0.42210  0.14900  Biso   1.000  N
  N2       1.0000 0.21060  0.42270  0.58680  Biso   1.000  N
  N3       1.0000 0.13020  0.31940  0.38000  Biso   1.000  N
  N4       1.0000 0.33460  0.31620  0.61200  Biso   1.000  N
  N5       1.0000 0.32460  0.31170  0.17000  Biso   1.000  N
  N6       1.0000 0.43070  0.39070  0.34700  Biso   1.000  N
  N7       1.0000 0.20340  0.57520  0.16200  Biso   1.000  N
  N8       1.0000 0.18650  0.58160  0.60500  Biso   1.000  N
  N9       1.0000 0.85370  0.15840  0.14000  Biso   1.000  N
  N10      1.0000 0.83370  0.29380  0.42700  Biso   1.000  N
  N11      1.0000 0.16930  0.69290  0.14000  Biso   1.000  N
  N12      1.0000 0.02250  0.63430  0.32260  Biso   1.000  N
  C1       1.0000 0.21370  0.45090  0.04300  Biso   1.000  C
  C2       1.0000 0.20100  0.45200  0.69600  Biso   1.000  C
  C3       1.0000 0.07950  0.28780  0.33800  Biso   1.000  C
  C4       1.0000 0.40040  0.29720  0.67100  Biso   1.000  C
  C5       1.0000 0.19960  0.54700  0.05200  Biso   1.000  C
  C6       1.0000 0.18780  0.55070  0.70500  Biso   1.000  C
  C7       1.0000 0.90900  0.18730  0.18800  Biso   1.000  C
  C8       1.0000 0.89330  0.27140  0.36200  Biso   1.000  C
  C9       1.0000 0.42940  0.31660  0.16400  Biso   1.000  C
  C10      1.0000 0.47030  0.36270  0.20000  Biso   1.000  C
  C11      1.0000 0.58140  0.36590  0.18800  Biso   1.000  C
  C12      1.0000 0.06800  0.69610  0.10600  Biso   1.000  C
  C13      1.0000 0.99980  0.66930  0.18600  Biso   1.000  C
  C14      1.0000 0.89570  0.67490  0.14000  Biso   1.000  C
  Cd3      1.0000 0.23319  0.13011  0.88287  Biso   1.000  Cd
  Cd4      1.0000 0.30940  0.86365  0.87897  Biso   1.000  Cd
  Ni3      1.0000 0.30277  0.00033  0.37280  Biso   1.000  Ni
  Ni4      1.0000 0.50402  0.26370  0.76640  Biso   1.000  Ni
  N13      1.0000 0.27350  0.07790  0.64900  Biso   1.000  N
  N14      1.0000 0.28940  0.07730  0.08680  Biso   1.000  N
  N15      1.0000 0.36980  0.18060  0.88000  Biso   1.000  N
  N16      1.0000 0.16540  0.18380  0.11200  Biso   1.000  N
  N17      1.0000 0.17540  0.18830  0.67000  Biso   1.000  N
  N18      1.0000 0.06930  0.10930  0.84700  Biso   1.000  N
  N19      1.0000 0.29660  0.92480  0.66200  Biso   1.000  N
  N20      1.0000 0.31350  0.91840  0.10500  Biso   1.000  N
  N21      1.0000 0.64630  0.34160  0.64000  Biso   1.000  N
  N22      1.0000 0.66630  0.20620  0.92700  Biso   1.000  N
  N23      1.0000 0.33070  0.80710  0.64000  Biso   1.000  N
  N24      1.0000 0.47750  0.86570  0.82260  Biso   1.000  N
  C15      1.0000 0.28630  0.04910  0.54300  Biso   1.000  C
  C16      1.0000 0.29900  0.04800  0.19600  Biso   1.000  C
  C17      1.0000 0.42050  0.21220  0.83800  Biso   1.000  C
  C18      1.0000 0.09960  0.20280  0.17100  Biso   1.000  C
  C19      1.0000 0.30040  0.95300  0.55200  Biso   1.000  C
  C20      1.0000 0.31220  0.94930  0.20500  Biso   1.000  C
  C21      1.0000 0.59100  0.31270  0.68800  Biso   1.000  C
  C22      1.0000 0.60670  0.22860  0.86200  Biso   1.000  C
  C23      1.0000 0.07060  0.18340  0.66400  Biso   1.000  C
  C24      1.0000 0.02970  0.13730  0.70000  Biso   1.000  C
  C25      1.0000 0.91860  0.13410  0.68800  Biso   1.000  C
  C26      1.0000 0.43200  0.80390  0.60600  Biso   1.000  C
  C27      1.0000 0.50020  0.83070  0.68600  Biso   1.000  C
  C28      1.0000 0.60430  0.82510  0.64000  Biso   1.000  C
  Cd5      1.0000 0.73319  0.63011  0.61713  Biso   1.000  Cd
  Cd6      1.0000 0.80940  0.36365  0.62103  Biso   1.000  Cd
  Ni5      1.0000 0.80277  0.50033  0.12720  Biso   1.000  Ni
  Ni6      1.0000 0.00402  0.76370  0.73360  Biso   1.000  Ni
  N25      1.0000 0.77350  0.57790  0.85100  Biso   1.000  N
  N26      1.0000 0.78940  0.57730  0.41320  Biso   1.000  N
  N27      1.0000 0.86980  0.68060  0.62000  Biso   1.000  N
  N28      1.0000 0.66540  0.68380  0.38800  Biso   1.000  N
  N29      1.0000 0.67540  0.68830  0.83000  Biso   1.000  N
  N30      1.0000 0.56930  0.60930  0.65300  Biso   1.000  N
  N31      1.0000 0.79660  0.42480  0.83800  Biso   1.000  N
  N32      1.0000 0.81350  0.41840  0.39500  Biso   1.000  N
  N33      1.0000 0.14630  0.84160  0.86000  Biso   1.000  N
  N34      1.0000 0.16630  0.70620  0.57300  Biso   1.000  N
  N35      1.0000 0.83070  0.30710  0.86000  Biso   1.000  N
  N36      1.0000 0.97750  0.36570  0.67740  Biso   1.000  N
  C29      1.0000 0.78630  0.54910  0.95700  Biso   1.000  C
  C30      1.0000 0.79900  0.54800  0.30400  Biso   1.000  C
  C31      1.0000 0.92050  0.71220  0.66200  Biso   1.000  C
  C32      1.0000 0.59960  0.70280  0.32900  Biso   1.000  C
  C33      1.0000 0.80040  0.45300  0.94800  Biso   1.000  C
  C34      1.0000 0.81220  0.44930  0.29500  Biso   1.000  C
  C35      1.0000 0.09100  0.81270  0.81200  Biso   1.000  C
  C36      1.0000 0.10670  0.72860  0.63800  Biso   1.000  C
  C37      1.0000 0.57060  0.68340  0.83600  Biso   1.000  C
  C38      1.0000 0.52970  0.63730  0.80000  Biso   1.000  C
  C39      1.0000 0.41860  0.63410  0.81200  Biso   1.000  C
  C40      1.0000 0.93200  0.30390  0.89400  Biso   1.000  C
  C41      1.0000 0.00020  0.33070  0.81400  Biso   1.000  C
  C42      1.0000 0.10430  0.32510  0.86000  Biso   1.000  C
  Cd7      1.0000 0.76681  0.86989  0.11713  Biso   1.000  Cd
  Cd8      1.0000 0.69060  0.13635  0.12103  Biso   1.000  Cd
  Ni7      1.0000 0.69723  0.99967  0.62720  Biso   1.000  Ni
  Ni8      1.0000 0.49598  0.73630  0.23360  Biso   1.000  Ni
  N37      1.0000 0.72650  0.92210  0.35100  Biso   1.000  N
  N38      1.0000 0.71060  0.92270  0.91320  Biso   1.000  N
  N39      1.0000 0.63020  0.81940  0.12000  Biso   1.000  N
  N40      1.0000 0.83460  0.81620  0.88800  Biso   1.000  N
  N41      1.0000 0.82460  0.81170  0.33000  Biso   1.000  N
  N42      1.0000 0.93070  0.89070  0.15300  Biso   1.000  N
  N43      1.0000 0.70340  0.07520  0.33800  Biso   1.000  N
  N44      1.0000 0.68650  0.08160  0.89500  Biso   1.000  N
  N45      1.0000 0.35370  0.65840  0.36000  Biso   1.000  N
  N46      1.0000 0.33370  0.79380  0.07300  Biso   1.000  N
  N47      1.0000 0.66930  0.19290  0.36000  Biso   1.000  N
  N48      1.0000 0.52250  0.13430  0.17740  Biso   1.000  N
  C43      1.0000 0.71370  0.95090  0.45700  Biso   1.000  C
  C44      1.0000 0.70100  0.95200  0.80400  Biso   1.000  C
  C45      1.0000 0.57950  0.78780  0.16200  Biso   1.000  C
  C46      1.0000 0.90040  0.79720  0.82900  Biso   1.000  C
  C47      1.0000 0.69960  0.04700  0.44800  Biso   1.000  C
  C48      1.0000 0.68780  0.05070  0.79500  Biso   1.000  C
  C49      1.0000 0.40900  0.68730  0.31200  Biso   1.000  C
  C50      1.0000 0.39330  0.77140  0.13800  Biso   1.000  C
  C51      1.0000 0.92940  0.81660  0.33600  Biso   1.000  C
  C52      1.0000 0.97030  0.86270  0.30000  Biso   1.000  C
  C53      1.0000 0.08140  0.86590  0.31200  Biso   1.000  C
  C54      1.0000 0.56800  0.19610  0.39400  Biso   1.000  C
  C55      1.0000 0.49980  0.16930  0.31400  Biso   1.000  C
  C56      1.0000 0.39570  0.17490  0.36000  Biso   1.000  C
