data_NULMAJ_clean
_audit_creation_date              2014-07-02
_audit_creation_method            'Materials Studio'
_symmetry_space_group_name_H-M    'P1'
_symmetry_Int_Tables_number       1
_symmetry_cell_setting            triclinic
loop_
_symmetry_equiv_pos_as_xyz
  x,y,z
_cell_length_a                    15.9981
_cell_length_b                    15.9981
_cell_length_c                    16.5761
_cell_angle_alpha                 74.5333
_cell_angle_beta                  74.5330
_cell_angle_gamma                 116.5750
loop_
_atom_site_label
_atom_site_type_symbol
_atom_site_fract_x
_atom_site_fract_y
_atom_site_fract_z
_atom_site_U_iso_or_equiv
_atom_site_adp_type
_atom_site_occupancy
Ni1    Ni    0.50000   0.00000  -0.00000   0.01267  Uiso   1.00
Ni2    Ni    0.50000   0.50000   0.50000   0.01267  Uiso   1.00
Ni3    Ni    0.50000   0.00000   0.50000   0.01267  Uiso   1.00
Ni4    Ni    0.00000   0.00000   0.00000   0.01267  Uiso   1.00
Mo1    Mo    0.37500   0.12500   0.75000   0.01267  Uiso   1.00
Mo2    Mo    0.62500   0.87500   0.25000   0.01267  Uiso   1.00
H1     H     0.69630   0.21610   0.95600   0.01267  Uiso   1.00
H2     H     0.81790   0.33050   0.81240   0.01267  Uiso   1.00
H3     H     0.73730   0.33670   0.77860   0.01267  Uiso   1.00
H4     H     0.81650   0.48450   0.79820   0.01267  Uiso   1.00
H5     H     0.80790   0.42310   0.89420   0.01267  Uiso   1.00
H6     H     0.64760   0.43100   0.86300   0.01267  Uiso   1.00
H7     H     0.69120   0.46480   0.93120   0.01267  Uiso   1.00
H8     H     0.52740   0.30220   0.00820   0.01267  Uiso   1.00
H9     H     0.61260   0.29900   0.03540   0.01267  Uiso   1.00
H10    H     0.54310   0.22530   0.91960   0.01267  Uiso   1.00
H11    H     0.64120   0.14500   0.83720   0.01267  Uiso   1.00
H12    H     0.69470   0.12110   0.88900   0.01267  Uiso   1.00
H13    H     0.50400   0.10800   0.08980   0.01267  Uiso   1.00
H14    H     0.43010   0.10210   0.05220   0.01267  Uiso   1.00
H15    H     0.67210   0.65230   0.54400   0.01267  Uiso   1.00
H16    H     0.64290   0.63030   0.68760   0.01267  Uiso   1.00
H17    H     0.61530   0.51590   0.72140   0.01267  Uiso   1.00
H18    H     0.78270   0.61470   0.70180   0.01267  Uiso   1.00
H19    H     0.81730   0.70210   0.60580   0.01267  Uiso   1.00
H20    H     0.79400   0.51060   0.63700   0.01267  Uiso   1.00
H21    H     0.89600   0.62240   0.56880   0.01267  Uiso   1.00
H22    H     0.81040   0.53560   0.49180   0.01267  Uiso   1.00
H23    H     0.83440   0.64800   0.46460   0.01267  Uiso   1.00
H24    H     0.64490   0.46270   0.58040   0.01267  Uiso   1.00
H25    H     0.48220   0.47840   0.66280   0.01267  Uiso   1.00
H26    H     0.51010   0.58370   0.61100   0.01267  Uiso   1.00
H27    H     0.69780   0.59380   0.41020   0.01267  Uiso   1.00
H28    H     0.65430   0.48230   0.44780   0.01267  Uiso   1.00
H29    H     0.28390   0.80370   0.54400   0.01267  Uiso   1.00
H30    H     0.16950   0.68210   0.68760   0.01267  Uiso   1.00
H31    H     0.16330   0.76270   0.72140   0.01267  Uiso   1.00
H32    H     0.01550   0.68350   0.70180   0.01267  Uiso   1.00
H33    H     0.07690   0.69210   0.60580   0.01267  Uiso   1.00
H34    H     0.06900   0.85240   0.63700   0.01267  Uiso   1.00
H35    H     0.03520   0.80880   0.56880   0.01267  Uiso   1.00
H36    H     0.19780   0.97260   0.49180   0.01267  Uiso   1.00
H37    H     0.20100   0.88740   0.46460   0.01267  Uiso   1.00
H38    H     0.27470   0.95690   0.58040   0.01267  Uiso   1.00
H39    H     0.35500   0.85880   0.66280   0.01267  Uiso   1.00
H40    H     0.37890   0.80530   0.61100   0.01267  Uiso   1.00
H41    H     0.39200   0.99600   0.41020   0.01267  Uiso   1.00
H42    H     0.39790   0.06990   0.44780   0.01267  Uiso   1.00
H43    H     0.84770   0.82790   0.95600   0.01267  Uiso   1.00
H44    H     0.86970   0.85710   0.81240   0.01267  Uiso   1.00
H45    H     0.98410   0.88470   0.77860   0.01267  Uiso   1.00
H46    H     0.88530   0.71730   0.79820   0.01267  Uiso   1.00
H47    H     0.79790   0.68270   0.89420   0.01267  Uiso   1.00
H48    H     0.98940   0.70600   0.86300   0.01267  Uiso   1.00
H49    H     0.87760   0.60400   0.93120   0.01267  Uiso   1.00
H50    H     0.96440   0.68960   0.00820   0.01267  Uiso   1.00
H51    H     0.85200   0.66560   0.03540   0.01267  Uiso   1.00
H52    H     0.03730   0.85510   0.91960   0.01267  Uiso   1.00
H53    H     0.02160   0.01780   0.83720   0.01267  Uiso   1.00
H54    H     0.91630   0.98990   0.88900   0.01267  Uiso   1.00
H55    H     0.90620   0.80220   0.08980   0.01267  Uiso   1.00
H56    H     0.01770   0.84570   0.05220   0.01267  Uiso   1.00
H57    H     0.30370   0.78390   0.04400   0.01267  Uiso   1.00
H58    H     0.18210   0.66950   0.18760   0.01267  Uiso   1.00
H59    H     0.26270   0.66330   0.22140   0.01267  Uiso   1.00
H60    H     0.18350   0.51550   0.20180   0.01267  Uiso   1.00
H61    H     0.19210   0.57690   0.10580   0.01267  Uiso   1.00
H62    H     0.35240   0.56900   0.13700   0.01267  Uiso   1.00
H63    H     0.30880   0.53520   0.06880   0.01267  Uiso   1.00
H64    H     0.47260   0.69780   0.99180   0.01267  Uiso   1.00
H65    H     0.38740   0.70100   0.96460   0.01267  Uiso   1.00
H66    H     0.45690   0.77470   0.08040   0.01267  Uiso   1.00
H67    H     0.35880   0.85500   0.16280   0.01267  Uiso   1.00
H68    H     0.30530   0.87890   0.11100   0.01267  Uiso   1.00
H69    H     0.49600   0.89200   0.91020   0.01267  Uiso   1.00
H70    H     0.56990   0.89790   0.94780   0.01267  Uiso   1.00
H71    H     0.32790   0.34770   0.45600   0.01267  Uiso   1.00
H72    H     0.35710   0.36970   0.31240   0.01267  Uiso   1.00
H73    H     0.38470   0.48410   0.27860   0.01267  Uiso   1.00
H74    H     0.21730   0.38530   0.29820   0.01267  Uiso   1.00
H75    H     0.18270   0.29790   0.39420   0.01267  Uiso   1.00
H76    H     0.20600   0.48940   0.36300   0.01267  Uiso   1.00
H77    H     0.10400   0.37760   0.43120   0.01267  Uiso   1.00
H78    H     0.18960   0.46440   0.50820   0.01267  Uiso   1.00
H79    H     0.16560   0.35200   0.53540   0.01267  Uiso   1.00
H80    H     0.35510   0.53730   0.41960   0.01267  Uiso   1.00
H81    H     0.51780   0.52160   0.33720   0.01267  Uiso   1.00
H82    H     0.48990   0.41630   0.38900   0.01267  Uiso   1.00
H83    H     0.30220   0.40620   0.58980   0.01267  Uiso   1.00
H84    H     0.34570   0.51770   0.55220   0.01267  Uiso   1.00
H85    H     0.71610   0.19630   0.45600   0.01267  Uiso   1.00
H86    H     0.83050   0.31790   0.31240   0.01267  Uiso   1.00
H87    H     0.83670   0.23730   0.27860   0.01267  Uiso   1.00
H88    H     0.98450   0.31650   0.29820   0.01267  Uiso   1.00
H89    H     0.92310   0.30790   0.39420   0.01267  Uiso   1.00
H90    H     0.93100   0.14760   0.36300   0.01267  Uiso   1.00
H91    H     0.96480   0.19120   0.43120   0.01267  Uiso   1.00
H92    H     0.80220   0.02740   0.50820   0.01267  Uiso   1.00
H93    H     0.79900   0.11260   0.53540   0.01267  Uiso   1.00
H94    H     0.72530   0.04310   0.41960   0.01267  Uiso   1.00
H95    H     0.64500   0.14120   0.33720   0.01267  Uiso   1.00
H96    H     0.62110   0.19470   0.38900   0.01267  Uiso   1.00
H97    H     0.60800   0.00400   0.58980   0.01267  Uiso   1.00
H98    H     0.60210   0.93010   0.55220   0.01267  Uiso   1.00
H99    H     0.15230   0.17210   0.04400   0.01267  Uiso   1.00
H100   H     0.13030   0.14290   0.18760   0.01267  Uiso   1.00
H101   H     0.01590   0.11530   0.22140   0.01267  Uiso   1.00
H102   H     0.11470   0.28270   0.20180   0.01267  Uiso   1.00
H103   H     0.20210   0.31730   0.10580   0.01267  Uiso   1.00
H104   H     0.01060   0.29400   0.13700   0.01267  Uiso   1.00
H105   H     0.12240   0.39600   0.06880   0.01267  Uiso   1.00
H106   H     0.03560   0.31040   0.99180   0.01267  Uiso   1.00
H107   H     0.14800   0.33440   0.96460   0.01267  Uiso   1.00
H108   H     0.96270   0.14490   0.08040   0.01267  Uiso   1.00
H109   H     0.97840   0.98220   0.16280   0.01267  Uiso   1.00
H110   H     0.08370   0.01010   0.11100   0.01267  Uiso   1.00
H111   H     0.09380   0.19780   0.91020   0.01267  Uiso   1.00
H112   H     0.98230   0.15430   0.94780   0.01267  Uiso   1.00
C1     C     0.40757   0.05821   0.85772   0.01267  Uiso   1.00
C2     C     0.27968   0.95548   0.80800   0.01267  Uiso   1.00
C3     C     0.66780   0.22394   0.91106   0.01267  Uiso   1.00
C4     C     0.75375   0.32807   0.83124   0.01267  Uiso   1.00
C5     C     0.77127   0.41985   0.85588   0.01267  Uiso   1.00
C6     C     0.67434   0.41406   0.90640   0.01267  Uiso   1.00
C7     C     0.59253   0.30675   0.98492   0.01267  Uiso   1.00
C8     C     0.57233   0.21823   0.96404   0.01267  Uiso   1.00
C9     C     0.41593   0.26529   0.64228   0.01267  Uiso   1.00
C10    C     0.26348   0.08768   0.69200   0.01267  Uiso   1.00
C11    C     0.63500   0.57886   0.58894   0.01267  Uiso   1.00
C12    C     0.65931   0.58499   0.66876   0.01267  Uiso   1.00
C13    C     0.77573   0.62715   0.64412   0.01267  Uiso   1.00
C14    C     0.82046   0.58074   0.59360   0.01267  Uiso   1.00
C15    C     0.79167   0.57745   0.51508   0.01267  Uiso   1.00
C16    C     0.68227   0.53637   0.53596   0.01267  Uiso   1.00
C17    C     0.44179   0.09243   0.64228   0.01267  Uiso   1.00
C18    C     0.54452   0.22032   0.69200   0.01267  Uiso   1.00
C19    C     0.27606   0.83220   0.58894   0.01267  Uiso   1.00
C20    C     0.17193   0.74625   0.66876   0.01267  Uiso   1.00
C21    C     0.08015   0.72873   0.64412   0.01267  Uiso   1.00
C22    C     0.08594   0.82566   0.59360   0.01267  Uiso   1.00
C23    C     0.19325   0.90747   0.51508   0.01267  Uiso   1.00
C24    C     0.28177   0.92767   0.53596   0.01267  Uiso   1.00
C25    C     0.23471   0.08407   0.85772   0.01267  Uiso   1.00
C26    C     0.41232   0.23652   0.80800   0.01267  Uiso   1.00
C27    C     0.92114   0.86500   0.91106   0.01267  Uiso   1.00
C28    C     0.91501   0.84069   0.83124   0.01267  Uiso   1.00
C29    C     0.87285   0.72427   0.85588   0.01267  Uiso   1.00
C30    C     0.91926   0.67954   0.90640   0.01267  Uiso   1.00
C31    C     0.92255   0.70833   0.98492   0.01267  Uiso   1.00
C32    C     0.96363   0.81773   0.96404   0.01267  Uiso   1.00
C33    C     0.59243   0.94179   0.14228   0.01267  Uiso   1.00
C34    C     0.72032   0.04452   0.19200   0.01267  Uiso   1.00
C35    C     0.33220   0.77606   0.08894   0.01267  Uiso   1.00
C36    C     0.24625   0.67193   0.16876   0.01267  Uiso   1.00
C37    C     0.22873   0.58015   0.14412   0.01267  Uiso   1.00
C38    C     0.32566   0.58594   0.09360   0.01267  Uiso   1.00
C39    C     0.40747   0.69325   0.01508   0.01267  Uiso   1.00
C40    C     0.42767   0.78177   0.03596   0.01267  Uiso   1.00
C41    C     0.58407   0.73471   0.35772   0.01267  Uiso   1.00
C42    C     0.73652   0.91232   0.30800   0.01267  Uiso   1.00
C43    C     0.36500   0.42114   0.41106   0.01267  Uiso   1.00
C44    C     0.34069   0.41501   0.33124   0.01267  Uiso   1.00
C45    C     0.22427   0.37285   0.35588   0.01267  Uiso   1.00
C46    C     0.17954   0.41926   0.40640   0.01267  Uiso   1.00
C47    C     0.20833   0.42255   0.48492   0.01267  Uiso   1.00
C48    C     0.31773   0.46363   0.46404   0.01267  Uiso   1.00
C49    C     0.55821   0.90757   0.35772   0.01267  Uiso   1.00
C50    C     0.45548   0.77968   0.30800   0.01267  Uiso   1.00
C51    C     0.72394   0.16780   0.41106   0.01267  Uiso   1.00
C52    C     0.82807   0.25375   0.33124   0.01267  Uiso   1.00
C53    C     0.91985   0.27127   0.35588   0.01267  Uiso   1.00
C54    C     0.91406   0.17434   0.40640   0.01267  Uiso   1.00
C55    C     0.80675   0.09253   0.48492   0.01267  Uiso   1.00
C56    C     0.71823   0.07233   0.46404   0.01267  Uiso   1.00
C57    C     0.76529   0.91593   0.14228   0.01267  Uiso   1.00
C58    C     0.58768   0.76348   0.19200   0.01267  Uiso   1.00
C59    C     0.07886   0.13500   0.08894   0.01267  Uiso   1.00
C60    C     0.08499   0.15931   0.16876   0.01267  Uiso   1.00
C61    C     0.12715   0.27573   0.14412   0.01267  Uiso   1.00
C62    C     0.08074   0.32046   0.09360   0.01267  Uiso   1.00
C63    C     0.07745   0.29167   0.01508   0.01267  Uiso   1.00
C64    C     0.03637   0.18227   0.03596   0.01267  Uiso   1.00
N1     N     0.42839   0.02577   0.91384   0.01267  Uiso   1.00
N2     N     0.23562   0.86892   0.83868   0.01267  Uiso   1.00
N3     N     0.64398   0.13246   0.89232   0.01267  Uiso   1.00
N4     N     0.49396   0.11374   0.03828   0.01267  Uiso   1.00
N5     N     0.43961   0.34223   0.58616   0.01267  Uiso   1.00
N6     N     0.20760   0.07430   0.66132   0.01267  Uiso   1.00
N7     N     0.52478   0.53630   0.60768   0.01267  Uiso   1.00
N8     N     0.65202   0.53224   0.46172   0.01267  Uiso   1.00
N9     N     0.47423   0.07161   0.58616   0.01267  Uiso   1.00
N10    N     0.63108   0.26438   0.66132   0.01267  Uiso   1.00
N11    N     0.36754   0.85602   0.60768   0.01267  Uiso   1.00
N12    N     0.38626   0.00604   0.46172   0.01267  Uiso   1.00
N13    N     0.15777   0.06039   0.91384   0.01267  Uiso   1.00
N14    N     0.42570   0.29240   0.83868   0.01267  Uiso   1.00
N15    N     0.96370   0.97522   0.89232   0.01267  Uiso   1.00
N16    N     0.96776   0.84798   0.03828   0.01267  Uiso   1.00
N17    N     0.57161   0.97423   0.08616   0.01267  Uiso   1.00
N18    N     0.76438   0.13108   0.16132   0.01267  Uiso   1.00
N19    N     0.35602   0.86754   0.10768   0.01267  Uiso   1.00
N20    N     0.50604   0.88626   0.96172   0.01267  Uiso   1.00
N21    N     0.56039   0.65777   0.41384   0.01267  Uiso   1.00
N22    N     0.79240   0.92570   0.33868   0.01267  Uiso   1.00
N23    N     0.47522   0.46370   0.39232   0.01267  Uiso   1.00
N24    N     0.34798   0.46776   0.53828   0.01267  Uiso   1.00
N25    N     0.52577   0.92839   0.41384   0.01267  Uiso   1.00
N26    N     0.36892   0.73562   0.33868   0.01267  Uiso   1.00
N27    N     0.63246   0.14398   0.39232   0.01267  Uiso   1.00
N28    N     0.61374   0.99396   0.53828   0.01267  Uiso   1.00
N29    N     0.84223   0.93961   0.08616   0.01267  Uiso   1.00
N30    N     0.57430   0.70760   0.16132   0.01267  Uiso   1.00
N31    N     0.03630   0.02478   0.10768   0.01267  Uiso   1.00
N32    N     0.03224   0.15202   0.96172   0.01267  Uiso   1.00
