data_image0
_cell_length_a       11.1813
_cell_length_b       11.1813
_cell_length_c       31.552
_cell_angle_alpha    90
_cell_angle_beta     90
_cell_angle_gamma    90

_symmetry_space_group_name_H-M    "P 1"
_symmetry_int_tables_number       1

loop_
  _symmetry_equiv_pos_as_xyz
  'x, y, z'

loop_
  _atom_site_label
  _atom_site_occupancy
  _atom_site_fract_x
  _atom_site_fract_y
  _atom_site_fract_z
  _atom_site_thermal_displace_type
  _atom_site_B_iso_or_equiv
  _atom_site_type_symbol
  C1       1.0000 0.08804  0.86952  0.65144  Biso   1.000  C
  C2       1.0000 0.10120  0.95329  0.61925  Biso   1.000  C
  H1       1.0000 0.17560  0.98800  0.61460  Biso   1.000  H
  C3       1.0000 0.00444  0.98601  0.59386  Biso   1.000  C
  C4       1.0000 0.89318  0.93447  0.60082  Biso   1.000  C
  H2       1.0000 0.82780  0.95750  0.58460  Biso   1.000  H
  C5       1.0000 0.87993  0.84763  0.63244  Biso   1.000  C
  C6       1.0000 0.97692  0.81608  0.65762  Biso   1.000  C
  H3       1.0000 0.96750  0.75890  0.67880  Biso   1.000  H
  C7       1.0000 0.19298  0.84175  0.68010  Biso   1.000  C
  C8       1.0000 0.02493  0.07796  0.55959  Biso   1.000  C
  C9       1.0000 0.75935  0.79186  0.63906  Biso   1.000  C
  O1       1.0000 0.17961  0.75733  0.70607  Biso   1.000  O
  O2       1.0000 0.28413  0.90650  0.67608  Biso   1.000  O
  O3       1.0000 0.12936  0.08488  0.54518  Biso   1.000  O
  O4       1.0000 0.93786  0.14247  0.54787  Biso   1.000  O
  O5       1.0000 0.67146  0.81857  0.61893  Biso   1.000  O
  O6       1.0000 0.76090  0.71043  0.66939  Biso   1.000  O
  H4       1.0000 0.68600  0.68300  0.67650  Biso   1.000  H
  C10      1.0000 0.91196  0.13048  0.15144  Biso   1.000  C
  C11      1.0000 0.89880  0.04671  0.11925  Biso   1.000  C
  H5       1.0000 0.82440  0.01200  0.11460  Biso   1.000  H
  C12      1.0000 0.99556  0.01399  0.09386  Biso   1.000  C
  C13      1.0000 0.10682  0.06553  0.10082  Biso   1.000  C
  H6       1.0000 0.17220  0.04250  0.08460  Biso   1.000  H
  C14      1.0000 0.12007  0.15237  0.13244  Biso   1.000  C
  C15      1.0000 0.02308  0.18392  0.15762  Biso   1.000  C
  H7       1.0000 0.03250  0.24110  0.17880  Biso   1.000  H
  C16      1.0000 0.80702  0.15825  0.18010  Biso   1.000  C
  C17      1.0000 0.97507  0.92204  0.05959  Biso   1.000  C
  C18      1.0000 0.24065  0.20814  0.13906  Biso   1.000  C
  O7       1.0000 0.82039  0.24267  0.20607  Biso   1.000  O
  O8       1.0000 0.71587  0.09350  0.17608  Biso   1.000  O
  O9       1.0000 0.87064  0.91512  0.04518  Biso   1.000  O
  O10      1.0000 0.06214  0.85753  0.04787  Biso   1.000  O
  O11      1.0000 0.32854  0.18143  0.11893  Biso   1.000  O
  O12      1.0000 0.23910  0.28957  0.16939  Biso   1.000  O
  H8       1.0000 0.31400  0.31700  0.17650  Biso   1.000  H
  C19      1.0000 0.63048  0.58804  0.90144  Biso   1.000  C
  C20      1.0000 0.54671  0.60120  0.86925  Biso   1.000  C
  H9       1.0000 0.51200  0.67560  0.86460  Biso   1.000  H
  C21      1.0000 0.51399  0.50444  0.84386  Biso   1.000  C
  C22      1.0000 0.56553  0.39318  0.85082  Biso   1.000  C
  H10      1.0000 0.54250  0.32780  0.83460  Biso   1.000  H
  C23      1.0000 0.65237  0.37993  0.88244  Biso   1.000  C
  C24      1.0000 0.68392  0.47692  0.90762  Biso   1.000  C
  H11      1.0000 0.74110  0.46750  0.92880  Biso   1.000  H
  C25      1.0000 0.65825  0.69298  0.93010  Biso   1.000  C
  C26      1.0000 0.42204  0.52493  0.80959  Biso   1.000  C
  C27      1.0000 0.70814  0.25935  0.88906  Biso   1.000  C
  O13      1.0000 0.74267  0.67961  0.95607  Biso   1.000  O
  O14      1.0000 0.59350  0.78413  0.92608  Biso   1.000  O
  O15      1.0000 0.41512  0.62936  0.79518  Biso   1.000  O
  O16      1.0000 0.35753  0.43786  0.79787  Biso   1.000  O
  O17      1.0000 0.68143  0.17146  0.86893  Biso   1.000  O
  O18      1.0000 0.78957  0.26090  0.91939  Biso   1.000  O
  H12      1.0000 0.81700  0.18600  0.92650  Biso   1.000  H
  C28      1.0000 0.36952  0.41196  0.40144  Biso   1.000  C
  C29      1.0000 0.45329  0.39880  0.36925  Biso   1.000  C
  H13      1.0000 0.48800  0.32440  0.36460  Biso   1.000  H
  C30      1.0000 0.48601  0.49556  0.34386  Biso   1.000  C
  C31      1.0000 0.43447  0.60682  0.35082  Biso   1.000  C
  H14      1.0000 0.45750  0.67220  0.33460  Biso   1.000  H
  C32      1.0000 0.34763  0.62007  0.38244  Biso   1.000  C
  C33      1.0000 0.31608  0.52308  0.40762  Biso   1.000  C
  H15      1.0000 0.25890  0.53250  0.42880  Biso   1.000  H
  C34      1.0000 0.34175  0.30702  0.43010  Biso   1.000  C
  C35      1.0000 0.57796  0.47507  0.30959  Biso   1.000  C
  C36      1.0000 0.29186  0.74065  0.38906  Biso   1.000  C
  O19      1.0000 0.25733  0.32039  0.45607  Biso   1.000  O
  O20      1.0000 0.40650  0.21587  0.42608  Biso   1.000  O
  O21      1.0000 0.58488  0.37064  0.29518  Biso   1.000  O
  O22      1.0000 0.64247  0.56214  0.29787  Biso   1.000  O
  O23      1.0000 0.31857  0.82854  0.36893  Biso   1.000  O
  O24      1.0000 0.21043  0.73910  0.41939  Biso   1.000  O
  H16      1.0000 0.18300  0.81400  0.42650  Biso   1.000  H
  C37      1.0000 0.41196  0.36952  0.59856  Biso   1.000  C
  C38      1.0000 0.39880  0.45329  0.63075  Biso   1.000  C
  H17      1.0000 0.32440  0.48800  0.63540  Biso   1.000  H
  C39      1.0000 0.49556  0.48601  0.65614  Biso   1.000  C
  C40      1.0000 0.60682  0.43447  0.64918  Biso   1.000  C
  H18      1.0000 0.67220  0.45750  0.66540  Biso   1.000  H
  C41      1.0000 0.62007  0.34763  0.61756  Biso   1.000  C
  C42      1.0000 0.52308  0.31608  0.59238  Biso   1.000  C
  H19      1.0000 0.53250  0.25890  0.57120  Biso   1.000  H
  C43      1.0000 0.30702  0.34175  0.56990  Biso   1.000  C
  C44      1.0000 0.47507  0.57796  0.69041  Biso   1.000  C
  C45      1.0000 0.74065  0.29186  0.61094  Biso   1.000  C
  O25      1.0000 0.32039  0.25733  0.54393  Biso   1.000  O
  O26      1.0000 0.21587  0.40650  0.57392  Biso   1.000  O
  O27      1.0000 0.37064  0.58488  0.70482  Biso   1.000  O
  O28      1.0000 0.56214  0.64247  0.70213  Biso   1.000  O
  O29      1.0000 0.82854  0.31857  0.63107  Biso   1.000  O
  O30      1.0000 0.73910  0.21043  0.58061  Biso   1.000  O
  H20      1.0000 0.81400  0.18300  0.57350  Biso   1.000  H
  C46      1.0000 0.58804  0.63048  0.09856  Biso   1.000  C
  C47      1.0000 0.60120  0.54671  0.13075  Biso   1.000  C
  H21      1.0000 0.67560  0.51200  0.13540  Biso   1.000  H
  C48      1.0000 0.50444  0.51399  0.15614  Biso   1.000  C
  C49      1.0000 0.39318  0.56553  0.14918  Biso   1.000  C
  H22      1.0000 0.32780  0.54250  0.16540  Biso   1.000  H
  C50      1.0000 0.37993  0.65237  0.11756  Biso   1.000  C
  C51      1.0000 0.47692  0.68392  0.09238  Biso   1.000  C
  H23      1.0000 0.46750  0.74110  0.07120  Biso   1.000  H
  C52      1.0000 0.69298  0.65825  0.06990  Biso   1.000  C
  C53      1.0000 0.52493  0.42204  0.19041  Biso   1.000  C
  C54      1.0000 0.25935  0.70814  0.11094  Biso   1.000  C
  O31      1.0000 0.67961  0.74267  0.04393  Biso   1.000  O
  O32      1.0000 0.78413  0.59350  0.07392  Biso   1.000  O
  O33      1.0000 0.62936  0.41512  0.20482  Biso   1.000  O
  O34      1.0000 0.43786  0.35753  0.20213  Biso   1.000  O
  O35      1.0000 0.17146  0.68143  0.13107  Biso   1.000  O
  O36      1.0000 0.26090  0.78957  0.08061  Biso   1.000  O
  H24      1.0000 0.18600  0.81700  0.07350  Biso   1.000  H
  C55      1.0000 0.86952  0.08804  0.34856  Biso   1.000  C
  C56      1.0000 0.95329  0.10120  0.38075  Biso   1.000  C
  H25      1.0000 0.98800  0.17560  0.38540  Biso   1.000  H
  C57      1.0000 0.98601  0.00444  0.40614  Biso   1.000  C
  C58      1.0000 0.93447  0.89318  0.39918  Biso   1.000  C
  H26      1.0000 0.95750  0.82780  0.41540  Biso   1.000  H
  C59      1.0000 0.84763  0.87993  0.36756  Biso   1.000  C
  C60      1.0000 0.81608  0.97692  0.34238  Biso   1.000  C
  H27      1.0000 0.75890  0.96750  0.32120  Biso   1.000  H
  C61      1.0000 0.84175  0.19298  0.31990  Biso   1.000  C
  C62      1.0000 0.07796  0.02493  0.44041  Biso   1.000  C
  C63      1.0000 0.79186  0.75935  0.36094  Biso   1.000  C
  O37      1.0000 0.75733  0.17961  0.29393  Biso   1.000  O
  O38      1.0000 0.90650  0.28413  0.32392  Biso   1.000  O
  O39      1.0000 0.08488  0.12936  0.45482  Biso   1.000  O
  O40      1.0000 0.14247  0.93786  0.45213  Biso   1.000  O
  O41      1.0000 0.81857  0.67146  0.38107  Biso   1.000  O
  O42      1.0000 0.71043  0.76090  0.33061  Biso   1.000  O
  H28      1.0000 0.68300  0.68600  0.32350  Biso   1.000  H
  C64      1.0000 0.13048  0.91196  0.84856  Biso   1.000  C
  C65      1.0000 0.04671  0.89880  0.88075  Biso   1.000  C
  H29      1.0000 0.01200  0.82440  0.88540  Biso   1.000  H
  C66      1.0000 0.01399  0.99556  0.90614  Biso   1.000  C
  C67      1.0000 0.06553  0.10682  0.89918  Biso   1.000  C
  H30      1.0000 0.04250  0.17220  0.91540  Biso   1.000  H
  C68      1.0000 0.15237  0.12007  0.86756  Biso   1.000  C
  C69      1.0000 0.18392  0.02308  0.84238  Biso   1.000  C
  H31      1.0000 0.24110  0.03250  0.82120  Biso   1.000  H
  C70      1.0000 0.15825  0.80702  0.81990  Biso   1.000  C
  C71      1.0000 0.92204  0.97507  0.94041  Biso   1.000  C
  C72      1.0000 0.20814  0.24065  0.86094  Biso   1.000  C
  O43      1.0000 0.24267  0.82039  0.79393  Biso   1.000  O
  O44      1.0000 0.09350  0.71587  0.82392  Biso   1.000  O
  O45      1.0000 0.91512  0.87064  0.95482  Biso   1.000  O
  O46      1.0000 0.85753  0.06214  0.95213  Biso   1.000  O
  O47      1.0000 0.18143  0.32854  0.88107  Biso   1.000  O
  O48      1.0000 0.28957  0.23910  0.83061  Biso   1.000  O
  H32      1.0000 0.31700  0.31400  0.82350  Biso   1.000  H
  Ni1      1.0000 0.30051  0.69949  0.75000  Biso   1.000  Ni
  Ni2      1.0000 0.69949  0.30051  0.25000  Biso   1.000  Ni
  Ni3      1.0000 0.80051  0.80051  0.00000  Biso   1.000  Ni
  Ni4      1.0000 0.19949  0.19949  0.50000  Biso   1.000  Ni
