data_image0
_cell_length_a       11.1918
_cell_length_b       11.1918
_cell_length_c       31.561
_cell_angle_alpha    90
_cell_angle_beta     90
_cell_angle_gamma    90

_symmetry_space_group_name_H-M    "P 1"
_symmetry_int_tables_number       1

loop_
  _symmetry_equiv_pos_as_xyz
  'x, y, z'

loop_
  _atom_site_label
  _atom_site_occupancy
  _atom_site_fract_x
  _atom_site_fract_y
  _atom_site_fract_z
  _atom_site_thermal_displace_type
  _atom_site_B_iso_or_equiv
  _atom_site_type_symbol
  O1       1.0000 0.09362  0.71579  0.17613  Biso   1.000  O
  O2       1.0000 0.24233  0.82061  0.20618  Biso   1.000  O
  O3       1.0000 0.85711  0.06167  0.04810  Biso   1.000  O
  O4       1.0000 0.91525  0.87059  0.04521  Biso   1.000  O
  O5       1.0000 0.28920  0.23950  0.16936  Biso   1.000  O
  O6       1.0000 0.18000  0.32798  0.11923  Biso   1.000  O
  C1       1.0000 0.04640  0.89850  0.11942  Biso   1.000  C
  H1       1.0000 0.01190  0.82410  0.11470  Biso   1.000  H
  C2       1.0000 0.01350  0.99500  0.09400  Biso   1.000  C
  C3       1.0000 0.06460  0.10680  0.10104  Biso   1.000  C
  H2       1.0000 0.04120  0.17230  0.08490  Biso   1.000  H
  C4       1.0000 0.15160  0.11990  0.13271  Biso   1.000  C
  C5       1.0000 0.18320  0.02230  0.15775  Biso   1.000  C
  H3       1.0000 0.24070  0.03150  0.17880  Biso   1.000  H
  C6       1.0000 0.13010  0.91190  0.15172  Biso   1.000  C
  C7       1.0000 0.92230  0.97510  0.05977  Biso   1.000  C
  C8       1.0000 0.20700  0.24090  0.13934  Biso   1.000  C
  C9       1.0000 0.15800  0.80710  0.18004  Biso   1.000  C
  O7       1.0000 0.90638  0.28421  0.67613  Biso   1.000  O
  O8       1.0000 0.75767  0.17939  0.70618  Biso   1.000  O
  O9       1.0000 0.14289  0.93833  0.54810  Biso   1.000  O
  O10      1.0000 0.08475  0.12941  0.54521  Biso   1.000  O
  O11      1.0000 0.71080  0.76050  0.66936  Biso   1.000  O
  O12      1.0000 0.82000  0.67202  0.61923  Biso   1.000  O
  C10      1.0000 0.95360  0.10150  0.61942  Biso   1.000  C
  H4       1.0000 0.98810  0.17590  0.61470  Biso   1.000  H
  C11      1.0000 0.98650  0.00500  0.59400  Biso   1.000  C
  C12      1.0000 0.93540  0.89320  0.60104  Biso   1.000  C
  H5       1.0000 0.95880  0.82770  0.58490  Biso   1.000  H
  C13      1.0000 0.84840  0.88010  0.63271  Biso   1.000  C
  C14      1.0000 0.81680  0.97770  0.65775  Biso   1.000  C
  H6       1.0000 0.75930  0.96850  0.67880  Biso   1.000  H
  C15      1.0000 0.86990  0.08810  0.65172  Biso   1.000  C
  C16      1.0000 0.07770  0.02490  0.55977  Biso   1.000  C
  C17      1.0000 0.79300  0.75910  0.63934  Biso   1.000  C
  C18      1.0000 0.84200  0.19290  0.68004  Biso   1.000  C
  O13      1.0000 0.78421  0.59362  0.92613  Biso   1.000  O
  O14      1.0000 0.67939  0.74233  0.95618  Biso   1.000  O
  O15      1.0000 0.43833  0.35711  0.79810  Biso   1.000  O
  O16      1.0000 0.62941  0.41525  0.79521  Biso   1.000  O
  O17      1.0000 0.26050  0.78920  0.91936  Biso   1.000  O
  O18      1.0000 0.17202  0.68000  0.86923  Biso   1.000  O
  C19      1.0000 0.60150  0.54640  0.86942  Biso   1.000  C
  H7       1.0000 0.67590  0.51190  0.86470  Biso   1.000  H
  C20      1.0000 0.50500  0.51350  0.84400  Biso   1.000  C
  C21      1.0000 0.39320  0.56460  0.85104  Biso   1.000  C
  H8       1.0000 0.32770  0.54120  0.83490  Biso   1.000  H
  C22      1.0000 0.38010  0.65160  0.88271  Biso   1.000  C
  C23      1.0000 0.47770  0.68320  0.90775  Biso   1.000  C
  H9       1.0000 0.46850  0.74070  0.92880  Biso   1.000  H
  C24      1.0000 0.58810  0.63010  0.90172  Biso   1.000  C
  C25      1.0000 0.52490  0.42230  0.80977  Biso   1.000  C
  C26      1.0000 0.25910  0.70700  0.88934  Biso   1.000  C
  C27      1.0000 0.69290  0.65800  0.93004  Biso   1.000  C
  O19      1.0000 0.21579  0.40638  0.42613  Biso   1.000  O
  O20      1.0000 0.32061  0.25767  0.45618  Biso   1.000  O
  O21      1.0000 0.56167  0.64289  0.29810  Biso   1.000  O
  O22      1.0000 0.37059  0.58475  0.29521  Biso   1.000  O
  O23      1.0000 0.73950  0.21080  0.41936  Biso   1.000  O
  O24      1.0000 0.82798  0.32000  0.36923  Biso   1.000  O
  C28      1.0000 0.39850  0.45360  0.36942  Biso   1.000  C
  H10      1.0000 0.32410  0.48810  0.36470  Biso   1.000  H
  C29      1.0000 0.49500  0.48650  0.34400  Biso   1.000  C
  C30      1.0000 0.60680  0.43540  0.35104  Biso   1.000  C
  H11      1.0000 0.67230  0.45880  0.33490  Biso   1.000  H
  C31      1.0000 0.61990  0.34840  0.38271  Biso   1.000  C
  C32      1.0000 0.52230  0.31680  0.40775  Biso   1.000  C
  H12      1.0000 0.53150  0.25930  0.42880  Biso   1.000  H
  C33      1.0000 0.41190  0.36990  0.40172  Biso   1.000  C
  C34      1.0000 0.47510  0.57770  0.30977  Biso   1.000  C
  C35      1.0000 0.74090  0.29300  0.38934  Biso   1.000  C
  C36      1.0000 0.30710  0.34200  0.43004  Biso   1.000  C
  O25      1.0000 0.40638  0.21579  0.57387  Biso   1.000  O
  O26      1.0000 0.25767  0.32061  0.54382  Biso   1.000  O
  O27      1.0000 0.64289  0.56167  0.70190  Biso   1.000  O
  O28      1.0000 0.58475  0.37059  0.70479  Biso   1.000  O
  O29      1.0000 0.21080  0.73950  0.58064  Biso   1.000  O
  O30      1.0000 0.32000  0.82798  0.63077  Biso   1.000  O
  C37      1.0000 0.45360  0.39850  0.63058  Biso   1.000  C
  H13      1.0000 0.48810  0.32410  0.63530  Biso   1.000  H
  C38      1.0000 0.48650  0.49500  0.65600  Biso   1.000  C
  C39      1.0000 0.43540  0.60680  0.64896  Biso   1.000  C
  H14      1.0000 0.45880  0.67230  0.66510  Biso   1.000  H
  C40      1.0000 0.34840  0.61990  0.61729  Biso   1.000  C
  C41      1.0000 0.31680  0.52230  0.59225  Biso   1.000  C
  H15      1.0000 0.25930  0.53150  0.57120  Biso   1.000  H
  C42      1.0000 0.36990  0.41190  0.59828  Biso   1.000  C
  C43      1.0000 0.57770  0.47510  0.69023  Biso   1.000  C
  C44      1.0000 0.29300  0.74090  0.61066  Biso   1.000  C
  C45      1.0000 0.34200  0.30710  0.56996  Biso   1.000  C
  O31      1.0000 0.59362  0.78421  0.07387  Biso   1.000  O
  O32      1.0000 0.74233  0.67939  0.04382  Biso   1.000  O
  O33      1.0000 0.35711  0.43833  0.20190  Biso   1.000  O
  O34      1.0000 0.41525  0.62941  0.20479  Biso   1.000  O
  O35      1.0000 0.78920  0.26050  0.08064  Biso   1.000  O
  O36      1.0000 0.68000  0.17202  0.13077  Biso   1.000  O
  C46      1.0000 0.54640  0.60150  0.13058  Biso   1.000  C
  H16      1.0000 0.51190  0.67590  0.13530  Biso   1.000  H
  C47      1.0000 0.51350  0.50500  0.15600  Biso   1.000  C
  C48      1.0000 0.56460  0.39320  0.14896  Biso   1.000  C
  H17      1.0000 0.54120  0.32770  0.16510  Biso   1.000  H
  C49      1.0000 0.65160  0.38010  0.11729  Biso   1.000  C
  C50      1.0000 0.68320  0.47770  0.09225  Biso   1.000  C
  H18      1.0000 0.74070  0.46850  0.07120  Biso   1.000  H
  C51      1.0000 0.63010  0.58810  0.09828  Biso   1.000  C
  C52      1.0000 0.42230  0.52490  0.19023  Biso   1.000  C
  C53      1.0000 0.70700  0.25910  0.11066  Biso   1.000  C
  C54      1.0000 0.65800  0.69290  0.06996  Biso   1.000  C
  O37      1.0000 0.71579  0.09362  0.82387  Biso   1.000  O
  O38      1.0000 0.82061  0.24233  0.79382  Biso   1.000  O
  O39      1.0000 0.06167  0.85711  0.95190  Biso   1.000  O
  O40      1.0000 0.87059  0.91525  0.95479  Biso   1.000  O
  O41      1.0000 0.23950  0.28920  0.83064  Biso   1.000  O
  O42      1.0000 0.32798  0.18000  0.88077  Biso   1.000  O
  C55      1.0000 0.89850  0.04640  0.88058  Biso   1.000  C
  H19      1.0000 0.82410  0.01190  0.88530  Biso   1.000  H
  C56      1.0000 0.99500  0.01350  0.90600  Biso   1.000  C
  C57      1.0000 0.10680  0.06460  0.89896  Biso   1.000  C
  H20      1.0000 0.17230  0.04120  0.91510  Biso   1.000  H
  C58      1.0000 0.11990  0.15160  0.86729  Biso   1.000  C
  C59      1.0000 0.02230  0.18320  0.84225  Biso   1.000  C
  H21      1.0000 0.03150  0.24070  0.82120  Biso   1.000  H
  C60      1.0000 0.91190  0.13010  0.84828  Biso   1.000  C
  C61      1.0000 0.97510  0.92230  0.94023  Biso   1.000  C
  C62      1.0000 0.24090  0.20700  0.86066  Biso   1.000  C
  C63      1.0000 0.80710  0.15800  0.81996  Biso   1.000  C
  O43      1.0000 0.28421  0.90638  0.32387  Biso   1.000  O
  O44      1.0000 0.17939  0.75767  0.29382  Biso   1.000  O
  O45      1.0000 0.93833  0.14289  0.45190  Biso   1.000  O
  O46      1.0000 0.12941  0.08475  0.45479  Biso   1.000  O
  O47      1.0000 0.76050  0.71080  0.33064  Biso   1.000  O
  O48      1.0000 0.67202  0.82000  0.38077  Biso   1.000  O
  C64      1.0000 0.10150  0.95360  0.38058  Biso   1.000  C
  H22      1.0000 0.17590  0.98810  0.38530  Biso   1.000  H
  C65      1.0000 0.00500  0.98650  0.40600  Biso   1.000  C
  C66      1.0000 0.89320  0.93540  0.39896  Biso   1.000  C
  H23      1.0000 0.82770  0.95880  0.41510  Biso   1.000  H
  C67      1.0000 0.88010  0.84840  0.36729  Biso   1.000  C
  C68      1.0000 0.97770  0.81680  0.34225  Biso   1.000  C
  H24      1.0000 0.96850  0.75930  0.32120  Biso   1.000  H
  C69      1.0000 0.08810  0.86990  0.34828  Biso   1.000  C
  C70      1.0000 0.02490  0.07770  0.44023  Biso   1.000  C
  C71      1.0000 0.75910  0.79300  0.36066  Biso   1.000  C
  C72      1.0000 0.19290  0.84200  0.31996  Biso   1.000  C
  Ni1      1.0000 0.80066  0.80066  0.00000  Biso   1.000  Ni
  Ni2      1.0000 0.19934  0.19934  0.50000  Biso   1.000  Ni
  Ni3      1.0000 0.69934  0.30066  0.75000  Biso   1.000  Ni
  Ni4      1.0000 0.30066  0.69934  0.25000  Biso   1.000  Ni
