data_image0
_cell_length_a       8.6068
_cell_length_b       24.6534
_cell_length_c       35.7404
_cell_angle_alpha    90
_cell_angle_beta     90
_cell_angle_gamma    90

_symmetry_space_group_name_H-M    "P 1"
_symmetry_int_tables_number       1

loop_
  _symmetry_equiv_pos_as_xyz
  'x, y, z'

loop_
  _atom_site_label
  _atom_site_occupancy
  _atom_site_fract_x
  _atom_site_fract_y
  _atom_site_fract_z
  _atom_site_thermal_displace_type
  _atom_site_B_iso_or_equiv
  _atom_site_type_symbol
  N1       1.0000 0.57740  0.32750  0.26150  Biso   1.000  N
  N2       1.0000 0.80930  0.18550  0.17883  Biso   1.000  N
  H1       1.0000 0.75630  0.20760  0.16430  Biso   1.000  H
  C1       1.0000 0.62750  0.28120  0.27810  Biso   1.000  C
  H2       1.0000 0.58960  0.27260  0.30170  Biso   1.000  H
  C2       1.0000 0.73290  0.24600  0.26140  Biso   1.000  C
  H3       1.0000 0.76480  0.21480  0.27390  Biso   1.000  H
  C3       1.0000 0.78940  0.25740  0.22660  Biso   1.000  C
  C4       1.0000 0.74170  0.30440  0.21010  Biso   1.000  C
  H4       1.0000 0.77890  0.31380  0.18650  Biso   1.000  H
  C5       1.0000 0.63920  0.33770  0.22820  Biso   1.000  C
  H5       1.0000 0.61070  0.36970  0.21630  Biso   1.000  H
  C6       1.0000 0.89850  0.21960  0.20590  Biso   1.000  C
  H6       1.0000 0.97600  0.24060  0.19260  Biso   1.000  H
  H7       1.0000 0.95170  0.19640  0.22370  Biso   1.000  H
  C7       1.0000 0.91850  0.15490  0.15470  Biso   1.000  C
  H8       1.0000 0.97710  0.12910  0.16950  Biso   1.000  H
  H9       1.0000 0.99110  0.17950  0.14280  Biso   1.000  H
  H10      1.0000 0.75610  0.09890  0.13750  Biso   1.000  H
  N3       1.0000 0.57740  0.82750  0.76150  Biso   1.000  N
  N4       1.0000 0.80930  0.68550  0.67883  Biso   1.000  N
  H11      1.0000 0.75630  0.70760  0.66430  Biso   1.000  H
  C8       1.0000 0.62750  0.78120  0.77810  Biso   1.000  C
  H12      1.0000 0.58960  0.77260  0.80170  Biso   1.000  H
  C9       1.0000 0.73290  0.74600  0.76140  Biso   1.000  C
  H13      1.0000 0.76480  0.71480  0.77390  Biso   1.000  H
  C10      1.0000 0.78940  0.75740  0.72660  Biso   1.000  C
  C11      1.0000 0.74170  0.80440  0.71010  Biso   1.000  C
  H14      1.0000 0.77890  0.81380  0.68650  Biso   1.000  H
  C12      1.0000 0.63920  0.83770  0.72820  Biso   1.000  C
  H15      1.0000 0.61070  0.86970  0.71630  Biso   1.000  H
  C13      1.0000 0.89850  0.71960  0.70590  Biso   1.000  C
  H16      1.0000 0.97600  0.74060  0.69260  Biso   1.000  H
  H17      1.0000 0.95170  0.69640  0.72370  Biso   1.000  H
  C14      1.0000 0.91850  0.65490  0.65470  Biso   1.000  C
  H18      1.0000 0.97710  0.62910  0.66950  Biso   1.000  H
  H19      1.0000 0.99110  0.67950  0.64280  Biso   1.000  H
  H20      1.0000 0.75610  0.59890  0.63750  Biso   1.000  H
  N5       1.0000 0.07740  0.32750  0.76150  Biso   1.000  N
  N6       1.0000 0.30930  0.18550  0.67883  Biso   1.000  N
  H21      1.0000 0.25630  0.20760  0.66430  Biso   1.000  H
  C15      1.0000 0.12750  0.28120  0.77810  Biso   1.000  C
  H22      1.0000 0.08960  0.27260  0.80170  Biso   1.000  H
  C16      1.0000 0.23290  0.24600  0.76140  Biso   1.000  C
  H23      1.0000 0.26480  0.21480  0.77390  Biso   1.000  H
  C17      1.0000 0.28940  0.25740  0.72660  Biso   1.000  C
  C18      1.0000 0.24170  0.30440  0.71010  Biso   1.000  C
  H24      1.0000 0.27890  0.31380  0.68650  Biso   1.000  H
  C19      1.0000 0.13920  0.33770  0.72820  Biso   1.000  C
  H25      1.0000 0.11070  0.36970  0.71630  Biso   1.000  H
  C20      1.0000 0.39850  0.21960  0.70590  Biso   1.000  C
  H26      1.0000 0.47600  0.24060  0.69260  Biso   1.000  H
  H27      1.0000 0.45170  0.19640  0.72370  Biso   1.000  H
  C21      1.0000 0.41850  0.15490  0.65470  Biso   1.000  C
  H28      1.0000 0.47710  0.12910  0.66950  Biso   1.000  H
  H29      1.0000 0.49110  0.17950  0.64280  Biso   1.000  H
  H30      1.0000 0.25610  0.09890  0.63750  Biso   1.000  H
  N7       1.0000 0.07740  0.82750  0.26150  Biso   1.000  N
  N8       1.0000 0.30930  0.68550  0.17883  Biso   1.000  N
  H31      1.0000 0.25630  0.70760  0.16430  Biso   1.000  H
  C22      1.0000 0.12750  0.78120  0.27810  Biso   1.000  C
  H32      1.0000 0.08960  0.77260  0.30170  Biso   1.000  H
  C23      1.0000 0.23290  0.74600  0.26140  Biso   1.000  C
  H33      1.0000 0.26480  0.71480  0.27390  Biso   1.000  H
  C24      1.0000 0.28940  0.75740  0.22660  Biso   1.000  C
  C25      1.0000 0.24170  0.80440  0.21010  Biso   1.000  C
  H34      1.0000 0.27890  0.81380  0.18650  Biso   1.000  H
  C26      1.0000 0.13920  0.83770  0.22820  Biso   1.000  C
  H35      1.0000 0.11070  0.86970  0.21630  Biso   1.000  H
  C27      1.0000 0.39850  0.71960  0.20590  Biso   1.000  C
  H36      1.0000 0.47600  0.74060  0.19260  Biso   1.000  H
  H37      1.0000 0.45170  0.69640  0.22370  Biso   1.000  H
  C28      1.0000 0.41850  0.65490  0.15470  Biso   1.000  C
  H38      1.0000 0.47710  0.62910  0.16950  Biso   1.000  H
  H39      1.0000 0.49110  0.67950  0.14280  Biso   1.000  H
  H40      1.0000 0.25610  0.59890  0.13750  Biso   1.000  H
  N9       1.0000 0.17260  0.42250  0.26150  Biso   1.000  N
  N10      1.0000 0.94070  0.56450  0.17883  Biso   1.000  N
  H41      1.0000 0.99370  0.54240  0.16430  Biso   1.000  H
  C29      1.0000 0.12250  0.46880  0.27810  Biso   1.000  C
  H42      1.0000 0.16040  0.47740  0.30170  Biso   1.000  H
  C30      1.0000 0.01710  0.50400  0.26140  Biso   1.000  C
  H43      1.0000 0.98520  0.53520  0.27390  Biso   1.000  H
  C31      1.0000 0.96060  0.49260  0.22660  Biso   1.000  C
  C32      1.0000 0.00830  0.44560  0.21010  Biso   1.000  C
  H44      1.0000 0.97110  0.43620  0.18650  Biso   1.000  H
  C33      1.0000 0.11080  0.41230  0.22820  Biso   1.000  C
  H45      1.0000 0.13930  0.38030  0.21630  Biso   1.000  H
  C34      1.0000 0.85150  0.53040  0.20590  Biso   1.000  C
  H46      1.0000 0.77400  0.50940  0.19260  Biso   1.000  H
  H47      1.0000 0.79830  0.55360  0.22370  Biso   1.000  H
  C35      1.0000 0.83150  0.59510  0.15470  Biso   1.000  C
  H48      1.0000 0.77290  0.62090  0.16950  Biso   1.000  H
  H49      1.0000 0.75890  0.57050  0.14280  Biso   1.000  H
  H50      1.0000 0.99390  0.65110  0.13750  Biso   1.000  H
  N11      1.0000 0.17260  0.92250  0.76150  Biso   1.000  N
  N12      1.0000 0.94070  0.06450  0.67883  Biso   1.000  N
  H51      1.0000 0.99370  0.04240  0.66430  Biso   1.000  H
  C36      1.0000 0.12250  0.96880  0.77810  Biso   1.000  C
  H52      1.0000 0.16040  0.97740  0.80170  Biso   1.000  H
  C37      1.0000 0.01710  0.00400  0.76140  Biso   1.000  C
  H53      1.0000 0.98520  0.03520  0.77390  Biso   1.000  H
  C38      1.0000 0.96060  0.99260  0.72660  Biso   1.000  C
  C39      1.0000 0.00830  0.94560  0.71010  Biso   1.000  C
  H54      1.0000 0.97110  0.93620  0.68650  Biso   1.000  H
  C40      1.0000 0.11080  0.91230  0.72820  Biso   1.000  C
  H55      1.0000 0.13930  0.88030  0.71630  Biso   1.000  H
  C41      1.0000 0.85150  0.03040  0.70590  Biso   1.000  C
  H56      1.0000 0.77400  0.00940  0.69260  Biso   1.000  H
  H57      1.0000 0.79830  0.05360  0.72370  Biso   1.000  H
  C42      1.0000 0.83150  0.09510  0.65470  Biso   1.000  C
  H58      1.0000 0.77290  0.12090  0.66950  Biso   1.000  H
  H59      1.0000 0.75890  0.07050  0.64280  Biso   1.000  H
  H60      1.0000 0.99390  0.15110  0.63750  Biso   1.000  H
  N13      1.0000 0.67260  0.42250  0.76150  Biso   1.000  N
  N14      1.0000 0.44070  0.56450  0.67883  Biso   1.000  N
  H61      1.0000 0.49370  0.54240  0.66430  Biso   1.000  H
  C43      1.0000 0.62250  0.46880  0.77810  Biso   1.000  C
  H62      1.0000 0.66040  0.47740  0.80170  Biso   1.000  H
  C44      1.0000 0.51710  0.50400  0.76140  Biso   1.000  C
  H63      1.0000 0.48520  0.53520  0.77390  Biso   1.000  H
  C45      1.0000 0.46060  0.49260  0.72660  Biso   1.000  C
  C46      1.0000 0.50830  0.44560  0.71010  Biso   1.000  C
  H64      1.0000 0.47110  0.43620  0.68650  Biso   1.000  H
  C47      1.0000 0.61080  0.41230  0.72820  Biso   1.000  C
  H65      1.0000 0.63930  0.38030  0.71630  Biso   1.000  H
  C48      1.0000 0.35150  0.53040  0.70590  Biso   1.000  C
  H66      1.0000 0.27400  0.50940  0.69260  Biso   1.000  H
  H67      1.0000 0.29830  0.55360  0.72370  Biso   1.000  H
  C49      1.0000 0.33150  0.59510  0.65470  Biso   1.000  C
  H68      1.0000 0.27290  0.62090  0.66950  Biso   1.000  H
  H69      1.0000 0.25890  0.57050  0.64280  Biso   1.000  H
  H70      1.0000 0.49390  0.65110  0.63750  Biso   1.000  H
  N15      1.0000 0.67260  0.92250  0.26150  Biso   1.000  N
  N16      1.0000 0.44070  0.06450  0.17883  Biso   1.000  N
  H71      1.0000 0.49370  0.04240  0.16430  Biso   1.000  H
  C50      1.0000 0.62250  0.96880  0.27810  Biso   1.000  C
  H72      1.0000 0.66040  0.97740  0.30170  Biso   1.000  H
  C51      1.0000 0.51710  0.00400  0.26140  Biso   1.000  C
  H73      1.0000 0.48520  0.03520  0.27390  Biso   1.000  H
  C52      1.0000 0.46060  0.99260  0.22660  Biso   1.000  C
  C53      1.0000 0.50830  0.94560  0.21010  Biso   1.000  C
  H74      1.0000 0.47110  0.93620  0.18650  Biso   1.000  H
  C54      1.0000 0.61080  0.91230  0.22820  Biso   1.000  C
  H75      1.0000 0.63930  0.88030  0.21630  Biso   1.000  H
  C55      1.0000 0.35150  0.03040  0.20590  Biso   1.000  C
  H76      1.0000 0.27400  0.00940  0.19260  Biso   1.000  H
  H77      1.0000 0.29830  0.05360  0.22370  Biso   1.000  H
  C56      1.0000 0.33150  0.09510  0.15470  Biso   1.000  C
  H78      1.0000 0.27290  0.12090  0.16950  Biso   1.000  H
  H79      1.0000 0.25890  0.07050  0.14280  Biso   1.000  H
  H80      1.0000 0.49390  0.15110  0.13750  Biso   1.000  H
  N17      1.0000 0.17260  0.32750  0.48850  Biso   1.000  N
  N18      1.0000 0.94070  0.18550  0.57117  Biso   1.000  N
  H81      1.0000 0.99370  0.20760  0.58570  Biso   1.000  H
  C57      1.0000 0.12250  0.28120  0.47190  Biso   1.000  C
  H82      1.0000 0.16040  0.27260  0.44830  Biso   1.000  H
  C58      1.0000 0.01710  0.24600  0.48860  Biso   1.000  C
  H83      1.0000 0.98520  0.21480  0.47610  Biso   1.000  H
  C59      1.0000 0.96060  0.25740  0.52340  Biso   1.000  C
  C60      1.0000 0.00830  0.30440  0.53990  Biso   1.000  C
  H84      1.0000 0.97110  0.31380  0.56350  Biso   1.000  H
  C61      1.0000 0.11080  0.33770  0.52180  Biso   1.000  C
  H85      1.0000 0.13930  0.36970  0.53370  Biso   1.000  H
  C62      1.0000 0.85150  0.21960  0.54410  Biso   1.000  C
  H86      1.0000 0.77400  0.24060  0.55740  Biso   1.000  H
  H87      1.0000 0.79830  0.19640  0.52630  Biso   1.000  H
  C63      1.0000 0.83150  0.15490  0.59530  Biso   1.000  C
  H88      1.0000 0.77290  0.12910  0.58050  Biso   1.000  H
  H89      1.0000 0.75890  0.17950  0.60720  Biso   1.000  H
  H90      1.0000 0.99390  0.09890  0.61250  Biso   1.000  H
  N19      1.0000 0.17260  0.82750  0.98850  Biso   1.000  N
  N20      1.0000 0.94070  0.68550  0.07117  Biso   1.000  N
  H91      1.0000 0.99370  0.70760  0.08570  Biso   1.000  H
  C64      1.0000 0.12250  0.78120  0.97190  Biso   1.000  C
  H92      1.0000 0.16040  0.77260  0.94830  Biso   1.000  H
  C65      1.0000 0.01710  0.74600  0.98860  Biso   1.000  C
  H93      1.0000 0.98520  0.71480  0.97610  Biso   1.000  H
  C66      1.0000 0.96060  0.75740  0.02340  Biso   1.000  C
  C67      1.0000 0.00830  0.80440  0.03990  Biso   1.000  C
  H94      1.0000 0.97110  0.81380  0.06350  Biso   1.000  H
  C68      1.0000 0.11080  0.83770  0.02180  Biso   1.000  C
  H95      1.0000 0.13930  0.86970  0.03370  Biso   1.000  H
  C69      1.0000 0.85150  0.71960  0.04410  Biso   1.000  C
  H96      1.0000 0.77400  0.74060  0.05740  Biso   1.000  H
  H97      1.0000 0.79830  0.69640  0.02630  Biso   1.000  H
  C70      1.0000 0.83150  0.65490  0.09530  Biso   1.000  C
  H98      1.0000 0.77290  0.62910  0.08050  Biso   1.000  H
  H99      1.0000 0.75890  0.67950  0.10720  Biso   1.000  H
  H100     1.0000 0.99390  0.59890  0.11250  Biso   1.000  H
  N21      1.0000 0.67260  0.32750  0.98850  Biso   1.000  N
  N22      1.0000 0.44070  0.18550  0.07117  Biso   1.000  N
  H101     1.0000 0.49370  0.20760  0.08570  Biso   1.000  H
  C71      1.0000 0.62250  0.28120  0.97190  Biso   1.000  C
  H102     1.0000 0.66040  0.27260  0.94830  Biso   1.000  H
  C72      1.0000 0.51710  0.24600  0.98860  Biso   1.000  C
  H103     1.0000 0.48520  0.21480  0.97610  Biso   1.000  H
  C73      1.0000 0.46060  0.25740  0.02340  Biso   1.000  C
  C74      1.0000 0.50830  0.30440  0.03990  Biso   1.000  C
  H104     1.0000 0.47110  0.31380  0.06350  Biso   1.000  H
  C75      1.0000 0.61080  0.33770  0.02180  Biso   1.000  C
  H105     1.0000 0.63930  0.36970  0.03370  Biso   1.000  H
  C76      1.0000 0.35150  0.21960  0.04410  Biso   1.000  C
  H106     1.0000 0.27400  0.24060  0.05740  Biso   1.000  H
  H107     1.0000 0.29830  0.19640  0.02630  Biso   1.000  H
  C77      1.0000 0.33150  0.15490  0.09530  Biso   1.000  C
  H108     1.0000 0.27290  0.12910  0.08050  Biso   1.000  H
  H109     1.0000 0.25890  0.17950  0.10720  Biso   1.000  H
  H110     1.0000 0.49390  0.09890  0.11250  Biso   1.000  H
  N23      1.0000 0.67260  0.82750  0.48850  Biso   1.000  N
  N24      1.0000 0.44070  0.68550  0.57117  Biso   1.000  N
  H111     1.0000 0.49370  0.70760  0.58570  Biso   1.000  H
  C78      1.0000 0.62250  0.78120  0.47190  Biso   1.000  C
  H112     1.0000 0.66040  0.77260  0.44830  Biso   1.000  H
  C79      1.0000 0.51710  0.74600  0.48860  Biso   1.000  C
  H113     1.0000 0.48520  0.71480  0.47610  Biso   1.000  H
  C80      1.0000 0.46060  0.75740  0.52340  Biso   1.000  C
  C81      1.0000 0.50830  0.80440  0.53990  Biso   1.000  C
  H114     1.0000 0.47110  0.81380  0.56350  Biso   1.000  H
  C82      1.0000 0.61080  0.83770  0.52180  Biso   1.000  C
  H115     1.0000 0.63930  0.86970  0.53370  Biso   1.000  H
  C83      1.0000 0.35150  0.71960  0.54410  Biso   1.000  C
  H116     1.0000 0.27400  0.74060  0.55740  Biso   1.000  H
  H117     1.0000 0.29830  0.69640  0.52630  Biso   1.000  H
  C84      1.0000 0.33150  0.65490  0.59530  Biso   1.000  C
  H118     1.0000 0.27290  0.62910  0.58050  Biso   1.000  H
  H119     1.0000 0.25890  0.67950  0.60720  Biso   1.000  H
  H120     1.0000 0.49390  0.59890  0.61250  Biso   1.000  H
  N25      1.0000 0.57740  0.42250  0.48850  Biso   1.000  N
  N26      1.0000 0.80930  0.56450  0.57117  Biso   1.000  N
  H121     1.0000 0.75630  0.54240  0.58570  Biso   1.000  H
  C85      1.0000 0.62750  0.46880  0.47190  Biso   1.000  C
  H122     1.0000 0.58960  0.47740  0.44830  Biso   1.000  H
  C86      1.0000 0.73290  0.50400  0.48860  Biso   1.000  C
  H123     1.0000 0.76480  0.53520  0.47610  Biso   1.000  H
  C87      1.0000 0.78940  0.49260  0.52340  Biso   1.000  C
  C88      1.0000 0.74170  0.44560  0.53990  Biso   1.000  C
  H124     1.0000 0.77890  0.43620  0.56350  Biso   1.000  H
  C89      1.0000 0.63920  0.41230  0.52180  Biso   1.000  C
  H125     1.0000 0.61070  0.38030  0.53370  Biso   1.000  H
  C90      1.0000 0.89850  0.53040  0.54410  Biso   1.000  C
  H126     1.0000 0.97600  0.50940  0.55740  Biso   1.000  H
  H127     1.0000 0.95170  0.55360  0.52630  Biso   1.000  H
  C91      1.0000 0.91850  0.59510  0.59530  Biso   1.000  C
  H128     1.0000 0.97710  0.62090  0.58050  Biso   1.000  H
  H129     1.0000 0.99110  0.57050  0.60720  Biso   1.000  H
  H130     1.0000 0.75610  0.65110  0.61250  Biso   1.000  H
  N27      1.0000 0.57740  0.92250  0.98850  Biso   1.000  N
  N28      1.0000 0.80930  0.06450  0.07117  Biso   1.000  N
  H131     1.0000 0.75630  0.04240  0.08570  Biso   1.000  H
  C92      1.0000 0.62750  0.96880  0.97190  Biso   1.000  C
  H132     1.0000 0.58960  0.97740  0.94830  Biso   1.000  H
  C93      1.0000 0.73290  0.00400  0.98860  Biso   1.000  C
  H133     1.0000 0.76480  0.03520  0.97610  Biso   1.000  H
  C94      1.0000 0.78940  0.99260  0.02340  Biso   1.000  C
  C95      1.0000 0.74170  0.94560  0.03990  Biso   1.000  C
  H134     1.0000 0.77890  0.93620  0.06350  Biso   1.000  H
  C96      1.0000 0.63920  0.91230  0.02180  Biso   1.000  C
  H135     1.0000 0.61070  0.88030  0.03370  Biso   1.000  H
  C97      1.0000 0.89850  0.03040  0.04410  Biso   1.000  C
  H136     1.0000 0.97600  0.00940  0.05740  Biso   1.000  H
  H137     1.0000 0.95170  0.05360  0.02630  Biso   1.000  H
  C98      1.0000 0.91850  0.09510  0.09530  Biso   1.000  C
  H138     1.0000 0.97710  0.12090  0.08050  Biso   1.000  H
  H139     1.0000 0.99110  0.07050  0.10720  Biso   1.000  H
  H140     1.0000 0.75610  0.15110  0.11250  Biso   1.000  H
  N29      1.0000 0.07740  0.42250  0.98850  Biso   1.000  N
  N30      1.0000 0.30930  0.56450  0.07117  Biso   1.000  N
  H141     1.0000 0.25630  0.54240  0.08570  Biso   1.000  H
  C99      1.0000 0.12750  0.46880  0.97190  Biso   1.000  C
  H142     1.0000 0.08960  0.47740  0.94830  Biso   1.000  H
  C100     1.0000 0.23290  0.50400  0.98860  Biso   1.000  C
  H143     1.0000 0.26480  0.53520  0.97610  Biso   1.000  H
  C101     1.0000 0.28940  0.49260  0.02340  Biso   1.000  C
  C102     1.0000 0.24170  0.44560  0.03990  Biso   1.000  C
  H144     1.0000 0.27890  0.43620  0.06350  Biso   1.000  H
  C103     1.0000 0.13920  0.41230  0.02180  Biso   1.000  C
  H145     1.0000 0.11070  0.38030  0.03370  Biso   1.000  H
  C104     1.0000 0.39850  0.53040  0.04410  Biso   1.000  C
  H146     1.0000 0.47600  0.50940  0.05740  Biso   1.000  H
  H147     1.0000 0.45170  0.55360  0.02630  Biso   1.000  H
  C105     1.0000 0.41850  0.59510  0.09530  Biso   1.000  C
  H148     1.0000 0.47710  0.62090  0.08050  Biso   1.000  H
  H149     1.0000 0.49110  0.57050  0.10720  Biso   1.000  H
  H150     1.0000 0.25610  0.65110  0.11250  Biso   1.000  H
  N31      1.0000 0.07740  0.92250  0.48850  Biso   1.000  N
  N32      1.0000 0.30930  0.06450  0.57117  Biso   1.000  N
  H151     1.0000 0.25630  0.04240  0.58570  Biso   1.000  H
  C106     1.0000 0.12750  0.96880  0.47190  Biso   1.000  C
  H152     1.0000 0.08960  0.97740  0.44830  Biso   1.000  H
  C107     1.0000 0.23290  0.00400  0.48860  Biso   1.000  C
  H153     1.0000 0.26480  0.03520  0.47610  Biso   1.000  H
  C108     1.0000 0.28940  0.99260  0.52340  Biso   1.000  C
  C109     1.0000 0.24170  0.94560  0.53990  Biso   1.000  C
  H154     1.0000 0.27890  0.93620  0.56350  Biso   1.000  H
  C110     1.0000 0.13920  0.91230  0.52180  Biso   1.000  C
  H155     1.0000 0.11070  0.88030  0.53370  Biso   1.000  H
  C111     1.0000 0.39850  0.03040  0.54410  Biso   1.000  C
  H156     1.0000 0.47600  0.00940  0.55740  Biso   1.000  H
  H157     1.0000 0.45170  0.05360  0.52630  Biso   1.000  H
  C112     1.0000 0.41850  0.09510  0.59530  Biso   1.000  C
  H158     1.0000 0.47710  0.12090  0.58050  Biso   1.000  H
  H159     1.0000 0.49110  0.07050  0.60720  Biso   1.000  H
  H160     1.0000 0.25610  0.15110  0.61250  Biso   1.000  H
  N33      1.0000 0.42260  0.67250  0.73850  Biso   1.000  N
  N34      1.0000 0.19070  0.81450  0.82117  Biso   1.000  N
  H161     1.0000 0.24370  0.79240  0.83570  Biso   1.000  H
  C113     1.0000 0.37250  0.71880  0.72190  Biso   1.000  C
  H162     1.0000 0.41040  0.72740  0.69830  Biso   1.000  H
  C114     1.0000 0.26710  0.75400  0.73860  Biso   1.000  C
  H163     1.0000 0.23520  0.78520  0.72610  Biso   1.000  H
  C115     1.0000 0.21060  0.74260  0.77340  Biso   1.000  C
  C116     1.0000 0.25830  0.69560  0.78990  Biso   1.000  C
  H164     1.0000 0.22110  0.68620  0.81350  Biso   1.000  H
  C117     1.0000 0.36080  0.66230  0.77180  Biso   1.000  C
  H165     1.0000 0.38930  0.63030  0.78370  Biso   1.000  H
  C118     1.0000 0.10150  0.78040  0.79410  Biso   1.000  C
  H166     1.0000 0.02400  0.75940  0.80740  Biso   1.000  H
  H167     1.0000 0.04830  0.80360  0.77630  Biso   1.000  H
  C119     1.0000 0.08150  0.84510  0.84530  Biso   1.000  C
  H168     1.0000 0.02290  0.87090  0.83050  Biso   1.000  H
  H169     1.0000 0.00890  0.82050  0.85720  Biso   1.000  H
  H170     1.0000 0.24390  0.90110  0.86250  Biso   1.000  H
  N35      1.0000 0.42260  0.17250  0.23850  Biso   1.000  N
  N36      1.0000 0.19070  0.31450  0.32117  Biso   1.000  N
  H171     1.0000 0.24370  0.29240  0.33570  Biso   1.000  H
  C120     1.0000 0.37250  0.21880  0.22190  Biso   1.000  C
  H172     1.0000 0.41040  0.22740  0.19830  Biso   1.000  H
  C121     1.0000 0.26710  0.25400  0.23860  Biso   1.000  C
  H173     1.0000 0.23520  0.28520  0.22610  Biso   1.000  H
  C122     1.0000 0.21060  0.24260  0.27340  Biso   1.000  C
  C123     1.0000 0.25830  0.19560  0.28990  Biso   1.000  C
  H174     1.0000 0.22110  0.18620  0.31350  Biso   1.000  H
  C124     1.0000 0.36080  0.16230  0.27180  Biso   1.000  C
  H175     1.0000 0.38930  0.13030  0.28370  Biso   1.000  H
  C125     1.0000 0.10150  0.28040  0.29410  Biso   1.000  C
  H176     1.0000 0.02400  0.25940  0.30740  Biso   1.000  H
  H177     1.0000 0.04830  0.30360  0.27630  Biso   1.000  H
  C126     1.0000 0.08150  0.34510  0.34530  Biso   1.000  C
  H178     1.0000 0.02290  0.37090  0.33050  Biso   1.000  H
  H179     1.0000 0.00890  0.32050  0.35720  Biso   1.000  H
  H180     1.0000 0.24390  0.40110  0.36250  Biso   1.000  H
  N37      1.0000 0.92260  0.67250  0.23850  Biso   1.000  N
  N38      1.0000 0.69070  0.81450  0.32117  Biso   1.000  N
  H181     1.0000 0.74370  0.79240  0.33570  Biso   1.000  H
  C127     1.0000 0.87250  0.71880  0.22190  Biso   1.000  C
  H182     1.0000 0.91040  0.72740  0.19830  Biso   1.000  H
  C128     1.0000 0.76710  0.75400  0.23860  Biso   1.000  C
  H183     1.0000 0.73520  0.78520  0.22610  Biso   1.000  H
  C129     1.0000 0.71060  0.74260  0.27340  Biso   1.000  C
  C130     1.0000 0.75830  0.69560  0.28990  Biso   1.000  C
  H184     1.0000 0.72110  0.68620  0.31350  Biso   1.000  H
  C131     1.0000 0.86080  0.66230  0.27180  Biso   1.000  C
  H185     1.0000 0.88930  0.63030  0.28370  Biso   1.000  H
  C132     1.0000 0.60150  0.78040  0.29410  Biso   1.000  C
  H186     1.0000 0.52400  0.75940  0.30740  Biso   1.000  H
  H187     1.0000 0.54830  0.80360  0.27630  Biso   1.000  H
  C133     1.0000 0.58150  0.84510  0.34530  Biso   1.000  C
  H188     1.0000 0.52290  0.87090  0.33050  Biso   1.000  H
  H189     1.0000 0.50890  0.82050  0.35720  Biso   1.000  H
  H190     1.0000 0.74390  0.90110  0.36250  Biso   1.000  H
  N39      1.0000 0.92260  0.17250  0.73850  Biso   1.000  N
  N40      1.0000 0.69070  0.31450  0.82117  Biso   1.000  N
  H191     1.0000 0.74370  0.29240  0.83570  Biso   1.000  H
  C134     1.0000 0.87250  0.21880  0.72190  Biso   1.000  C
  H192     1.0000 0.91040  0.22740  0.69830  Biso   1.000  H
  C135     1.0000 0.76710  0.25400  0.73860  Biso   1.000  C
  H193     1.0000 0.73520  0.28520  0.72610  Biso   1.000  H
  C136     1.0000 0.71060  0.24260  0.77340  Biso   1.000  C
  C137     1.0000 0.75830  0.19560  0.78990  Biso   1.000  C
  H194     1.0000 0.72110  0.18620  0.81350  Biso   1.000  H
  C138     1.0000 0.86080  0.16230  0.77180  Biso   1.000  C
  H195     1.0000 0.88930  0.13030  0.78370  Biso   1.000  H
  C139     1.0000 0.60150  0.28040  0.79410  Biso   1.000  C
  H196     1.0000 0.52400  0.25940  0.80740  Biso   1.000  H
  H197     1.0000 0.54830  0.30360  0.77630  Biso   1.000  H
  C140     1.0000 0.58150  0.34510  0.84530  Biso   1.000  C
  H198     1.0000 0.52290  0.37090  0.83050  Biso   1.000  H
  H199     1.0000 0.50890  0.32050  0.85720  Biso   1.000  H
  H200     1.0000 0.74390  0.40110  0.86250  Biso   1.000  H
  N41      1.0000 0.82740  0.57750  0.73850  Biso   1.000  N
  N42      1.0000 0.05930  0.43550  0.82117  Biso   1.000  N
  H201     1.0000 0.00630  0.45760  0.83570  Biso   1.000  H
  C141     1.0000 0.87750  0.53120  0.72190  Biso   1.000  C
  H202     1.0000 0.83960  0.52260  0.69830  Biso   1.000  H
  C142     1.0000 0.98290  0.49600  0.73860  Biso   1.000  C
  H203     1.0000 0.01480  0.46480  0.72610  Biso   1.000  H
  C143     1.0000 0.03940  0.50740  0.77340  Biso   1.000  C
  C144     1.0000 0.99170  0.55440  0.78990  Biso   1.000  C
  H204     1.0000 0.02890  0.56380  0.81350  Biso   1.000  H
  C145     1.0000 0.88920  0.58770  0.77180  Biso   1.000  C
  H205     1.0000 0.86070  0.61970  0.78370  Biso   1.000  H
  C146     1.0000 0.14850  0.46960  0.79410  Biso   1.000  C
  H206     1.0000 0.22600  0.49060  0.80740  Biso   1.000  H
  H207     1.0000 0.20170  0.44640  0.77630  Biso   1.000  H
  C147     1.0000 0.16850  0.40490  0.84530  Biso   1.000  C
  H208     1.0000 0.22710  0.37910  0.83050  Biso   1.000  H
  H209     1.0000 0.24110  0.42950  0.85720  Biso   1.000  H
  H210     1.0000 0.00610  0.34890  0.86250  Biso   1.000  H
  N43      1.0000 0.82740  0.07750  0.23850  Biso   1.000  N
  N44      1.0000 0.05930  0.93550  0.32117  Biso   1.000  N
  H211     1.0000 0.00630  0.95760  0.33570  Biso   1.000  H
  C148     1.0000 0.87750  0.03120  0.22190  Biso   1.000  C
  H212     1.0000 0.83960  0.02260  0.19830  Biso   1.000  H
  C149     1.0000 0.98290  0.99600  0.23860  Biso   1.000  C
  H213     1.0000 0.01480  0.96480  0.22610  Biso   1.000  H
  C150     1.0000 0.03940  0.00740  0.27340  Biso   1.000  C
  C151     1.0000 0.99170  0.05440  0.28990  Biso   1.000  C
  H214     1.0000 0.02890  0.06380  0.31350  Biso   1.000  H
  C152     1.0000 0.88920  0.08770  0.27180  Biso   1.000  C
  H215     1.0000 0.86070  0.11970  0.28370  Biso   1.000  H
  C153     1.0000 0.14850  0.96960  0.29410  Biso   1.000  C
  H216     1.0000 0.22600  0.99060  0.30740  Biso   1.000  H
  H217     1.0000 0.20170  0.94640  0.27630  Biso   1.000  H
  C154     1.0000 0.16850  0.90490  0.34530  Biso   1.000  C
  H218     1.0000 0.22710  0.87910  0.33050  Biso   1.000  H
  H219     1.0000 0.24110  0.92950  0.35720  Biso   1.000  H
  H220     1.0000 0.00610  0.84890  0.36250  Biso   1.000  H
  N45      1.0000 0.32740  0.57750  0.23850  Biso   1.000  N
  N46      1.0000 0.55930  0.43550  0.32117  Biso   1.000  N
  H221     1.0000 0.50630  0.45760  0.33570  Biso   1.000  H
  C155     1.0000 0.37750  0.53120  0.22190  Biso   1.000  C
  H222     1.0000 0.33960  0.52260  0.19830  Biso   1.000  H
  C156     1.0000 0.48290  0.49600  0.23860  Biso   1.000  C
  H223     1.0000 0.51480  0.46480  0.22610  Biso   1.000  H
  C157     1.0000 0.53940  0.50740  0.27340  Biso   1.000  C
  C158     1.0000 0.49170  0.55440  0.28990  Biso   1.000  C
  H224     1.0000 0.52890  0.56380  0.31350  Biso   1.000  H
  C159     1.0000 0.38920  0.58770  0.27180  Biso   1.000  C
  H225     1.0000 0.36070  0.61970  0.28370  Biso   1.000  H
  C160     1.0000 0.64850  0.46960  0.29410  Biso   1.000  C
  H226     1.0000 0.72600  0.49060  0.30740  Biso   1.000  H
  H227     1.0000 0.70170  0.44640  0.27630  Biso   1.000  H
  C161     1.0000 0.66850  0.40490  0.34530  Biso   1.000  C
  H228     1.0000 0.72710  0.37910  0.33050  Biso   1.000  H
  H229     1.0000 0.74110  0.42950  0.35720  Biso   1.000  H
  H230     1.0000 0.50610  0.34890  0.36250  Biso   1.000  H
  N47      1.0000 0.32740  0.07750  0.73850  Biso   1.000  N
  N48      1.0000 0.55930  0.93550  0.82117  Biso   1.000  N
  H231     1.0000 0.50630  0.95760  0.83570  Biso   1.000  H
  C162     1.0000 0.37750  0.03120  0.72190  Biso   1.000  C
  H232     1.0000 0.33960  0.02260  0.69830  Biso   1.000  H
  C163     1.0000 0.48290  0.99600  0.73860  Biso   1.000  C
  H233     1.0000 0.51480  0.96480  0.72610  Biso   1.000  H
  C164     1.0000 0.53940  0.00740  0.77340  Biso   1.000  C
  C165     1.0000 0.49170  0.05440  0.78990  Biso   1.000  C
  H234     1.0000 0.52890  0.06380  0.81350  Biso   1.000  H
  C166     1.0000 0.38920  0.08770  0.77180  Biso   1.000  C
  H235     1.0000 0.36070  0.11970  0.78370  Biso   1.000  H
  C167     1.0000 0.64850  0.96960  0.79410  Biso   1.000  C
  H236     1.0000 0.72600  0.99060  0.80740  Biso   1.000  H
  H237     1.0000 0.70170  0.94640  0.77630  Biso   1.000  H
  C168     1.0000 0.66850  0.90490  0.84530  Biso   1.000  C
  H238     1.0000 0.72710  0.87910  0.83050  Biso   1.000  H
  H239     1.0000 0.74110  0.92950  0.85720  Biso   1.000  H
  H240     1.0000 0.50610  0.84890  0.86250  Biso   1.000  H
  N49      1.0000 0.82740  0.67250  0.51150  Biso   1.000  N
  N50      1.0000 0.05930  0.81450  0.42883  Biso   1.000  N
  H241     1.0000 0.00630  0.79240  0.41430  Biso   1.000  H
  C169     1.0000 0.87750  0.71880  0.52810  Biso   1.000  C
  H242     1.0000 0.83960  0.72740  0.55170  Biso   1.000  H
  C170     1.0000 0.98290  0.75400  0.51140  Biso   1.000  C
  H243     1.0000 0.01480  0.78520  0.52390  Biso   1.000  H
  C171     1.0000 0.03940  0.74260  0.47660  Biso   1.000  C
  C172     1.0000 0.99170  0.69560  0.46010  Biso   1.000  C
  H244     1.0000 0.02890  0.68620  0.43650  Biso   1.000  H
  C173     1.0000 0.88920  0.66230  0.47820  Biso   1.000  C
  H245     1.0000 0.86070  0.63030  0.46630  Biso   1.000  H
  C174     1.0000 0.14850  0.78040  0.45590  Biso   1.000  C
  H246     1.0000 0.22600  0.75940  0.44260  Biso   1.000  H
  H247     1.0000 0.20170  0.80360  0.47370  Biso   1.000  H
  C175     1.0000 0.16850  0.84510  0.40470  Biso   1.000  C
  H248     1.0000 0.22710  0.87090  0.41950  Biso   1.000  H
  H249     1.0000 0.24110  0.82050  0.39280  Biso   1.000  H
  H250     1.0000 0.00610  0.90110  0.38750  Biso   1.000  H
  N51      1.0000 0.82740  0.17250  0.01150  Biso   1.000  N
  N52      1.0000 0.05930  0.31450  0.92883  Biso   1.000  N
  H251     1.0000 0.00630  0.29240  0.91430  Biso   1.000  H
  C176     1.0000 0.87750  0.21880  0.02810  Biso   1.000  C
  H252     1.0000 0.83960  0.22740  0.05170  Biso   1.000  H
  C177     1.0000 0.98290  0.25400  0.01140  Biso   1.000  C
  H253     1.0000 0.01480  0.28520  0.02390  Biso   1.000  H
  C178     1.0000 0.03940  0.24260  0.97660  Biso   1.000  C
  C179     1.0000 0.99170  0.19560  0.96010  Biso   1.000  C
  H254     1.0000 0.02890  0.18620  0.93650  Biso   1.000  H
  C180     1.0000 0.88920  0.16230  0.97820  Biso   1.000  C
  H255     1.0000 0.86070  0.13030  0.96630  Biso   1.000  H
  C181     1.0000 0.14850  0.28040  0.95590  Biso   1.000  C
  H256     1.0000 0.22600  0.25940  0.94260  Biso   1.000  H
  H257     1.0000 0.20170  0.30360  0.97370  Biso   1.000  H
  C182     1.0000 0.16850  0.34510  0.90470  Biso   1.000  C
  H258     1.0000 0.22710  0.37090  0.91950  Biso   1.000  H
  H259     1.0000 0.24110  0.32050  0.89280  Biso   1.000  H
  H260     1.0000 0.00610  0.40110  0.88750  Biso   1.000  H
  N53      1.0000 0.32740  0.67250  0.01150  Biso   1.000  N
  N54      1.0000 0.55930  0.81450  0.92883  Biso   1.000  N
  H261     1.0000 0.50630  0.79240  0.91430  Biso   1.000  H
  C183     1.0000 0.37750  0.71880  0.02810  Biso   1.000  C
  H262     1.0000 0.33960  0.72740  0.05170  Biso   1.000  H
  C184     1.0000 0.48290  0.75400  0.01140  Biso   1.000  C
  H263     1.0000 0.51480  0.78520  0.02390  Biso   1.000  H
  C185     1.0000 0.53940  0.74260  0.97660  Biso   1.000  C
  C186     1.0000 0.49170  0.69560  0.96010  Biso   1.000  C
  H264     1.0000 0.52890  0.68620  0.93650  Biso   1.000  H
  C187     1.0000 0.38920  0.66230  0.97820  Biso   1.000  C
  H265     1.0000 0.36070  0.63030  0.96630  Biso   1.000  H
  C188     1.0000 0.64850  0.78040  0.95590  Biso   1.000  C
  H266     1.0000 0.72600  0.75940  0.94260  Biso   1.000  H
  H267     1.0000 0.70170  0.80360  0.97370  Biso   1.000  H
  C189     1.0000 0.66850  0.84510  0.90470  Biso   1.000  C
  H268     1.0000 0.72710  0.87090  0.91950  Biso   1.000  H
  H269     1.0000 0.74110  0.82050  0.89280  Biso   1.000  H
  H270     1.0000 0.50610  0.90110  0.88750  Biso   1.000  H
  N55      1.0000 0.32740  0.17250  0.51150  Biso   1.000  N
  N56      1.0000 0.55930  0.31450  0.42883  Biso   1.000  N
  H271     1.0000 0.50630  0.29240  0.41430  Biso   1.000  H
  C190     1.0000 0.37750  0.21880  0.52810  Biso   1.000  C
  H272     1.0000 0.33960  0.22740  0.55170  Biso   1.000  H
  C191     1.0000 0.48290  0.25400  0.51140  Biso   1.000  C
  H273     1.0000 0.51480  0.28520  0.52390  Biso   1.000  H
  C192     1.0000 0.53940  0.24260  0.47660  Biso   1.000  C
  C193     1.0000 0.49170  0.19560  0.46010  Biso   1.000  C
  H274     1.0000 0.52890  0.18620  0.43650  Biso   1.000  H
  C194     1.0000 0.38920  0.16230  0.47820  Biso   1.000  C
  H275     1.0000 0.36070  0.13030  0.46630  Biso   1.000  H
  C195     1.0000 0.64850  0.28040  0.45590  Biso   1.000  C
  H276     1.0000 0.72600  0.25940  0.44260  Biso   1.000  H
  H277     1.0000 0.70170  0.30360  0.47370  Biso   1.000  H
  C196     1.0000 0.66850  0.34510  0.40470  Biso   1.000  C
  H278     1.0000 0.72710  0.37090  0.41950  Biso   1.000  H
  H279     1.0000 0.74110  0.32050  0.39280  Biso   1.000  H
  H280     1.0000 0.50610  0.40110  0.38750  Biso   1.000  H
  N57      1.0000 0.42260  0.57750  0.51150  Biso   1.000  N
  N58      1.0000 0.19070  0.43550  0.42883  Biso   1.000  N
  H281     1.0000 0.24370  0.45760  0.41430  Biso   1.000  H
  C197     1.0000 0.37250  0.53120  0.52810  Biso   1.000  C
  H282     1.0000 0.41040  0.52260  0.55170  Biso   1.000  H
  C198     1.0000 0.26710  0.49600  0.51140  Biso   1.000  C
  H283     1.0000 0.23520  0.46480  0.52390  Biso   1.000  H
  C199     1.0000 0.21060  0.50740  0.47660  Biso   1.000  C
  C200     1.0000 0.25830  0.55440  0.46010  Biso   1.000  C
  H284     1.0000 0.22110  0.56380  0.43650  Biso   1.000  H
  C201     1.0000 0.36080  0.58770  0.47820  Biso   1.000  C
  H285     1.0000 0.38930  0.61970  0.46630  Biso   1.000  H
  C202     1.0000 0.10150  0.46960  0.45590  Biso   1.000  C
  H286     1.0000 0.02400  0.49060  0.44260  Biso   1.000  H
  H287     1.0000 0.04830  0.44640  0.47370  Biso   1.000  H
  C203     1.0000 0.08150  0.40490  0.40470  Biso   1.000  C
  H288     1.0000 0.02290  0.37910  0.41950  Biso   1.000  H
  H289     1.0000 0.00890  0.42950  0.39280  Biso   1.000  H
  H290     1.0000 0.24390  0.34890  0.38750  Biso   1.000  H
  N59      1.0000 0.42260  0.07750  0.01150  Biso   1.000  N
  N60      1.0000 0.19070  0.93550  0.92883  Biso   1.000  N
  H291     1.0000 0.24370  0.95760  0.91430  Biso   1.000  H
  C204     1.0000 0.37250  0.03120  0.02810  Biso   1.000  C
  H292     1.0000 0.41040  0.02260  0.05170  Biso   1.000  H
  C205     1.0000 0.26710  0.99600  0.01140  Biso   1.000  C
  H293     1.0000 0.23520  0.96480  0.02390  Biso   1.000  H
  C206     1.0000 0.21060  0.00740  0.97660  Biso   1.000  C
  C207     1.0000 0.25830  0.05440  0.96010  Biso   1.000  C
  H294     1.0000 0.22110  0.06380  0.93650  Biso   1.000  H
  C208     1.0000 0.36080  0.08770  0.97820  Biso   1.000  C
  H295     1.0000 0.38930  0.11970  0.96630  Biso   1.000  H
  C209     1.0000 0.10150  0.96960  0.95590  Biso   1.000  C
  H296     1.0000 0.02400  0.99060  0.94260  Biso   1.000  H
  H297     1.0000 0.04830  0.94640  0.97370  Biso   1.000  H
  C210     1.0000 0.08150  0.90490  0.90470  Biso   1.000  C
  H298     1.0000 0.02290  0.87910  0.91950  Biso   1.000  H
  H299     1.0000 0.00890  0.92950  0.89280  Biso   1.000  H
  H300     1.0000 0.24390  0.84890  0.88750  Biso   1.000  H
  N61      1.0000 0.92260  0.57750  0.01150  Biso   1.000  N
  N62      1.0000 0.69070  0.43550  0.92883  Biso   1.000  N
  H301     1.0000 0.74370  0.45760  0.91430  Biso   1.000  H
  C211     1.0000 0.87250  0.53120  0.02810  Biso   1.000  C
  H302     1.0000 0.91040  0.52260  0.05170  Biso   1.000  H
  C212     1.0000 0.76710  0.49600  0.01140  Biso   1.000  C
  H303     1.0000 0.73520  0.46480  0.02390  Biso   1.000  H
  C213     1.0000 0.71060  0.50740  0.97660  Biso   1.000  C
  C214     1.0000 0.75830  0.55440  0.96010  Biso   1.000  C
  H304     1.0000 0.72110  0.56380  0.93650  Biso   1.000  H
  C215     1.0000 0.86080  0.58770  0.97820  Biso   1.000  C
  H305     1.0000 0.88930  0.61970  0.96630  Biso   1.000  H
  C216     1.0000 0.60150  0.46960  0.95590  Biso   1.000  C
  H306     1.0000 0.52400  0.49060  0.94260  Biso   1.000  H
  H307     1.0000 0.54830  0.44640  0.97370  Biso   1.000  H
  C217     1.0000 0.58150  0.40490  0.90470  Biso   1.000  C
  H308     1.0000 0.52290  0.37910  0.91950  Biso   1.000  H
  H309     1.0000 0.50890  0.42950  0.89280  Biso   1.000  H
  H310     1.0000 0.74390  0.34890  0.88750  Biso   1.000  H
  N63      1.0000 0.92260  0.07750  0.51150  Biso   1.000  N
  N64      1.0000 0.69070  0.93550  0.42883  Biso   1.000  N
  H311     1.0000 0.74370  0.95760  0.41430  Biso   1.000  H
  C218     1.0000 0.87250  0.03120  0.52810  Biso   1.000  C
  H312     1.0000 0.91040  0.02260  0.55170  Biso   1.000  H
  C219     1.0000 0.76710  0.99600  0.51140  Biso   1.000  C
  H313     1.0000 0.73520  0.96480  0.52390  Biso   1.000  H
  C220     1.0000 0.71060  0.00740  0.47660  Biso   1.000  C
  C221     1.0000 0.75830  0.05440  0.46010  Biso   1.000  C
  H314     1.0000 0.72110  0.06380  0.43650  Biso   1.000  H
  C222     1.0000 0.86080  0.08770  0.47820  Biso   1.000  C
  H315     1.0000 0.88930  0.11970  0.46630  Biso   1.000  H
  C223     1.0000 0.60150  0.96960  0.45590  Biso   1.000  C
  H316     1.0000 0.52400  0.99060  0.44260  Biso   1.000  H
  H317     1.0000 0.54830  0.94640  0.47370  Biso   1.000  H
  C224     1.0000 0.58150  0.90490  0.40470  Biso   1.000  C
  H318     1.0000 0.52290  0.87910  0.41950  Biso   1.000  H
  H319     1.0000 0.50890  0.92950  0.39280  Biso   1.000  H
  H320     1.0000 0.74390  0.84890  0.38750  Biso   1.000  H
  Ag1      1.0000 0.37500  0.37500  0.29155  Biso   1.000  Ag
  Ag2      1.0000 0.37500  0.87500  0.79155  Biso   1.000  Ag
  Ag3      1.0000 0.87500  0.37500  0.79155  Biso   1.000  Ag
  Ag4      1.0000 0.87500  0.87500  0.29155  Biso   1.000  Ag
  Ag5      1.0000 0.37500  0.37500  0.45845  Biso   1.000  Ag
  Ag6      1.0000 0.37500  0.87500  0.95845  Biso   1.000  Ag
  Ag7      1.0000 0.87500  0.37500  0.95845  Biso   1.000  Ag
  Ag8      1.0000 0.87500  0.87500  0.45845  Biso   1.000  Ag
  Ag9      1.0000 0.62500  0.62500  0.70845  Biso   1.000  Ag
  Ag10     1.0000 0.62500  0.12500  0.20845  Biso   1.000  Ag
  Ag11     1.0000 0.12500  0.62500  0.20845  Biso   1.000  Ag
  Ag12     1.0000 0.12500  0.12500  0.70845  Biso   1.000  Ag
  Ag13     1.0000 0.62500  0.62500  0.54155  Biso   1.000  Ag
  Ag14     1.0000 0.62500  0.12500  0.04155  Biso   1.000  Ag
  Ag15     1.0000 0.12500  0.62500  0.04155  Biso   1.000  Ag
  Ag16     1.0000 0.12500  0.12500  0.54155  Biso   1.000  Ag
  C225     1.0000 0.82270  0.12500  0.12500  Biso   1.000  C
  C226     1.0000 0.82270  0.62500  0.62500  Biso   1.000  C
  C227     1.0000 0.32270  0.12500  0.62500  Biso   1.000  C
  C228     1.0000 0.92730  0.62500  0.12500  Biso   1.000  C
  C229     1.0000 0.42730  0.62500  0.62500  Biso   1.000  C
  C230     1.0000 0.92730  0.12500  0.62500  Biso   1.000  C
  C231     1.0000 0.42730  0.12500  0.12500  Biso   1.000  C
  C232     1.0000 0.32270  0.62500  0.12500  Biso   1.000  C
  C233     1.0000 0.17730  0.87500  0.87500  Biso   1.000  C
  C234     1.0000 0.17730  0.37500  0.37500  Biso   1.000  C
  C235     1.0000 0.67730  0.87500  0.37500  Biso   1.000  C
  C236     1.0000 0.07270  0.37500  0.87500  Biso   1.000  C
  C237     1.0000 0.57270  0.37500  0.37500  Biso   1.000  C
  C238     1.0000 0.07270  0.87500  0.37500  Biso   1.000  C
  C239     1.0000 0.57270  0.87500  0.87500  Biso   1.000  C
  C240     1.0000 0.67730  0.37500  0.87500  Biso   1.000  C
