data_image0
_cell_length_a       12.9145
_cell_length_b       12.9145
_cell_length_c       9.8482
_cell_angle_alpha    90
_cell_angle_beta     90
_cell_angle_gamma    90

_symmetry_space_group_name_H-M    "P 1"
_symmetry_int_tables_number       1

loop_
  _symmetry_equiv_pos_as_xyz
  'x, y, z'

loop_
  _atom_site_label
  _atom_site_occupancy
  _atom_site_fract_x
  _atom_site_fract_y
  _atom_site_fract_z
  _atom_site_thermal_displace_type
  _atom_site_B_iso_or_equiv
  _atom_site_type_symbol
  O1       1.0000 0.25490  0.10950  0.25050  Biso   1.000  O
  O2       1.0000 0.38830  0.11110  0.06990  Biso   1.000  O
  F1       1.0000 0.10460  0.73630  0.28020  Biso   1.000  F
  P1       1.0000 0.07235  0.82414  0.18370  Biso   1.000  P
  O3       1.0000 0.13810  0.91830  0.21410  Biso   1.000  O
  O4       1.0000 0.08570  0.78940  0.03690  Biso   1.000  O
  O5       1.0000 0.95720  0.84570  0.21460  Biso   1.000  O
  Co1      1.0000 0.13619  0.05480  0.13118  Biso   1.000  Co
  O6       1.0000 0.74510  0.89050  0.25050  Biso   1.000  O
  O7       1.0000 0.61170  0.88890  0.06990  Biso   1.000  O
  F2       1.0000 0.89540  0.26370  0.28020  Biso   1.000  F
  P2       1.0000 0.92765  0.17586  0.18370  Biso   1.000  P
  O8       1.0000 0.86190  0.08170  0.21410  Biso   1.000  O
  O9       1.0000 0.91430  0.21060  0.03690  Biso   1.000  O
  O10      1.0000 0.04280  0.15430  0.21460  Biso   1.000  O
  Co2      1.0000 0.86381  0.94520  0.13118  Biso   1.000  Co
  O11      1.0000 0.10950  0.74510  0.74950  Biso   1.000  O
  O12      1.0000 0.11110  0.61170  0.93010  Biso   1.000  O
  F3       1.0000 0.73630  0.89540  0.71980  Biso   1.000  F
  P3       1.0000 0.82414  0.92765  0.81630  Biso   1.000  P
  O13      1.0000 0.91830  0.86190  0.78590  Biso   1.000  O
  O14      1.0000 0.78940  0.91430  0.96310  Biso   1.000  O
  O15      1.0000 0.84570  0.04280  0.78540  Biso   1.000  O
  Co3      1.0000 0.05480  0.86381  0.86882  Biso   1.000  Co
  O16      1.0000 0.89050  0.25490  0.74950  Biso   1.000  O
  O17      1.0000 0.88890  0.38830  0.93010  Biso   1.000  O
  F4       1.0000 0.26370  0.10460  0.71980  Biso   1.000  F
  P4       1.0000 0.17586  0.07235  0.81630  Biso   1.000  P
  O18      1.0000 0.08170  0.13810  0.78590  Biso   1.000  O
  O19      1.0000 0.21060  0.08570  0.96310  Biso   1.000  O
  O20      1.0000 0.15430  0.95720  0.78540  Biso   1.000  O
  Co4      1.0000 0.94520  0.13619  0.86882  Biso   1.000  Co
  O21      1.0000 0.75490  0.39050  0.75050  Biso   1.000  O
  O22      1.0000 0.88830  0.38890  0.56990  Biso   1.000  O
  F5       1.0000 0.60460  0.76370  0.78020  Biso   1.000  F
  P5       1.0000 0.57235  0.67586  0.68370  Biso   1.000  P
  O23      1.0000 0.63810  0.58170  0.71410  Biso   1.000  O
  O24      1.0000 0.58570  0.71060  0.53690  Biso   1.000  O
  O25      1.0000 0.45720  0.65430  0.71460  Biso   1.000  O
  Co5      1.0000 0.63619  0.44520  0.63118  Biso   1.000  Co
  O26      1.0000 0.24510  0.60950  0.75050  Biso   1.000  O
  O27      1.0000 0.11170  0.61110  0.56990  Biso   1.000  O
  F6       1.0000 0.39540  0.23630  0.78020  Biso   1.000  F
  P6       1.0000 0.42765  0.32414  0.68370  Biso   1.000  P
  O28      1.0000 0.36190  0.41830  0.71410  Biso   1.000  O
  O29      1.0000 0.41430  0.28940  0.53690  Biso   1.000  O
  O30      1.0000 0.54280  0.34570  0.71460  Biso   1.000  O
  Co6      1.0000 0.36381  0.55480  0.63118  Biso   1.000  Co
  O31      1.0000 0.60950  0.75490  0.24950  Biso   1.000  O
  O32      1.0000 0.61110  0.88830  0.43010  Biso   1.000  O
  F7       1.0000 0.23630  0.60460  0.21980  Biso   1.000  F
  P7       1.0000 0.32414  0.57235  0.31630  Biso   1.000  P
  O33      1.0000 0.41830  0.63810  0.28590  Biso   1.000  O
  O34      1.0000 0.28940  0.58570  0.46310  Biso   1.000  O
  O35      1.0000 0.34570  0.45720  0.28540  Biso   1.000  O
  Co7      1.0000 0.55480  0.63619  0.36882  Biso   1.000  Co
  O36      1.0000 0.39050  0.24510  0.24950  Biso   1.000  O
  O37      1.0000 0.38890  0.11170  0.43010  Biso   1.000  O
  F8       1.0000 0.76370  0.39540  0.21980  Biso   1.000  F
  P8       1.0000 0.67586  0.42765  0.31630  Biso   1.000  P
  O38      1.0000 0.58170  0.36190  0.28590  Biso   1.000  O
  O39      1.0000 0.71060  0.41430  0.46310  Biso   1.000  O
  O40      1.0000 0.65430  0.54280  0.28540  Biso   1.000  O
  Co8      1.0000 0.44520  0.36381  0.36882  Biso   1.000  Co
  P9       1.0000 0.36520  0.13480  0.25000  Biso   1.000  P
  P10      1.0000 0.63480  0.86520  0.25000  Biso   1.000  P
  P11      1.0000 0.13480  0.63480  0.75000  Biso   1.000  P
  P12      1.0000 0.86520  0.36520  0.75000  Biso   1.000  P
