data_image0
_cell_length_a       14.8737
_cell_length_b       9.6815
_cell_length_c       13.6354
_cell_angle_alpha    90
_cell_angle_beta     90
_cell_angle_gamma    90

_symmetry_space_group_name_H-M    "P 1"
_symmetry_int_tables_number       1

loop_
  _symmetry_equiv_pos_as_xyz
  'x, y, z'

loop_
  _atom_site_label
  _atom_site_occupancy
  _atom_site_fract_x
  _atom_site_fract_y
  _atom_site_fract_z
  _atom_site_thermal_displace_type
  _atom_site_B_iso_or_equiv
  _atom_site_type_symbol
  O1       1.0000 0.10700  0.35330  0.65700  Biso   1.000  O
  O2       1.0000 0.08550  0.19600  0.36860  Biso   1.000  O
  O3       1.0000 0.60700  0.85330  0.65700  Biso   1.000  O
  O4       1.0000 0.58550  0.69600  0.36860  Biso   1.000  O
  O5       1.0000 0.89300  0.64670  0.15700  Biso   1.000  O
  O6       1.0000 0.91450  0.80400  0.86860  Biso   1.000  O
  O7       1.0000 0.39300  0.14670  0.15700  Biso   1.000  O
  O8       1.0000 0.41450  0.30400  0.86860  Biso   1.000  O
  O9       1.0000 0.89300  0.35330  0.84300  Biso   1.000  O
  O10      1.0000 0.91450  0.19600  0.13140  Biso   1.000  O
  O11      1.0000 0.39300  0.85330  0.84300  Biso   1.000  O
  O12      1.0000 0.41450  0.69600  0.13140  Biso   1.000  O
  O13      1.0000 0.10700  0.64670  0.34300  Biso   1.000  O
  O14      1.0000 0.08550  0.80400  0.63140  Biso   1.000  O
  O15      1.0000 0.60700  0.14670  0.34300  Biso   1.000  O
  O16      1.0000 0.58550  0.30400  0.63140  Biso   1.000  O
  O17      1.0000 0.89300  0.64670  0.34300  Biso   1.000  O
  O18      1.0000 0.91450  0.80400  0.63140  Biso   1.000  O
  O19      1.0000 0.39300  0.14670  0.34300  Biso   1.000  O
  O20      1.0000 0.41450  0.30400  0.63140  Biso   1.000  O
  O21      1.0000 0.10700  0.35330  0.84300  Biso   1.000  O
  O22      1.0000 0.08550  0.19600  0.13140  Biso   1.000  O
  O23      1.0000 0.60700  0.85330  0.84300  Biso   1.000  O
  O24      1.0000 0.58550  0.69600  0.13140  Biso   1.000  O
  O25      1.0000 0.10700  0.64670  0.15700  Biso   1.000  O
  O26      1.0000 0.08550  0.80400  0.86860  Biso   1.000  O
  O27      1.0000 0.60700  0.14670  0.15700  Biso   1.000  O
  O28      1.0000 0.58550  0.30400  0.86860  Biso   1.000  O
  O29      1.0000 0.89300  0.35330  0.65700  Biso   1.000  O
  O30      1.0000 0.91450  0.19600  0.36860  Biso   1.000  O
  O31      1.0000 0.39300  0.85330  0.65700  Biso   1.000  O
  O32      1.0000 0.41450  0.69600  0.36860  Biso   1.000  O
  Co1      1.0000 0.12968  0.70928  0.75000  Biso   1.000  Co
  P1       1.0000 0.16173  0.38156  0.75000  Biso   1.000  P
  O33      1.0000 0.19400  0.53290  0.75000  Biso   1.000  O
  O34      1.0000 0.24300  0.28740  0.75000  Biso   1.000  O
  Co2      1.0000 0.62968  0.20928  0.75000  Biso   1.000  Co
  P2       1.0000 0.66173  0.88156  0.75000  Biso   1.000  P
  O35      1.0000 0.69400  0.03290  0.75000  Biso   1.000  O
  O36      1.0000 0.74300  0.78740  0.75000  Biso   1.000  O
  Co3      1.0000 0.87032  0.29072  0.25000  Biso   1.000  Co
  P3       1.0000 0.83827  0.61844  0.25000  Biso   1.000  P
  O37      1.0000 0.80600  0.46710  0.25000  Biso   1.000  O
  O38      1.0000 0.75700  0.71260  0.25000  Biso   1.000  O
  Co4      1.0000 0.37032  0.79072  0.25000  Biso   1.000  Co
  P4       1.0000 0.33827  0.11844  0.25000  Biso   1.000  P
  O39      1.0000 0.30600  0.96710  0.25000  Biso   1.000  O
  O40      1.0000 0.25700  0.21260  0.25000  Biso   1.000  O
  Co5      1.0000 0.87032  0.70928  0.75000  Biso   1.000  Co
  P5       1.0000 0.83827  0.38156  0.75000  Biso   1.000  P
  O41      1.0000 0.80600  0.53290  0.75000  Biso   1.000  O
  O42      1.0000 0.75700  0.28740  0.75000  Biso   1.000  O
  Co6      1.0000 0.37032  0.20928  0.75000  Biso   1.000  Co
  P6       1.0000 0.33827  0.88156  0.75000  Biso   1.000  P
  O43      1.0000 0.30600  0.03290  0.75000  Biso   1.000  O
  O44      1.0000 0.25700  0.78740  0.75000  Biso   1.000  O
  Co7      1.0000 0.12968  0.29072  0.25000  Biso   1.000  Co
  P7       1.0000 0.16173  0.61844  0.25000  Biso   1.000  P
  O45      1.0000 0.19400  0.46710  0.25000  Biso   1.000  O
  O46      1.0000 0.24300  0.71260  0.25000  Biso   1.000  O
  Co8      1.0000 0.62968  0.79072  0.25000  Biso   1.000  Co
  P8       1.0000 0.66173  0.11844  0.25000  Biso   1.000  P
  O47      1.0000 0.69400  0.96710  0.25000  Biso   1.000  O
  O48      1.0000 0.74300  0.21260  0.25000  Biso   1.000  O
  Co9      1.0000 0.00000  0.44880  0.61241  Biso   1.000  Co
  P9       1.0000 0.00000  0.22600  0.42674  Biso   1.000  P
  O49      1.0000 0.00000  0.37570  0.46490  Biso   1.000  O
  F1       1.0000 0.00000  0.12960  0.51770  Biso   1.000  F
  Co10     1.0000 0.50000  0.94880  0.61241  Biso   1.000  Co
  P10      1.0000 0.50000  0.72600  0.42674  Biso   1.000  P
  O50      1.0000 0.50000  0.87570  0.46490  Biso   1.000  O
  F2       1.0000 0.50000  0.62960  0.51770  Biso   1.000  F
  Co11     1.0000 0.00000  0.55120  0.11241  Biso   1.000  Co
  P11      1.0000 0.00000  0.77400  0.92674  Biso   1.000  P
  O51      1.0000 0.00000  0.62430  0.96490  Biso   1.000  O
  F3       1.0000 0.00000  0.87040  0.01770  Biso   1.000  F
  Co12     1.0000 0.50000  0.05120  0.11241  Biso   1.000  Co
  P12      1.0000 0.50000  0.27400  0.92674  Biso   1.000  P
  O52      1.0000 0.50000  0.12430  0.96490  Biso   1.000  O
  F4       1.0000 0.50000  0.37040  0.01770  Biso   1.000  F
  Co13     1.0000 0.00000  0.44880  0.88759  Biso   1.000  Co
  P13      1.0000 0.00000  0.22600  0.07326  Biso   1.000  P
  O53      1.0000 0.00000  0.37570  0.03510  Biso   1.000  O
  F5       1.0000 0.00000  0.12960  0.98230  Biso   1.000  F
  Co14     1.0000 0.50000  0.94880  0.88759  Biso   1.000  Co
  P14      1.0000 0.50000  0.72600  0.07326  Biso   1.000  P
  O54      1.0000 0.50000  0.87570  0.03510  Biso   1.000  O
  F6       1.0000 0.50000  0.62960  0.98230  Biso   1.000  F
  Co15     1.0000 0.00000  0.55120  0.38759  Biso   1.000  Co
  P15      1.0000 0.00000  0.77400  0.57326  Biso   1.000  P
  O55      1.0000 0.00000  0.62430  0.53510  Biso   1.000  O
  F7       1.0000 0.00000  0.87040  0.48230  Biso   1.000  F
  Co16     1.0000 0.50000  0.05120  0.38759  Biso   1.000  Co
  P16      1.0000 0.50000  0.27400  0.57326  Biso   1.000  P
  O56      1.0000 0.50000  0.12430  0.53510  Biso   1.000  O
  F8       1.0000 0.50000  0.37040  0.48230  Biso   1.000  F
