data_image0
_cell_length_a       18.204
_cell_length_b       12.83
_cell_length_c       13.987
_cell_angle_alpha    90
_cell_angle_beta     99.26
_cell_angle_gamma    90

_symmetry_space_group_name_H-M    "P 1"
_symmetry_int_tables_number       1

loop_
  _symmetry_equiv_pos_as_xyz
  'x, y, z'

loop_
  _atom_site_label
  _atom_site_occupancy
  _atom_site_fract_x
  _atom_site_fract_y
  _atom_site_fract_z
  _atom_site_thermal_displace_type
  _atom_site_B_iso_or_equiv
  _atom_site_type_symbol
  Zn1      1.0000 0.73415  0.00994  0.28241  Biso   1.000  Zn
  O1       1.0000 0.65344  0.02486  0.17090  Biso   1.000  O
  O2       1.0000 0.60373  0.07759  0.02299  Biso   1.000  O
  C1       1.0000 0.65325  0.08210  0.09550  Biso   1.000  C
  C2       1.0000 0.71547  0.16020  0.09730  Biso   1.000  C
  H1       1.0000 0.70820  0.21630  0.14150  Biso   1.000  H
  H2       1.0000 0.76240  0.12650  0.12220  Biso   1.000  H
  C3       1.0000 0.72025  0.20680  0.99740  Biso   1.000  C
  H3       1.0000 0.67170  0.23620  0.97010  Biso   1.000  H
  C4       1.0000 0.74056  0.12170  0.92940  Biso   1.000  C
  O3       1.0000 0.79358  0.06193  0.95648  Biso   1.000  O
  O4       1.0000 0.70210  0.11738  0.84462  Biso   1.000  O
  O5       1.0000 0.82612  0.96382  0.23342  Biso   1.000  O
  O6       1.0000 0.89721  0.85783  0.16185  Biso   1.000  O
  C5       1.0000 0.83551  0.89550  0.17000  Biso   1.000  C
  C6       1.0000 0.76770  0.86060  0.09820  Biso   1.000  C
  H4       1.0000 0.72630  0.84930  0.13290  Biso   1.000  H
  H5       1.0000 0.75370  0.91600  0.05160  Biso   1.000  H
  C7       1.0000 0.78133  0.76020  0.04340  Biso   1.000  C
  H6       1.0000 0.82860  0.76720  0.01890  Biso   1.000  H
  C8       1.0000 0.78686  0.66730  0.11180  Biso   1.000  C
  O7       1.0000 0.84151  0.60760  0.12016  Biso   1.000  O
  O8       1.0000 0.73298  0.64904  0.15788  Biso   1.000  O
  O9       1.0000 0.02600  0.00980  0.19450  Biso   1.000  O
  O10      1.0000 0.04200  0.94400  0.13940  Biso   1.000  O
  Zn2      1.0000 0.23415  0.50994  0.28241  Biso   1.000  Zn
  O11      1.0000 0.15344  0.52486  0.17090  Biso   1.000  O
  O12      1.0000 0.10373  0.57759  0.02299  Biso   1.000  O
  C9       1.0000 0.15325  0.58210  0.09550  Biso   1.000  C
  C10      1.0000 0.21547  0.66020  0.09730  Biso   1.000  C
  H7       1.0000 0.20820  0.71630  0.14150  Biso   1.000  H
  H8       1.0000 0.26240  0.62650  0.12220  Biso   1.000  H
  C11      1.0000 0.22025  0.70680  0.99740  Biso   1.000  C
  H9       1.0000 0.17170  0.73620  0.97010  Biso   1.000  H
  C12      1.0000 0.24056  0.62170  0.92940  Biso   1.000  C
  O13      1.0000 0.29358  0.56193  0.95648  Biso   1.000  O
  O14      1.0000 0.20210  0.61738  0.84462  Biso   1.000  O
  O15      1.0000 0.32612  0.46382  0.23342  Biso   1.000  O
  O16      1.0000 0.39721  0.35783  0.16185  Biso   1.000  O
  C13      1.0000 0.33551  0.39550  0.17000  Biso   1.000  C
  C14      1.0000 0.26770  0.36060  0.09820  Biso   1.000  C
  H10      1.0000 0.22630  0.34930  0.13290  Biso   1.000  H
  H11      1.0000 0.25370  0.41600  0.05160  Biso   1.000  H
  C15      1.0000 0.28133  0.26020  0.04340  Biso   1.000  C
  H12      1.0000 0.32860  0.26720  0.01890  Biso   1.000  H
  C16      1.0000 0.28686  0.16730  0.11180  Biso   1.000  C
  O17      1.0000 0.34151  0.10760  0.12016  Biso   1.000  O
  O18      1.0000 0.23298  0.14904  0.15788  Biso   1.000  O
  O19      1.0000 0.52600  0.50980  0.19450  Biso   1.000  O
  O20      1.0000 0.54200  0.44400  0.13940  Biso   1.000  O
  Zn3      1.0000 0.26585  0.00994  0.21759  Biso   1.000  Zn
  O21      1.0000 0.34656  0.02486  0.32910  Biso   1.000  O
  O22      1.0000 0.39627  0.07759  0.47701  Biso   1.000  O
  C17      1.0000 0.34675  0.08210  0.40450  Biso   1.000  C
  C18      1.0000 0.28453  0.16020  0.40270  Biso   1.000  C
  H13      1.0000 0.29180  0.21630  0.35850  Biso   1.000  H
  H14      1.0000 0.23760  0.12650  0.37780  Biso   1.000  H
  C19      1.0000 0.27975  0.20680  0.50260  Biso   1.000  C
  H15      1.0000 0.32830  0.23620  0.52990  Biso   1.000  H
  C20      1.0000 0.25944  0.12170  0.57060  Biso   1.000  C
  O23      1.0000 0.20642  0.06193  0.54352  Biso   1.000  O
  O24      1.0000 0.29790  0.11738  0.65538  Biso   1.000  O
  O25      1.0000 0.17388  0.96382  0.26658  Biso   1.000  O
  O26      1.0000 0.10279  0.85783  0.33815  Biso   1.000  O
  C21      1.0000 0.16449  0.89550  0.33000  Biso   1.000  C
  C22      1.0000 0.23230  0.86060  0.40180  Biso   1.000  C
  H16      1.0000 0.27370  0.84930  0.36710  Biso   1.000  H
  H17      1.0000 0.24630  0.91600  0.44840  Biso   1.000  H
  C23      1.0000 0.21867  0.76020  0.45660  Biso   1.000  C
  H18      1.0000 0.17140  0.76720  0.48110  Biso   1.000  H
  C24      1.0000 0.21314  0.66730  0.38820  Biso   1.000  C
  O27      1.0000 0.15849  0.60760  0.37984  Biso   1.000  O
  O28      1.0000 0.26702  0.64904  0.34212  Biso   1.000  O
  O29      1.0000 0.97400  0.00980  0.30550  Biso   1.000  O
  O30      1.0000 0.95800  0.94400  0.36060  Biso   1.000  O
  Zn4      1.0000 0.76585  0.50994  0.21759  Biso   1.000  Zn
  O31      1.0000 0.84656  0.52486  0.32910  Biso   1.000  O
  O32      1.0000 0.89627  0.57759  0.47701  Biso   1.000  O
  C25      1.0000 0.84675  0.58210  0.40450  Biso   1.000  C
  C26      1.0000 0.78453  0.66020  0.40270  Biso   1.000  C
  H19      1.0000 0.79180  0.71630  0.35850  Biso   1.000  H
  H20      1.0000 0.73760  0.62650  0.37780  Biso   1.000  H
  C27      1.0000 0.77975  0.70680  0.50260  Biso   1.000  C
  H21      1.0000 0.82830  0.73620  0.52990  Biso   1.000  H
  C28      1.0000 0.75944  0.62170  0.57060  Biso   1.000  C
  O33      1.0000 0.70642  0.56193  0.54352  Biso   1.000  O
  O34      1.0000 0.79790  0.61738  0.65538  Biso   1.000  O
  O35      1.0000 0.67388  0.46382  0.26658  Biso   1.000  O
  O36      1.0000 0.60279  0.35783  0.33815  Biso   1.000  O
  C29      1.0000 0.66449  0.39550  0.33000  Biso   1.000  C
  C30      1.0000 0.73230  0.36060  0.40180  Biso   1.000  C
  H22      1.0000 0.77370  0.34930  0.36710  Biso   1.000  H
  H23      1.0000 0.74630  0.41600  0.44840  Biso   1.000  H
  C31      1.0000 0.71867  0.26020  0.45660  Biso   1.000  C
  H24      1.0000 0.67140  0.26720  0.48110  Biso   1.000  H
  C32      1.0000 0.71314  0.16730  0.38820  Biso   1.000  C
  O37      1.0000 0.65849  0.10760  0.37984  Biso   1.000  O
  O38      1.0000 0.76702  0.14904  0.34212  Biso   1.000  O
  O39      1.0000 0.47400  0.50980  0.30550  Biso   1.000  O
  O40      1.0000 0.45800  0.44400  0.36060  Biso   1.000  O
  Zn5      1.0000 0.26585  0.99006  0.71759  Biso   1.000  Zn
  O41      1.0000 0.34656  0.97514  0.82910  Biso   1.000  O
  O42      1.0000 0.39627  0.92241  0.97701  Biso   1.000  O
  C33      1.0000 0.34675  0.91790  0.90450  Biso   1.000  C
  C34      1.0000 0.28453  0.83980  0.90270  Biso   1.000  C
  H25      1.0000 0.29180  0.78370  0.85850  Biso   1.000  H
  H26      1.0000 0.23760  0.87350  0.87780  Biso   1.000  H
  C35      1.0000 0.27975  0.79320  0.00260  Biso   1.000  C
  H27      1.0000 0.32830  0.76380  0.02990  Biso   1.000  H
  C36      1.0000 0.25944  0.87830  0.07060  Biso   1.000  C
  O43      1.0000 0.20642  0.93807  0.04352  Biso   1.000  O
  O44      1.0000 0.29790  0.88262  0.15538  Biso   1.000  O
  O45      1.0000 0.17388  0.03618  0.76658  Biso   1.000  O
  O46      1.0000 0.10279  0.14217  0.83815  Biso   1.000  O
  C37      1.0000 0.16449  0.10450  0.83000  Biso   1.000  C
  C38      1.0000 0.23230  0.13940  0.90180  Biso   1.000  C
  H28      1.0000 0.27370  0.15070  0.86710  Biso   1.000  H
  H29      1.0000 0.24630  0.08400  0.94840  Biso   1.000  H
  C39      1.0000 0.21867  0.23980  0.95660  Biso   1.000  C
  H30      1.0000 0.17140  0.23280  0.98110  Biso   1.000  H
  C40      1.0000 0.21314  0.33270  0.88820  Biso   1.000  C
  O47      1.0000 0.15849  0.39240  0.87984  Biso   1.000  O
  O48      1.0000 0.26702  0.35096  0.84212  Biso   1.000  O
  O49      1.0000 0.97400  0.99020  0.80550  Biso   1.000  O
  O50      1.0000 0.95800  0.05600  0.86060  Biso   1.000  O
  Zn6      1.0000 0.76585  0.49006  0.71759  Biso   1.000  Zn
  O51      1.0000 0.84656  0.47514  0.82910  Biso   1.000  O
  O52      1.0000 0.89627  0.42241  0.97701  Biso   1.000  O
  C41      1.0000 0.84675  0.41790  0.90450  Biso   1.000  C
  C42      1.0000 0.78453  0.33980  0.90270  Biso   1.000  C
  H31      1.0000 0.79180  0.28370  0.85850  Biso   1.000  H
  H32      1.0000 0.73760  0.37350  0.87780  Biso   1.000  H
  C43      1.0000 0.77975  0.29320  0.00260  Biso   1.000  C
  H33      1.0000 0.82830  0.26380  0.02990  Biso   1.000  H
  C44      1.0000 0.75944  0.37830  0.07060  Biso   1.000  C
  O53      1.0000 0.70642  0.43807  0.04352  Biso   1.000  O
  O54      1.0000 0.79790  0.38262  0.15538  Biso   1.000  O
  O55      1.0000 0.67388  0.53618  0.76658  Biso   1.000  O
  O56      1.0000 0.60279  0.64217  0.83815  Biso   1.000  O
  C45      1.0000 0.66449  0.60450  0.83000  Biso   1.000  C
  C46      1.0000 0.73230  0.63940  0.90180  Biso   1.000  C
  H34      1.0000 0.77370  0.65070  0.86710  Biso   1.000  H
  H35      1.0000 0.74630  0.58400  0.94840  Biso   1.000  H
  C47      1.0000 0.71867  0.73980  0.95660  Biso   1.000  C
  H36      1.0000 0.67140  0.73280  0.98110  Biso   1.000  H
  C48      1.0000 0.71314  0.83270  0.88820  Biso   1.000  C
  O57      1.0000 0.65849  0.89240  0.87984  Biso   1.000  O
  O58      1.0000 0.76702  0.85096  0.84212  Biso   1.000  O
  O59      1.0000 0.47400  0.49020  0.80550  Biso   1.000  O
  O60      1.0000 0.45800  0.55600  0.86060  Biso   1.000  O
  Zn7      1.0000 0.73415  0.99006  0.78241  Biso   1.000  Zn
  O61      1.0000 0.65344  0.97514  0.67090  Biso   1.000  O
  O62      1.0000 0.60373  0.92241  0.52299  Biso   1.000  O
  C49      1.0000 0.65325  0.91790  0.59550  Biso   1.000  C
  C50      1.0000 0.71547  0.83980  0.59730  Biso   1.000  C
  H37      1.0000 0.70820  0.78370  0.64150  Biso   1.000  H
  H38      1.0000 0.76240  0.87350  0.62220  Biso   1.000  H
  C51      1.0000 0.72025  0.79320  0.49740  Biso   1.000  C
  H39      1.0000 0.67170  0.76380  0.47010  Biso   1.000  H
  C52      1.0000 0.74056  0.87830  0.42940  Biso   1.000  C
  O63      1.0000 0.79358  0.93807  0.45648  Biso   1.000  O
  O64      1.0000 0.70210  0.88262  0.34462  Biso   1.000  O
  O65      1.0000 0.82612  0.03618  0.73342  Biso   1.000  O
  O66      1.0000 0.89721  0.14217  0.66185  Biso   1.000  O
  C53      1.0000 0.83551  0.10450  0.67000  Biso   1.000  C
  C54      1.0000 0.76770  0.13940  0.59820  Biso   1.000  C
  H40      1.0000 0.72630  0.15070  0.63290  Biso   1.000  H
  H41      1.0000 0.75370  0.08400  0.55160  Biso   1.000  H
  C55      1.0000 0.78133  0.23980  0.54340  Biso   1.000  C
  H42      1.0000 0.82860  0.23280  0.51890  Biso   1.000  H
  C56      1.0000 0.78686  0.33270  0.61180  Biso   1.000  C
  O67      1.0000 0.84151  0.39240  0.62016  Biso   1.000  O
  O68      1.0000 0.73298  0.35096  0.65788  Biso   1.000  O
  O69      1.0000 0.02600  0.99020  0.69450  Biso   1.000  O
  O70      1.0000 0.04200  0.05600  0.63940  Biso   1.000  O
  Zn8      1.0000 0.23415  0.49006  0.78241  Biso   1.000  Zn
  O71      1.0000 0.15344  0.47514  0.67090  Biso   1.000  O
  O72      1.0000 0.10373  0.42241  0.52299  Biso   1.000  O
  C57      1.0000 0.15325  0.41790  0.59550  Biso   1.000  C
  C58      1.0000 0.21547  0.33980  0.59730  Biso   1.000  C
  H43      1.0000 0.20820  0.28370  0.64150  Biso   1.000  H
  H44      1.0000 0.26240  0.37350  0.62220  Biso   1.000  H
  C59      1.0000 0.22025  0.29320  0.49740  Biso   1.000  C
  H45      1.0000 0.17170  0.26380  0.47010  Biso   1.000  H
  C60      1.0000 0.24056  0.37830  0.42940  Biso   1.000  C
  O73      1.0000 0.29358  0.43807  0.45648  Biso   1.000  O
  O74      1.0000 0.20210  0.38262  0.34462  Biso   1.000  O
  O75      1.0000 0.32612  0.53618  0.73342  Biso   1.000  O
  O76      1.0000 0.39721  0.64217  0.66185  Biso   1.000  O
  C61      1.0000 0.33551  0.60450  0.67000  Biso   1.000  C
  C62      1.0000 0.26770  0.63940  0.59820  Biso   1.000  C
  H46      1.0000 0.22630  0.65070  0.63290  Biso   1.000  H
  H47      1.0000 0.25370  0.58400  0.55160  Biso   1.000  H
  C63      1.0000 0.28133  0.73980  0.54340  Biso   1.000  C
  H48      1.0000 0.32860  0.73280  0.51890  Biso   1.000  H
  C64      1.0000 0.28686  0.83270  0.61180  Biso   1.000  C
  O77      1.0000 0.34151  0.89240  0.62016  Biso   1.000  O
  O78      1.0000 0.23298  0.85096  0.65788  Biso   1.000  O
  O79      1.0000 0.52600  0.49020  0.69450  Biso   1.000  O
  O80      1.0000 0.54200  0.55600  0.63940  Biso   1.000  O
  Zn9      1.0000 0.50000  0.00000  0.00000  Biso   1.000  Zn
  Zn10     1.0000 0.00000  0.50000  0.00000  Biso   1.000  Zn
  Zn11     1.0000 0.50000  0.00000  0.50000  Biso   1.000  Zn
  Zn12     1.0000 0.00000  0.50000  0.50000  Biso   1.000  Zn
  Zn13     1.0000 0.00000  0.86350  0.25000  Biso   1.000  Zn
  Zn14     1.0000 0.50000  0.36350  0.25000  Biso   1.000  Zn
  Zn15     1.0000 0.00000  0.13650  0.75000  Biso   1.000  Zn
  Zn16     1.0000 0.50000  0.63650  0.75000  Biso   1.000  Zn
