data_image0
_cell_length_a       9.6784
_cell_length_b       11.058
_cell_length_c       11.385
_cell_angle_alpha    105.11
_cell_angle_beta     90.23
_cell_angle_gamma    113.98

_symmetry_space_group_name_H-M    "P 1"
_symmetry_int_tables_number       1

loop_
  _symmetry_equiv_pos_as_xyz
  'x, y, z'

loop_
  _atom_site_label
  _atom_site_occupancy
  _atom_site_fract_x
  _atom_site_fract_y
  _atom_site_fract_z
  _atom_site_thermal_displace_type
  _atom_site_B_iso_or_equiv
  _atom_site_type_symbol
  C1       1.0000 0.77370  0.50300  0.39580  Biso   1.000  C
  C2       1.0000 0.63580  0.50630  0.45380  Biso   1.000  C
  C3       1.0000 0.63790  0.61680  0.54950  Biso   1.000  C
  C4       1.0000 0.77740  0.74870  0.60730  Biso   1.000  C
  C5       1.0000 0.49680  0.39100  0.40540  Biso   1.000  C
  H1       1.0000 0.49540  0.31810  0.34140  Biso   1.000  H
  C6       1.0000 0.75520  0.25170  0.48850  Biso   1.000  C
  C7       1.0000 0.62620  0.11850  0.49490  Biso   1.000  C
  C8       1.0000 0.62170  0.98810  0.44140  Biso   1.000  C
  C9       1.0000 0.75380  0.96990  0.38370  Biso   1.000  C
  C10      1.0000 0.50380  0.12890  0.55400  Biso   1.000  C
  H2       1.0000 0.50670  0.21560  0.59080  Biso   1.000  H
  C11      1.0000 0.81400  0.12810  0.10910  Biso   1.000  C
  C12      1.0000 0.65250  0.06350  0.04890  Biso   1.000  C
  C13      1.0000 0.59610  0.93720  0.95730  Biso   1.000  C
  C14      1.0000 0.70330  0.87530  0.90350  Biso   1.000  C
  C15      1.0000 0.55640  0.12670  0.09130  Biso   1.000  C
  H3       1.0000 0.59420  0.21110  0.15180  Biso   1.000  H
  Nd1      1.0000 0.02094  0.42555  0.32470  Biso   1.000  Nd
  Nd2      1.0000 0.00011  0.00530  0.74604  Biso   1.000  Nd
  O1       1.0000 0.90150  0.55600  0.46500  Biso   1.000  O
  O2       1.0000 0.76090  0.44500  0.28510  Biso   1.000  O
  O3       1.0000 0.88820  0.74870  0.66980  Biso   1.000  O
  O4       1.0000 0.77830  0.85990  0.60020  Biso   1.000  O
  O5       1.0000 0.81060  0.25760  0.39090  Biso   1.000  O
  O6       1.0000 0.79020  0.35040  0.58670  Biso   1.000  O
  O7       1.0000 0.88990  0.05310  0.43170  Biso   1.000  O
  O8       1.0000 0.73150  0.87580  0.28520  Biso   1.000  O
  O9       1.0000 0.88790  0.25730  0.13180  Biso   1.000  O
  O10      1.0000 0.86500  0.04960  0.13380  Biso   1.000  O
  O11      1.0000 0.67060  0.75300  0.89770  Biso   1.000  O
  O12      1.0000 0.81880  0.95590  0.86540  Biso   1.000  O
  Yb1      1.0000 0.97906  0.57445  0.67530  Biso   1.000  Yb
  Yb2      1.0000 0.99989  0.99470  0.25396  Biso   1.000  Yb
  C16      1.0000 0.22630  0.49700  0.60420  Biso   1.000  C
  C17      1.0000 0.36420  0.49370  0.54620  Biso   1.000  C
  C18      1.0000 0.36210  0.38320  0.45050  Biso   1.000  C
  C19      1.0000 0.22260  0.25130  0.39270  Biso   1.000  C
  C20      1.0000 0.50320  0.60900  0.59460  Biso   1.000  C
  H4       1.0000 0.50460  0.68190  0.65860  Biso   1.000  H
  C21      1.0000 0.24480  0.74830  0.51150  Biso   1.000  C
  C22      1.0000 0.37380  0.88150  0.50510  Biso   1.000  C
  C23      1.0000 0.37830  0.01190  0.55860  Biso   1.000  C
  C24      1.0000 0.24620  0.03010  0.61630  Biso   1.000  C
  C25      1.0000 0.49620  0.87110  0.44600  Biso   1.000  C
  H5       1.0000 0.49330  0.78440  0.40920  Biso   1.000  H
  C26      1.0000 0.18600  0.87190  0.89090  Biso   1.000  C
  C27      1.0000 0.34750  0.93650  0.95110  Biso   1.000  C
  C28      1.0000 0.40390  0.06280  0.04270  Biso   1.000  C
  C29      1.0000 0.29670  0.12470  0.09650  Biso   1.000  C
  C30      1.0000 0.44360  0.87330  0.90870  Biso   1.000  C
  H6       1.0000 0.40580  0.78890  0.84820  Biso   1.000  H
  O13      1.0000 0.09850  0.44400  0.53500  Biso   1.000  O
  O14      1.0000 0.23910  0.55500  0.71490  Biso   1.000  O
  O15      1.0000 0.11180  0.25130  0.33020  Biso   1.000  O
  O16      1.0000 0.22170  0.14010  0.39980  Biso   1.000  O
  O17      1.0000 0.18940  0.74240  0.60910  Biso   1.000  O
  O18      1.0000 0.20980  0.64960  0.41330  Biso   1.000  O
  O19      1.0000 0.11010  0.94690  0.56830  Biso   1.000  O
  O20      1.0000 0.26850  0.12420  0.71480  Biso   1.000  O
  O21      1.0000 0.11210  0.74270  0.86820  Biso   1.000  O
  O22      1.0000 0.13500  0.95040  0.86620  Biso   1.000  O
  O23      1.0000 0.32940  0.24700  0.10230  Biso   1.000  O
  O24      1.0000 0.18120  0.04410  0.13460  Biso   1.000  O
