data_image0
_cell_length_a       20.123
_cell_length_b       20.123
_cell_length_c       20.123
_cell_angle_alpha    90
_cell_angle_beta     90
_cell_angle_gamma    90

_symmetry_space_group_name_H-M    "P 1"
_symmetry_int_tables_number       1

loop_
  _symmetry_equiv_pos_as_xyz
  'x, y, z'

loop_
  _atom_site_label
  _atom_site_occupancy
  _atom_site_fract_x
  _atom_site_fract_y
  _atom_site_fract_z
  _atom_site_thermal_displace_type
  _atom_site_B_iso_or_equiv
  _atom_site_type_symbol
  Zn1      1.0000 0.35581  0.25061  0.23074  Biso   1.000  Zn
  O1       1.0000 0.44670  0.28270  0.24230  Biso   1.000  O
  O2       1.0000 0.45320  0.20720  0.16380  Biso   1.000  O
  C1       1.0000 0.47960  0.25000  0.19930  Biso   1.000  C
  C2       1.0000 0.59990  0.23180  0.15780  Biso   1.000  C
  H1       1.0000 0.59180  0.19730  0.12810  Biso   1.000  H
  C3       1.0000 0.55130  0.26340  0.19580  Biso   1.000  C
  C4       1.0000 0.58720  0.31000  0.23190  Biso   1.000  C
  H2       1.0000 0.56900  0.33910  0.26280  Biso   1.000  H
  N1       1.0000 0.65100  0.30700  0.21610  Biso   1.000  N
  N2       1.0000 0.65900  0.25760  0.16980  Biso   1.000  N
  Zn2      1.0000 0.14419  0.74939  0.73074  Biso   1.000  Zn
  O3       1.0000 0.05330  0.71730  0.74230  Biso   1.000  O
  O4       1.0000 0.04680  0.79280  0.66380  Biso   1.000  O
  C5       1.0000 0.02040  0.75000  0.69930  Biso   1.000  C
  C6       1.0000 0.90010  0.76820  0.65780  Biso   1.000  C
  H3       1.0000 0.90820  0.80270  0.62810  Biso   1.000  H
  C7       1.0000 0.94870  0.73660  0.69580  Biso   1.000  C
  C8       1.0000 0.91280  0.69000  0.73190  Biso   1.000  C
  H4       1.0000 0.93100  0.66090  0.76280  Biso   1.000  H
  N3       1.0000 0.84900  0.69300  0.71610  Biso   1.000  N
  N4       1.0000 0.84100  0.74240  0.66980  Biso   1.000  N
  Zn3      1.0000 0.64419  0.75061  0.26926  Biso   1.000  Zn
  O5       1.0000 0.55330  0.78270  0.25770  Biso   1.000  O
  O6       1.0000 0.54680  0.70720  0.33620  Biso   1.000  O
  C9       1.0000 0.52040  0.75000  0.30070  Biso   1.000  C
  C10      1.0000 0.40010  0.73180  0.34220  Biso   1.000  C
  H5       1.0000 0.40820  0.69730  0.37190  Biso   1.000  H
  C11      1.0000 0.44870  0.76340  0.30420  Biso   1.000  C
  C12      1.0000 0.41280  0.81000  0.26810  Biso   1.000  C
  H6       1.0000 0.43100  0.83910  0.23720  Biso   1.000  H
  N5       1.0000 0.34900  0.80700  0.28390  Biso   1.000  N
  N6       1.0000 0.34100  0.75760  0.33020  Biso   1.000  N
  Zn4      1.0000 0.85581  0.24939  0.76926  Biso   1.000  Zn
  O7       1.0000 0.94670  0.21730  0.75770  Biso   1.000  O
  O8       1.0000 0.95320  0.29280  0.83620  Biso   1.000  O
  C13      1.0000 0.97960  0.25000  0.80070  Biso   1.000  C
  C14      1.0000 0.09990  0.26820  0.84220  Biso   1.000  C
  H7       1.0000 0.09180  0.30270  0.87190  Biso   1.000  H
  C15      1.0000 0.05130  0.23660  0.80420  Biso   1.000  C
  C16      1.0000 0.08720  0.19000  0.76810  Biso   1.000  C
  H8       1.0000 0.06900  0.16090  0.73720  Biso   1.000  H
  N7       1.0000 0.15100  0.19300  0.78390  Biso   1.000  N
  N8       1.0000 0.15900  0.24240  0.83020  Biso   1.000  N
  Zn5      1.0000 0.23074  0.35581  0.25061  Biso   1.000  Zn
  O9       1.0000 0.24230  0.44670  0.28270  Biso   1.000  O
  O10      1.0000 0.16380  0.45320  0.20720  Biso   1.000  O
  C17      1.0000 0.19930  0.47960  0.25000  Biso   1.000  C
  C18      1.0000 0.15780  0.59990  0.23180  Biso   1.000  C
  H9       1.0000 0.12810  0.59180  0.19730  Biso   1.000  H
  C19      1.0000 0.19580  0.55130  0.26340  Biso   1.000  C
  C20      1.0000 0.23190  0.58720  0.31000  Biso   1.000  C
  H10      1.0000 0.26280  0.56900  0.33910  Biso   1.000  H
  N9       1.0000 0.21610  0.65100  0.30700  Biso   1.000  N
  N10      1.0000 0.16980  0.65900  0.25760  Biso   1.000  N
  Zn6      1.0000 0.73074  0.14419  0.74939  Biso   1.000  Zn
  O11      1.0000 0.74230  0.05330  0.71730  Biso   1.000  O
  O12      1.0000 0.66380  0.04680  0.79280  Biso   1.000  O
  C21      1.0000 0.69930  0.02040  0.75000  Biso   1.000  C
  C22      1.0000 0.65780  0.90010  0.76820  Biso   1.000  C
  H11      1.0000 0.62810  0.90820  0.80270  Biso   1.000  H
  C23      1.0000 0.69580  0.94870  0.73660  Biso   1.000  C
  C24      1.0000 0.73190  0.91280  0.69000  Biso   1.000  C
  H12      1.0000 0.76280  0.93100  0.66090  Biso   1.000  H
  N11      1.0000 0.71610  0.84900  0.69300  Biso   1.000  N
  N12      1.0000 0.66980  0.84100  0.74240  Biso   1.000  N
  Zn7      1.0000 0.26926  0.64419  0.75061  Biso   1.000  Zn
  O13      1.0000 0.25770  0.55330  0.78270  Biso   1.000  O
  O14      1.0000 0.33620  0.54680  0.70720  Biso   1.000  O
  C25      1.0000 0.30070  0.52040  0.75000  Biso   1.000  C
  C26      1.0000 0.34220  0.40010  0.73180  Biso   1.000  C
  H13      1.0000 0.37190  0.40820  0.69730  Biso   1.000  H
  C27      1.0000 0.30420  0.44870  0.76340  Biso   1.000  C
  C28      1.0000 0.26810  0.41280  0.81000  Biso   1.000  C
  H14      1.0000 0.23720  0.43100  0.83910  Biso   1.000  H
  N13      1.0000 0.28390  0.34900  0.80700  Biso   1.000  N
  N14      1.0000 0.33020  0.34100  0.75760  Biso   1.000  N
  Zn8      1.0000 0.76926  0.85581  0.24939  Biso   1.000  Zn
  O15      1.0000 0.75770  0.94670  0.21730  Biso   1.000  O
  O16      1.0000 0.83620  0.95320  0.29280  Biso   1.000  O
  C29      1.0000 0.80070  0.97960  0.25000  Biso   1.000  C
  C30      1.0000 0.84220  0.09990  0.26820  Biso   1.000  C
  H15      1.0000 0.87190  0.09180  0.30270  Biso   1.000  H
  C31      1.0000 0.80420  0.05130  0.23660  Biso   1.000  C
  C32      1.0000 0.76810  0.08720  0.19000  Biso   1.000  C
  H16      1.0000 0.73720  0.06900  0.16090  Biso   1.000  H
  N15      1.0000 0.78390  0.15100  0.19300  Biso   1.000  N
  N16      1.0000 0.83020  0.15900  0.24240  Biso   1.000  N
  Zn9      1.0000 0.25061  0.23074  0.35581  Biso   1.000  Zn
  O17      1.0000 0.28270  0.24230  0.44670  Biso   1.000  O
  O18      1.0000 0.20720  0.16380  0.45320  Biso   1.000  O
  C33      1.0000 0.25000  0.19930  0.47960  Biso   1.000  C
  C34      1.0000 0.23180  0.15780  0.59990  Biso   1.000  C
  H17      1.0000 0.19730  0.12810  0.59180  Biso   1.000  H
  C35      1.0000 0.26340  0.19580  0.55130  Biso   1.000  C
  C36      1.0000 0.31000  0.23190  0.58720  Biso   1.000  C
  H18      1.0000 0.33910  0.26280  0.56900  Biso   1.000  H
  N17      1.0000 0.30700  0.21610  0.65100  Biso   1.000  N
  N18      1.0000 0.25760  0.16980  0.65900  Biso   1.000  N
  Zn10     1.0000 0.74939  0.73074  0.14419  Biso   1.000  Zn
  O19      1.0000 0.71730  0.74230  0.05330  Biso   1.000  O
  O20      1.0000 0.79280  0.66380  0.04680  Biso   1.000  O
  C37      1.0000 0.75000  0.69930  0.02040  Biso   1.000  C
  C38      1.0000 0.76820  0.65780  0.90010  Biso   1.000  C
  H19      1.0000 0.80270  0.62810  0.90820  Biso   1.000  H
  C39      1.0000 0.73660  0.69580  0.94870  Biso   1.000  C
  C40      1.0000 0.69000  0.73190  0.91280  Biso   1.000  C
  H20      1.0000 0.66090  0.76280  0.93100  Biso   1.000  H
  N19      1.0000 0.69300  0.71610  0.84900  Biso   1.000  N
  N20      1.0000 0.74240  0.66980  0.84100  Biso   1.000  N
  Zn11     1.0000 0.75061  0.26926  0.64419  Biso   1.000  Zn
  O21      1.0000 0.78270  0.25770  0.55330  Biso   1.000  O
  O22      1.0000 0.70720  0.33620  0.54680  Biso   1.000  O
  C41      1.0000 0.75000  0.30070  0.52040  Biso   1.000  C
  C42      1.0000 0.73180  0.34220  0.40010  Biso   1.000  C
  H21      1.0000 0.69730  0.37190  0.40820  Biso   1.000  H
  C43      1.0000 0.76340  0.30420  0.44870  Biso   1.000  C
  C44      1.0000 0.81000  0.26810  0.41280  Biso   1.000  C
  H22      1.0000 0.83910  0.23720  0.43100  Biso   1.000  H
  N21      1.0000 0.80700  0.28390  0.34900  Biso   1.000  N
  N22      1.0000 0.75760  0.33020  0.34100  Biso   1.000  N
  Zn12     1.0000 0.24939  0.76926  0.85581  Biso   1.000  Zn
  O23      1.0000 0.21730  0.75770  0.94670  Biso   1.000  O
  O24      1.0000 0.29280  0.83620  0.95320  Biso   1.000  O
  C45      1.0000 0.25000  0.80070  0.97960  Biso   1.000  C
  C46      1.0000 0.26820  0.84220  0.09990  Biso   1.000  C
  H23      1.0000 0.30270  0.87190  0.09180  Biso   1.000  H
  C47      1.0000 0.23660  0.80420  0.05130  Biso   1.000  C
  C48      1.0000 0.19000  0.76810  0.08720  Biso   1.000  C
  H24      1.0000 0.16090  0.73720  0.06900  Biso   1.000  H
  N23      1.0000 0.19300  0.78390  0.15100  Biso   1.000  N
  N24      1.0000 0.24240  0.83020  0.15900  Biso   1.000  N
  Zn13     1.0000 0.64419  0.74939  0.76926  Biso   1.000  Zn
  O25      1.0000 0.55330  0.71730  0.75770  Biso   1.000  O
  O26      1.0000 0.54680  0.79280  0.83620  Biso   1.000  O
  C49      1.0000 0.52040  0.75000  0.80070  Biso   1.000  C
  C50      1.0000 0.40010  0.76820  0.84220  Biso   1.000  C
  H25      1.0000 0.40820  0.80270  0.87190  Biso   1.000  H
  C51      1.0000 0.44870  0.73660  0.80420  Biso   1.000  C
  C52      1.0000 0.41280  0.69000  0.76810  Biso   1.000  C
  H26      1.0000 0.43100  0.66090  0.73720  Biso   1.000  H
  N25      1.0000 0.34900  0.69300  0.78390  Biso   1.000  N
  N26      1.0000 0.34100  0.74240  0.83020  Biso   1.000  N
  Zn14     1.0000 0.85581  0.25061  0.26926  Biso   1.000  Zn
  O27      1.0000 0.94670  0.28270  0.25770  Biso   1.000  O
  O28      1.0000 0.95320  0.20720  0.33620  Biso   1.000  O
  C53      1.0000 0.97960  0.25000  0.30070  Biso   1.000  C
  C54      1.0000 0.09990  0.23180  0.34220  Biso   1.000  C
  H27      1.0000 0.09180  0.19730  0.37190  Biso   1.000  H
  C55      1.0000 0.05130  0.26340  0.30420  Biso   1.000  C
  C56      1.0000 0.08720  0.31000  0.26810  Biso   1.000  C
  H28      1.0000 0.06900  0.33910  0.23720  Biso   1.000  H
  N27      1.0000 0.15100  0.30700  0.28390  Biso   1.000  N
  N28      1.0000 0.15900  0.25760  0.33020  Biso   1.000  N
  Zn15     1.0000 0.35581  0.24939  0.73074  Biso   1.000  Zn
  O29      1.0000 0.44670  0.21730  0.74230  Biso   1.000  O
  O30      1.0000 0.45320  0.29280  0.66380  Biso   1.000  O
  C57      1.0000 0.47960  0.25000  0.69930  Biso   1.000  C
  C58      1.0000 0.59990  0.26820  0.65780  Biso   1.000  C
  H29      1.0000 0.59180  0.30270  0.62810  Biso   1.000  H
  C59      1.0000 0.55130  0.23660  0.69580  Biso   1.000  C
  C60      1.0000 0.58720  0.19000  0.73190  Biso   1.000  C
  H30      1.0000 0.56900  0.16090  0.76280  Biso   1.000  H
  N29      1.0000 0.65100  0.19300  0.71610  Biso   1.000  N
  N30      1.0000 0.65900  0.24240  0.66980  Biso   1.000  N
  Zn16     1.0000 0.14419  0.75061  0.23074  Biso   1.000  Zn
  O31      1.0000 0.05330  0.78270  0.24230  Biso   1.000  O
  O32      1.0000 0.04680  0.70720  0.16380  Biso   1.000  O
  C61      1.0000 0.02040  0.75000  0.19930  Biso   1.000  C
  C62      1.0000 0.90010  0.73180  0.15780  Biso   1.000  C
  H31      1.0000 0.90820  0.69730  0.12810  Biso   1.000  H
  C63      1.0000 0.94870  0.76340  0.19580  Biso   1.000  C
  C64      1.0000 0.91280  0.81000  0.23190  Biso   1.000  C
  H32      1.0000 0.93100  0.83910  0.26280  Biso   1.000  H
  N31      1.0000 0.84900  0.80700  0.21610  Biso   1.000  N
  N32      1.0000 0.84100  0.75760  0.16980  Biso   1.000  N
  Zn17     1.0000 0.76926  0.64419  0.74939  Biso   1.000  Zn
  O33      1.0000 0.75770  0.55330  0.71730  Biso   1.000  O
  O34      1.0000 0.83620  0.54680  0.79280  Biso   1.000  O
  C65      1.0000 0.80070  0.52040  0.75000  Biso   1.000  C
  C66      1.0000 0.84220  0.40010  0.76820  Biso   1.000  C
  H33      1.0000 0.87190  0.40820  0.80270  Biso   1.000  H
  C67      1.0000 0.80420  0.44870  0.73660  Biso   1.000  C
  C68      1.0000 0.76810  0.41280  0.69000  Biso   1.000  C
  H34      1.0000 0.73720  0.43100  0.66090  Biso   1.000  H
  N33      1.0000 0.78390  0.34900  0.69300  Biso   1.000  N
  N34      1.0000 0.83020  0.34100  0.74240  Biso   1.000  N
  Zn18     1.0000 0.26926  0.85581  0.25061  Biso   1.000  Zn
  O35      1.0000 0.25770  0.94670  0.28270  Biso   1.000  O
  O36      1.0000 0.33620  0.95320  0.20720  Biso   1.000  O
  C69      1.0000 0.30070  0.97960  0.25000  Biso   1.000  C
  C70      1.0000 0.34220  0.09990  0.23180  Biso   1.000  C
  H35      1.0000 0.37190  0.09180  0.19730  Biso   1.000  H
  C71      1.0000 0.30420  0.05130  0.26340  Biso   1.000  C
  C72      1.0000 0.26810  0.08720  0.31000  Biso   1.000  C
  H36      1.0000 0.23720  0.06900  0.33910  Biso   1.000  H
  N35      1.0000 0.28390  0.15100  0.30700  Biso   1.000  N
  N36      1.0000 0.33020  0.15900  0.25760  Biso   1.000  N
  Zn19     1.0000 0.73074  0.35581  0.24939  Biso   1.000  Zn
  O37      1.0000 0.74230  0.44670  0.21730  Biso   1.000  O
  O38      1.0000 0.66380  0.45320  0.29280  Biso   1.000  O
  C73      1.0000 0.69930  0.47960  0.25000  Biso   1.000  C
  C74      1.0000 0.65780  0.59990  0.26820  Biso   1.000  C
  H37      1.0000 0.62810  0.59180  0.30270  Biso   1.000  H
  C75      1.0000 0.69580  0.55130  0.23660  Biso   1.000  C
  C76      1.0000 0.73190  0.58720  0.19000  Biso   1.000  C
  H38      1.0000 0.76280  0.56900  0.16090  Biso   1.000  H
  N37      1.0000 0.71610  0.65100  0.19300  Biso   1.000  N
  N38      1.0000 0.66980  0.65900  0.24240  Biso   1.000  N
  Zn20     1.0000 0.23074  0.14419  0.75061  Biso   1.000  Zn
  O39      1.0000 0.24230  0.05330  0.78270  Biso   1.000  O
  O40      1.0000 0.16380  0.04680  0.70720  Biso   1.000  O
  C77      1.0000 0.19930  0.02040  0.75000  Biso   1.000  C
  C78      1.0000 0.15780  0.90010  0.73180  Biso   1.000  C
  H39      1.0000 0.12810  0.90820  0.69730  Biso   1.000  H
  C79      1.0000 0.19580  0.94870  0.76340  Biso   1.000  C
  C80      1.0000 0.23190  0.91280  0.81000  Biso   1.000  C
  H40      1.0000 0.26280  0.93100  0.83910  Biso   1.000  H
  N39      1.0000 0.21610  0.84900  0.80700  Biso   1.000  N
  N40      1.0000 0.16980  0.84100  0.75760  Biso   1.000  N
  Zn21     1.0000 0.74939  0.76926  0.64419  Biso   1.000  Zn
  O41      1.0000 0.71730  0.75770  0.55330  Biso   1.000  O
  O42      1.0000 0.79280  0.83620  0.54680  Biso   1.000  O
  C81      1.0000 0.75000  0.80070  0.52040  Biso   1.000  C
  C82      1.0000 0.76820  0.84220  0.40010  Biso   1.000  C
  H41      1.0000 0.80270  0.87190  0.40820  Biso   1.000  H
  C83      1.0000 0.73660  0.80420  0.44870  Biso   1.000  C
  C84      1.0000 0.69000  0.76810  0.41280  Biso   1.000  C
  H42      1.0000 0.66090  0.73720  0.43100  Biso   1.000  H
  N41      1.0000 0.69300  0.78390  0.34900  Biso   1.000  N
  N42      1.0000 0.74240  0.83020  0.34100  Biso   1.000  N
  Zn22     1.0000 0.25061  0.26926  0.85581  Biso   1.000  Zn
  O43      1.0000 0.28270  0.25770  0.94670  Biso   1.000  O
  O44      1.0000 0.20720  0.33620  0.95320  Biso   1.000  O
  C85      1.0000 0.25000  0.30070  0.97960  Biso   1.000  C
  C86      1.0000 0.23180  0.34220  0.09990  Biso   1.000  C
  H43      1.0000 0.19730  0.37190  0.09180  Biso   1.000  H
  C87      1.0000 0.26340  0.30420  0.05130  Biso   1.000  C
  C88      1.0000 0.31000  0.26810  0.08720  Biso   1.000  C
  H44      1.0000 0.33910  0.23720  0.06900  Biso   1.000  H
  N43      1.0000 0.30700  0.28390  0.15100  Biso   1.000  N
  N44      1.0000 0.25760  0.33020  0.15900  Biso   1.000  N
  Zn23     1.0000 0.24939  0.73074  0.35581  Biso   1.000  Zn
  O45      1.0000 0.21730  0.74230  0.44670  Biso   1.000  O
  O46      1.0000 0.29280  0.66380  0.45320  Biso   1.000  O
  C89      1.0000 0.25000  0.69930  0.47960  Biso   1.000  C
  C90      1.0000 0.26820  0.65780  0.59990  Biso   1.000  C
  H45      1.0000 0.30270  0.62810  0.59180  Biso   1.000  H
  C91      1.0000 0.23660  0.69580  0.55130  Biso   1.000  C
  C92      1.0000 0.19000  0.73190  0.58720  Biso   1.000  C
  H46      1.0000 0.16090  0.76280  0.56900  Biso   1.000  H
  N45      1.0000 0.19300  0.71610  0.65100  Biso   1.000  N
  N46      1.0000 0.24240  0.66980  0.65900  Biso   1.000  N
  Zn24     1.0000 0.75061  0.23074  0.14419  Biso   1.000  Zn
  O47      1.0000 0.78270  0.24230  0.05330  Biso   1.000  O
  O48      1.0000 0.70720  0.16380  0.04680  Biso   1.000  O
  C93      1.0000 0.75000  0.19930  0.02040  Biso   1.000  C
  C94      1.0000 0.73180  0.15780  0.90010  Biso   1.000  C
  H47      1.0000 0.69730  0.12810  0.90820  Biso   1.000  H
  C95      1.0000 0.76340  0.19580  0.94870  Biso   1.000  C
  C96      1.0000 0.81000  0.23190  0.91280  Biso   1.000  C
  H48      1.0000 0.83910  0.26280  0.93100  Biso   1.000  H
  N47      1.0000 0.80700  0.21610  0.84900  Biso   1.000  N
  N48      1.0000 0.75760  0.16980  0.84100  Biso   1.000  N
  O49      1.0000 0.30003  0.30003  0.30003  Biso   1.000  O
  O50      1.0000 0.19997  0.69997  0.80003  Biso   1.000  O
  O51      1.0000 0.69997  0.80003  0.19997  Biso   1.000  O
  O52      1.0000 0.80003  0.19997  0.69997  Biso   1.000  O
  O53      1.0000 0.69997  0.69997  0.69997  Biso   1.000  O
  O54      1.0000 0.80003  0.30003  0.19997  Biso   1.000  O
  O55      1.0000 0.30003  0.19997  0.80003  Biso   1.000  O
  O56      1.0000 0.19997  0.80003  0.30003  Biso   1.000  O
