data_NUVYIN_clean
_audit_creation_date              2014-07-02
_audit_creation_method            'Materials Studio'
_symmetry_space_group_name_H-M    'P1'
_symmetry_Int_Tables_number       1
_symmetry_cell_setting            triclinic
loop_
_symmetry_equiv_pos_as_xyz
  x,y,z
_cell_length_a                    11.2149
_cell_length_b                    17.0025
_cell_length_c                    20.3176
_cell_angle_alpha                 65.2652
_cell_angle_beta                  87.9489
_cell_angle_gamma                 85.0930
loop_
_atom_site_label
_atom_site_type_symbol
_atom_site_fract_x
_atom_site_fract_y
_atom_site_fract_z
_atom_site_U_iso_or_equiv
_atom_site_adp_type
_atom_site_occupancy
Ni1    Ni    0.09149   0.22184   0.95052   0.01267  Uiso   1.00
Ni2    Ni    0.40851   0.82764   0.95052   0.01267  Uiso   1.00
Ni3    Ni    0.90851   0.77816   0.04948   0.01267  Uiso   1.00
Ni4    Ni    0.59149   0.17236   0.04948   0.01267  Uiso   1.00
Ni5    Ni    0.25000   0.76073   0.47854   0.01267  Uiso   1.00
Ni6    Ni    0.75000   0.23927   0.52146   0.01267  Uiso   1.00
H1     H     0.48990   0.35570   0.81180   0.01267  Uiso   1.00
H2     H     0.52630   0.42530   0.68980   0.01267  Uiso   1.00
H3     H     0.71580   0.41670   0.64520   0.01267  Uiso   1.00
H4     H     0.02960   0.36300   0.60240   0.01267  Uiso   1.00
H5     H     0.13160   0.48550   0.53400   0.01267  Uiso   1.00
H6     H     0.01470   0.59210   0.66800   0.01267  Uiso   1.00
H7     H     0.92060   0.46770   0.73840   0.01267  Uiso   1.00
H8     H     0.16890   0.77020   0.33440   0.01267  Uiso   1.00
H9     H     0.03640   0.84990   0.24320   0.01267  Uiso   1.00
H10    H     0.89170   0.95970   0.37060   0.01267  Uiso   1.00
H11    H     0.03250   0.88040   0.45640   0.01267  Uiso   1.00
H12    H     0.83430   0.07310   0.06440   0.01267  Uiso   1.00
H13    H     0.96610   0.98160   0.15060   0.01267  Uiso   1.00
H14    H     0.72490   0.97900   0.30120   0.01267  Uiso   1.00
H15    H     0.59920   0.06890   0.21060   0.01267  Uiso   1.00
H16    H     0.31870   0.30530   0.94360   0.01267  Uiso   1.00
H17    H     0.38750   0.42980   0.93720   0.01267  Uiso   1.00
H18    H     0.05330   0.54040   0.89620   0.01267  Uiso   1.00
H19    H     0.99390   0.41180   0.90400   0.01267  Uiso   1.00
H20    H     0.01010   0.83250   0.81180   0.01267  Uiso   1.00
H21    H     0.97370   0.88490   0.68980   0.01267  Uiso   1.00
H22    H     0.78420   0.93810   0.64520   0.01267  Uiso   1.00
H23    H     0.47040   0.03460   0.60240   0.01267  Uiso   1.00
H24    H     0.36840   0.98050   0.53400   0.01267  Uiso   1.00
H25    H     0.48530   0.73990   0.66800   0.01267  Uiso   1.00
H26    H     0.57940   0.79390   0.73840   0.01267  Uiso   1.00
H27    H     0.33110   0.89540   0.33440   0.01267  Uiso   1.00
H28    H     0.46360   0.90690   0.24320   0.01267  Uiso   1.00
H29    H     0.60830   0.66970   0.37060   0.01267  Uiso   1.00
H30    H     0.46750   0.66320   0.45640   0.01267  Uiso   1.00
H31    H     0.66570   0.86250   0.06440   0.01267  Uiso   1.00
H32    H     0.53390   0.86780   0.15060   0.01267  Uiso   1.00
H33    H     0.77510   0.71980   0.30120   0.01267  Uiso   1.00
H34    H     0.90080   0.72050   0.21060   0.01267  Uiso   1.00
H35    H     0.18130   0.75110   0.94360   0.01267  Uiso   1.00
H36    H     0.11250   0.63300   0.93720   0.01267  Uiso   1.00
H37    H     0.44670   0.56340   0.89620   0.01267  Uiso   1.00
H38    H     0.50610   0.68420   0.90400   0.01267  Uiso   1.00
H39    H     0.51010   0.64430   0.18820   0.01267  Uiso   1.00
H40    H     0.47370   0.57470   0.31020   0.01267  Uiso   1.00
H41    H     0.28420   0.58330   0.35480   0.01267  Uiso   1.00
H42    H     0.97040   0.63700   0.39760   0.01267  Uiso   1.00
H43    H     0.86840   0.51450   0.46600   0.01267  Uiso   1.00
H44    H     0.98530   0.40790   0.33200   0.01267  Uiso   1.00
H45    H     0.07940   0.53230   0.26160   0.01267  Uiso   1.00
H46    H     0.83110   0.22980   0.66560   0.01267  Uiso   1.00
H47    H     0.96360   0.15010   0.75680   0.01267  Uiso   1.00
H48    H     0.10830   0.04030   0.62940   0.01267  Uiso   1.00
H49    H     0.96750   0.11960   0.54360   0.01267  Uiso   1.00
H50    H     0.16570   0.92690   0.93560   0.01267  Uiso   1.00
H51    H     0.03390   0.01840   0.84940   0.01267  Uiso   1.00
H52    H     0.27510   0.02100   0.69880   0.01267  Uiso   1.00
H53    H     0.40080   0.93110   0.78940   0.01267  Uiso   1.00
H54    H     0.68130   0.69470   0.05640   0.01267  Uiso   1.00
H55    H     0.61250   0.57020   0.06280   0.01267  Uiso   1.00
H56    H     0.94670   0.45960   0.10380   0.01267  Uiso   1.00
H57    H     0.00610   0.58820   0.09600   0.01267  Uiso   1.00
H58    H     0.98990   0.16750   0.18820   0.01267  Uiso   1.00
H59    H     0.02630   0.11510   0.31020   0.01267  Uiso   1.00
H60    H     0.21580   0.06190   0.35480   0.01267  Uiso   1.00
H61    H     0.52960   0.96540   0.39760   0.01267  Uiso   1.00
H62    H     0.63160   0.01950   0.46600   0.01267  Uiso   1.00
H63    H     0.51470   0.26010   0.33200   0.01267  Uiso   1.00
H64    H     0.42060   0.20610   0.26160   0.01267  Uiso   1.00
H65    H     0.66890   0.10460   0.66560   0.01267  Uiso   1.00
H66    H     0.53640   0.09310   0.75680   0.01267  Uiso   1.00
H67    H     0.39170   0.33030   0.62940   0.01267  Uiso   1.00
H68    H     0.53250   0.33680   0.54360   0.01267  Uiso   1.00
H69    H     0.33430   0.13750   0.93560   0.01267  Uiso   1.00
H70    H     0.46610   0.13220   0.84940   0.01267  Uiso   1.00
H71    H     0.22490   0.28020   0.69880   0.01267  Uiso   1.00
H72    H     0.09920   0.27950   0.78940   0.01267  Uiso   1.00
H73    H     0.81870   0.24890   0.05640   0.01267  Uiso   1.00
H74    H     0.88750   0.36700   0.06280   0.01267  Uiso   1.00
H75    H     0.55330   0.43660   0.10380   0.01267  Uiso   1.00
H76    H     0.49390   0.31580   0.09600   0.01267  Uiso   1.00
C1     C     0.63090   0.25506   0.92108   0.01267  Uiso   1.00
C2     C     0.87840   0.23851   0.86192   0.01267  Uiso   1.00
C3     C     0.65820   0.30089   0.84182   0.01267  Uiso   1.00
C4     C     0.56650   0.35087   0.79406   0.01267  Uiso   1.00
C5     C     0.58840   0.39309   0.72122   0.01267  Uiso   1.00
C6     C     0.70110   0.38803   0.69454   0.01267  Uiso   1.00
C7     C     0.79360   0.33977   0.74166   0.01267  Uiso   1.00
C8     C     0.77450   0.29401   0.81544   0.01267  Uiso   1.00
C9     C     0.96260   0.40640   0.67420   0.01267  Uiso   1.00
C10    C     0.02630   0.40949   0.61542   0.01267  Uiso   1.00
C11    C     0.08730   0.48330   0.57420   0.01267  Uiso   1.00
C12    C     0.08190   0.55229   0.59302   0.01267  Uiso   1.00
C13    C     0.01850   0.54612   0.65436   0.01267  Uiso   1.00
C14    C     0.96040   0.47224   0.69612   0.01267  Uiso   1.00
C15    C     0.14360   0.63217   0.54866   0.01267  Uiso   1.00
C16    C     0.11380   0.81031   0.34098   0.01267  Uiso   1.00
C17    C     0.03350   0.85728   0.28604   0.01267  Uiso   1.00
C18    C     0.94870   0.91562   0.29556   0.01267  Uiso   1.00
C19    C     0.94880   0.92257   0.36146   0.01267  Uiso   1.00
C20    C     0.03340   0.87434   0.41292   0.01267  Uiso   1.00
C21    C     0.81220   0.05393   0.11294   0.01267  Uiso   1.00
C22    C     0.89220   0.99933   0.16434   0.01267  Uiso   1.00
C23    C     0.86210   0.97045   0.23750   0.01267  Uiso   1.00
C24    C     0.74980   0.99756   0.25328   0.01267  Uiso   1.00
C25    C     0.67460   0.05188   0.19824   0.01267  Uiso   1.00
C26    C     0.26410   0.35277   0.93546   0.01267  Uiso   1.00
C27    C     0.30620   0.42768   0.93124   0.01267  Uiso   1.00
C28    C     0.22900   0.50045   0.91810   0.01267  Uiso   1.00
C29    C     0.10900   0.49301   0.90698   0.01267  Uiso   1.00
C30    C     0.07400   0.41510   0.91220   0.01267  Uiso   1.00
C31    C     0.86910   0.82386   0.92108   0.01267  Uiso   1.00
C32    C     0.62160   0.89957   0.86192   0.01267  Uiso   1.00
C33    C     0.84180   0.85729   0.84182   0.01267  Uiso   1.00
C34    C     0.93350   0.85507   0.79406   0.01267  Uiso   1.00
C35    C     0.91160   0.88569   0.72122   0.01267  Uiso   1.00
C36    C     0.79890   0.91743   0.69454   0.01267  Uiso   1.00
C37    C     0.70640   0.91857   0.74166   0.01267  Uiso   1.00
C38    C     0.72550   0.89055   0.81544   0.01267  Uiso   1.00
C39    C     0.53740   0.91940   0.67420   0.01267  Uiso   1.00
C40    C     0.47370   0.97509   0.61542   0.01267  Uiso   1.00
C41    C     0.41270   0.94250   0.57420   0.01267  Uiso   1.00
C42    C     0.41810   0.85469   0.59302   0.01267  Uiso   1.00
C43    C     0.48150   0.79952   0.65436   0.01267  Uiso   1.00
C44    C     0.53960   0.83164   0.69612   0.01267  Uiso   1.00
C45    C     0.35640   0.81917   0.54866   0.01267  Uiso   1.00
C46    C     0.38620   0.84871   0.34098   0.01267  Uiso   1.00
C47    C     0.46650   0.85668   0.28604   0.01267  Uiso   1.00
C48    C     0.55130   0.78882   0.29556   0.01267  Uiso   1.00
C49    C     0.55120   0.71597   0.36146   0.01267  Uiso   1.00
C50    C     0.46660   0.71274   0.41292   0.01267  Uiso   1.00
C51    C     0.68780   0.83313   0.11294   0.01267  Uiso   1.00
C52    C     0.60780   0.83633   0.16434   0.01267  Uiso   1.00
C53    C     0.63790   0.79205   0.23750   0.01267  Uiso   1.00
C54    C     0.75020   0.74916   0.25328   0.01267  Uiso   1.00
C55    C     0.82540   0.74988   0.19824   0.01267  Uiso   1.00
C56    C     0.23590   0.71177   0.93546   0.01267  Uiso   1.00
C57    C     0.19380   0.64108   0.93124   0.01267  Uiso   1.00
C58    C     0.27100   0.58145   0.91810   0.01267  Uiso   1.00
C59    C     0.39100   0.60001   0.90698   0.01267  Uiso   1.00
C60    C     0.42600   0.67270   0.91220   0.01267  Uiso   1.00
C61    C     0.36910   0.74494   0.07892   0.01267  Uiso   1.00
C62    C     0.12160   0.76149   0.13808   0.01267  Uiso   1.00
C63    C     0.34180   0.69911   0.15818   0.01267  Uiso   1.00
C64    C     0.43350   0.64913   0.20594   0.01267  Uiso   1.00
C65    C     0.41160   0.60691   0.27878   0.01267  Uiso   1.00
C66    C     0.29890   0.61197   0.30546   0.01267  Uiso   1.00
C67    C     0.20640   0.66023   0.25834   0.01267  Uiso   1.00
C68    C     0.22550   0.70599   0.18456   0.01267  Uiso   1.00
C69    C     0.03740   0.59360   0.32580   0.01267  Uiso   1.00
C70    C     0.97370   0.59051   0.38458   0.01267  Uiso   1.00
C71    C     0.91270   0.51670   0.42580   0.01267  Uiso   1.00
C72    C     0.91810   0.44771   0.40698   0.01267  Uiso   1.00
C73    C     0.98150   0.45388   0.34564   0.01267  Uiso   1.00
C74    C     0.03960   0.52776   0.30388   0.01267  Uiso   1.00
C75    C     0.85640   0.36783   0.45134   0.01267  Uiso   1.00
C76    C     0.88620   0.18969   0.65902   0.01267  Uiso   1.00
C77    C     0.96650   0.14272   0.71396   0.01267  Uiso   1.00
C78    C     0.05130   0.08438   0.70444   0.01267  Uiso   1.00
C79    C     0.05120   0.07743   0.63854   0.01267  Uiso   1.00
C80    C     0.96660   0.12566   0.58708   0.01267  Uiso   1.00
C81    C     0.18780   0.94607   0.88706   0.01267  Uiso   1.00
C82    C     0.10780   0.00067   0.83566   0.01267  Uiso   1.00
C83    C     0.13790   0.02955   0.76250   0.01267  Uiso   1.00
C84    C     0.25020   0.00244   0.74672   0.01267  Uiso   1.00
C85    C     0.32540   0.94812   0.80176   0.01267  Uiso   1.00
C86    C     0.73590   0.64723   0.06454   0.01267  Uiso   1.00
C87    C     0.69380   0.57232   0.06876   0.01267  Uiso   1.00
C88    C     0.77100   0.49955   0.08190   0.01267  Uiso   1.00
C89    C     0.89100   0.50699   0.09302   0.01267  Uiso   1.00
C90    C     0.92600   0.58490   0.08780   0.01267  Uiso   1.00
C91    C     0.13090   0.17614   0.07892   0.01267  Uiso   1.00
C92    C     0.37840   0.10043   0.13808   0.01267  Uiso   1.00
C93    C     0.15820   0.14271   0.15818   0.01267  Uiso   1.00
C94    C     0.06650   0.14493   0.20594   0.01267  Uiso   1.00
C95    C     0.08840   0.11431   0.27878   0.01267  Uiso   1.00
C96    C     0.20110   0.08257   0.30546   0.01267  Uiso   1.00
C97    C     0.29360   0.08143   0.25834   0.01267  Uiso   1.00
C98    C     0.27450   0.10945   0.18456   0.01267  Uiso   1.00
C99    C     0.46260   0.08060   0.32580   0.01267  Uiso   1.00
C100   C     0.52630   0.02491   0.38458   0.01267  Uiso   1.00
C101   C     0.58730   0.05750   0.42580   0.01267  Uiso   1.00
C102   C     0.58190   0.14531   0.40698   0.01267  Uiso   1.00
C103   C     0.51850   0.20048   0.34564   0.01267  Uiso   1.00
C104   C     0.46040   0.16836   0.30388   0.01267  Uiso   1.00
C105   C     0.64360   0.18083   0.45134   0.01267  Uiso   1.00
C106   C     0.61380   0.15129   0.65902   0.01267  Uiso   1.00
C107   C     0.53350   0.14332   0.71396   0.01267  Uiso   1.00
C108   C     0.44870   0.21118   0.70444   0.01267  Uiso   1.00
C109   C     0.44880   0.28403   0.63854   0.01267  Uiso   1.00
C110   C     0.53340   0.28726   0.58708   0.01267  Uiso   1.00
C111   C     0.31220   0.16687   0.88706   0.01267  Uiso   1.00
C112   C     0.39220   0.16367   0.83566   0.01267  Uiso   1.00
C113   C     0.36210   0.20795   0.76250   0.01267  Uiso   1.00
C114   C     0.24980   0.25084   0.74672   0.01267  Uiso   1.00
C115   C     0.17460   0.25012   0.80176   0.01267  Uiso   1.00
C116   C     0.76410   0.28823   0.06454   0.01267  Uiso   1.00
C117   C     0.80620   0.35892   0.06876   0.01267  Uiso   1.00
C118   C     0.72900   0.41855   0.08190   0.01267  Uiso   1.00
C119   C     0.60900   0.39999   0.09302   0.01267  Uiso   1.00
C120   C     0.57400   0.32730   0.08780   0.01267  Uiso   1.00
N1     N     0.11690   0.81911   0.40324   0.01267  Uiso   1.00
N2     N     0.70340   0.08157   0.12842   0.01267  Uiso   1.00
N3     N     0.14820   0.34379   0.92844   0.01267  Uiso   1.00
N4     N     0.38310   0.77765   0.40324   0.01267  Uiso   1.00
N5     N     0.79660   0.79001   0.12842   0.01267  Uiso   1.00
N6     N     0.35180   0.72777   0.92844   0.01267  Uiso   1.00
N7     N     0.88310   0.18089   0.59676   0.01267  Uiso   1.00
N8     N     0.29660   0.91843   0.87158   0.01267  Uiso   1.00
N9     N     0.85180   0.65621   0.07156   0.01267  Uiso   1.00
N10    N     0.61690   0.22235   0.59676   0.01267  Uiso   1.00
N11    N     0.20340   0.20999   0.87158   0.01267  Uiso   1.00
N12    N     0.64820   0.27223   0.07156   0.01267  Uiso   1.00
O1     O     0.71052   0.20259   0.96266   0.01267  Uiso   1.00
O2     O     0.53040   0.26938   0.94522   0.01267  Uiso   1.00
O3     O     0.89480   0.16192   0.86840   0.01267  Uiso   1.00
O4     O     0.94478   0.27639   0.88688   0.01267  Uiso   1.00
O5     O     0.90830   0.33049   0.71538   0.01267  Uiso   1.00
O6     O     0.12350   0.69972   0.56014   0.01267  Uiso   1.00
O7     O     0.21710   0.63289   0.49968   0.01267  Uiso   1.00
O8     O     0.78948   0.83475   0.96266   0.01267  Uiso   1.00
O9     O     0.96960   0.78540   0.94522   0.01267  Uiso   1.00
O10    O     0.60520   0.96968   0.86840   0.01267  Uiso   1.00
O11    O     0.55522   0.83673   0.88688   0.01267  Uiso   1.00
O12    O     0.59170   0.95413   0.71538   0.01267  Uiso   1.00
O13    O     0.37650   0.74014   0.56014   0.01267  Uiso   1.00
O14    O     0.28290   0.86743   0.49968   0.01267  Uiso   1.00
O15    O     0.28948   0.79741   0.03734   0.01267  Uiso   1.00
O16    O     0.46960   0.73062   0.05478   0.01267  Uiso   1.00
O17    O     0.10520   0.83808   0.13160   0.01267  Uiso   1.00
O18    O     0.05522   0.72361   0.11312   0.01267  Uiso   1.00
O19    O     0.09170   0.66951   0.28462   0.01267  Uiso   1.00
O20    O     0.87650   0.30028   0.43986   0.01267  Uiso   1.00
O21    O     0.78290   0.36711   0.50032   0.01267  Uiso   1.00
O22    O     0.21052   0.16525   0.03734   0.01267  Uiso   1.00
O23    O     0.03040   0.21460   0.05478   0.01267  Uiso   1.00
O24    O     0.39480   0.03032   0.13160   0.01267  Uiso   1.00
O25    O     0.44478   0.16327   0.11312   0.01267  Uiso   1.00
O26    O     0.40830   0.04587   0.28462   0.01267  Uiso   1.00
O27    O     0.62350   0.25986   0.43986   0.01267  Uiso   1.00
O28    O     0.71710   0.13257   0.50032   0.01267  Uiso   1.00
