data_NUVYOT_clean
_audit_creation_date              2014-07-02
_audit_creation_method            'Materials Studio'
_symmetry_space_group_name_H-M    'P1'
_symmetry_Int_Tables_number       1
_symmetry_cell_setting            triclinic
loop_
_symmetry_equiv_pos_as_xyz
  x,y,z
_cell_length_a                    11.2856
_cell_length_b                    11.2856
_cell_length_c                    27.0590
_cell_angle_alpha                 94.0540
_cell_angle_beta                  94.0540
_cell_angle_gamma                 119.7040
loop_
_atom_site_label
_atom_site_type_symbol
_atom_site_fract_x
_atom_site_fract_y
_atom_site_fract_z
_atom_site_U_iso_or_equiv
_atom_site_adp_type
_atom_site_occupancy
Ni1    Ni    0.75526   0.51254   0.57532   0.01267  Uiso   1.00
Ni2    Ni    0.74039   0.37047   0.39196   0.01267  Uiso   1.00
Ni3    Ni    0.51254   0.75526   0.07532   0.01267  Uiso   1.00
Ni4    Ni    0.37047   0.74039   0.89196   0.01267  Uiso   1.00
H1     H     0.77830   0.45930   0.74530   0.01267  Uiso   1.00
H2     H     0.78960   0.52280   0.82570   0.01267  Uiso   1.00
H3     H     0.77420   0.71340   0.85290   0.01267  Uiso   1.00
H4     H     0.98020   0.07860   0.79390   0.01267  Uiso   1.00
H5     H     0.12970   0.24690   0.85720   0.01267  Uiso   1.00
H6     H     0.07600   0.24140   0.93640   0.01267  Uiso   1.00
H7     H     0.86870   0.05510   0.95480   0.01267  Uiso   1.00
H8     H     0.00950   0.09330   0.50740   0.01267  Uiso   1.00
H9     H     0.86550   0.94090   0.44460   0.01267  Uiso   1.00
H10    H     0.69850   0.96690   0.40120   0.01267  Uiso   1.00
H11    H     0.48220   0.96360   0.45180   0.01267  Uiso   1.00
H12    H     0.28050   0.77070   0.41420   0.01267  Uiso   1.00
H13    H     0.21720   0.75040   0.32950   0.01267  Uiso   1.00
H14    H     0.34400   0.92440   0.28500   0.01267  Uiso   1.00
H15    H     0.87120   0.82120   0.59210   0.01267  Uiso   1.00
H16    H     0.06370   0.02330   0.59130   0.01267  Uiso   1.00
H17    H     0.25730   0.82310   0.55660   0.01267  Uiso   1.00
H18    H     0.05550   0.61730   0.55800   0.01267  Uiso   1.00
H19    H     0.64720   0.21200   0.57840   0.01267  Uiso   1.00
H20    H     0.44340   0.00240   0.57620   0.01267  Uiso   1.00
H21    H     0.23920   0.21000   0.57070   0.01267  Uiso   1.00
H22    H     0.44400   0.40180   0.56950   0.01267  Uiso   1.00
H23    H     0.88790   0.25790   0.32750   0.01267  Uiso   1.00
H24    H     0.09100   0.26280   0.32460   0.01267  Uiso   1.00
H25    H     0.23540   0.53240   0.44800   0.01267  Uiso   1.00
H26    H     0.03250   0.52530   0.44520   0.01267  Uiso   1.00
H27    H     0.55080   0.41220   0.32200   0.01267  Uiso   1.00
H28    H     0.36160   0.43800   0.31870   0.01267  Uiso   1.00
H29    H     0.32870   0.36350   0.46040   0.01267  Uiso   1.00
H30    H     0.52300   0.34280   0.46050   0.01267  Uiso   1.00
H31    H     0.45930   0.77830   0.24530   0.01267  Uiso   1.00
H32    H     0.52280   0.78960   0.32570   0.01267  Uiso   1.00
H33    H     0.71340   0.77420   0.35290   0.01267  Uiso   1.00
H34    H     0.07860   0.98020   0.29390   0.01267  Uiso   1.00
H35    H     0.24690   0.12970   0.35720   0.01267  Uiso   1.00
H36    H     0.24140   0.07600   0.43640   0.01267  Uiso   1.00
H37    H     0.05510   0.86870   0.45480   0.01267  Uiso   1.00
H38    H     0.09330   0.00950   0.00740   0.01267  Uiso   1.00
H39    H     0.94090   0.86550   0.94460   0.01267  Uiso   1.00
H40    H     0.96690   0.69850   0.90120   0.01267  Uiso   1.00
H41    H     0.96360   0.48220   0.95180   0.01267  Uiso   1.00
H42    H     0.77070   0.28050   0.91420   0.01267  Uiso   1.00
H43    H     0.75040   0.21720   0.82950   0.01267  Uiso   1.00
H44    H     0.92440   0.34400   0.78500   0.01267  Uiso   1.00
H45    H     0.82120   0.87120   0.09210   0.01267  Uiso   1.00
H46    H     0.02330   0.06370   0.09130   0.01267  Uiso   1.00
H47    H     0.82310   0.25730   0.05660   0.01267  Uiso   1.00
H48    H     0.61730   0.05550   0.05800   0.01267  Uiso   1.00
H49    H     0.21200   0.64720   0.07840   0.01267  Uiso   1.00
H50    H     0.00240   0.44340   0.07620   0.01267  Uiso   1.00
H51    H     0.21000   0.23920   0.07070   0.01267  Uiso   1.00
H52    H     0.40180   0.44400   0.06950   0.01267  Uiso   1.00
H53    H     0.25790   0.88790   0.82750   0.01267  Uiso   1.00
H54    H     0.26280   0.09100   0.82460   0.01267  Uiso   1.00
H55    H     0.53240   0.23540   0.94800   0.01267  Uiso   1.00
H56    H     0.52530   0.03250   0.94520   0.01267  Uiso   1.00
H57    H     0.41220   0.55080   0.82200   0.01267  Uiso   1.00
H58    H     0.43800   0.36160   0.81870   0.01267  Uiso   1.00
H59    H     0.36350   0.32870   0.96040   0.01267  Uiso   1.00
H60    H     0.34280   0.52300   0.96050   0.01267  Uiso   1.00
C1     C     0.75240   0.57020   0.66430   0.01267  Uiso   1.00
C2     C     0.72810   0.81590   0.69690   0.01267  Uiso   1.00
C3     C     0.75470   0.61110   0.71780   0.01267  Uiso   1.00
C4     C     0.77180   0.53640   0.75490   0.01267  Uiso   1.00
C5     C     0.77860   0.57440   0.80240   0.01267  Uiso   1.00
C6     C     0.76990   0.68830   0.81900   0.01267  Uiso   1.00
C7     C     0.75480   0.76340   0.78350   0.01267  Uiso   1.00
C8     C     0.74480   0.72640   0.73280   0.01267  Uiso   1.00
C9     C     0.83390   0.97350   0.83740   0.01267  Uiso   1.00
C10    C     0.95720   0.07620   0.82630   0.01267  Uiso   1.00
C11    C     0.04640   0.17580   0.86440   0.01267  Uiso   1.00
C12    C     0.01570   0.17250   0.91120   0.01267  Uiso   1.00
C13    C     0.88910   0.06170   0.92210   0.01267  Uiso   1.00
C14    C     0.79770   0.96490   0.88450   0.01267  Uiso   1.00
C15    C     0.66450   0.85030   0.89810   0.01267  Uiso   1.00
C16    C     0.83030   0.24010   0.48200   0.01267  Uiso   1.00
C17    C     0.93260   0.22320   0.50740   0.01267  Uiso   1.00
C18    C     0.94220   0.10680   0.49120   0.01267  Uiso   1.00
C19    C     0.85740   0.01740   0.45380   0.01267  Uiso   1.00
C20    C     0.75790   0.03150   0.42760   0.01267  Uiso   1.00
C21    C     0.75050   0.14850   0.44260   0.01267  Uiso   1.00
C22    C     0.81280   0.36440   0.49870   0.01267  Uiso   1.00
C23    C     0.03270   0.32190   0.55130   0.01267  Uiso   1.00
C24    C     0.53150   0.05610   0.38910   0.01267  Uiso   1.00
C25    C     0.45420   0.95460   0.41790   0.01267  Uiso   1.00
C26    C     0.33460   0.83980   0.39550   0.01267  Uiso   1.00
C27    C     0.29610   0.82850   0.34510   0.01267  Uiso   1.00
C28    C     0.37350   0.93170   0.31860   0.01267  Uiso   1.00
C29    C     0.49460   0.04760   0.33950   0.01267  Uiso   1.00
C30    C     0.57200   0.15200   0.30640   0.01267  Uiso   1.00
C31    C     0.95020   0.82040   0.58500   0.01267  Uiso   1.00
C32    C     0.06540   0.94220   0.58430   0.01267  Uiso   1.00
C33    C     0.18700   0.94860   0.57340   0.01267  Uiso   1.00
C34    C     0.17890   0.82510   0.56400   0.01267  Uiso   1.00
C35    C     0.05650   0.69970   0.56500   0.01267  Uiso   1.00
C36    C     0.56380   0.21040   0.57600   0.01267  Uiso   1.00
C37    C     0.44010   0.08290   0.57500   0.01267  Uiso   1.00
C38    C     0.31600   0.07820   0.57230   0.01267  Uiso   1.00
C39    C     0.31920   0.20540   0.57130   0.01267  Uiso   1.00
C40    C     0.44330   0.31950   0.57130   0.01267  Uiso   1.00
C41    C     0.95970   0.31430   0.35240   0.01267  Uiso   1.00
C42    C     0.08190   0.31690   0.34990   0.01267  Uiso   1.00
C43    C     0.19020   0.40120   0.38560   0.01267  Uiso   1.00
C44    C     0.16600   0.47660   0.42240   0.01267  Uiso   1.00
C45    C     0.04380   0.46960   0.42130   0.01267  Uiso   1.00
C46    C     0.50440   0.39980   0.35000   0.01267  Uiso   1.00
C47    C     0.39050   0.41550   0.34780   0.01267  Uiso   1.00
C48    C     0.31920   0.39780   0.38850   0.01267  Uiso   1.00
C49    C     0.37100   0.37200   0.43150   0.01267  Uiso   1.00
C50    C     0.48780   0.35860   0.43120   0.01267  Uiso   1.00
C51    C     0.57020   0.75240   0.16430   0.01267  Uiso   1.00
C52    C     0.81590   0.72810   0.19690   0.01267  Uiso   1.00
C53    C     0.61110   0.75470   0.21780   0.01267  Uiso   1.00
C54    C     0.53640   0.77180   0.25490   0.01267  Uiso   1.00
C55    C     0.57440   0.77860   0.30240   0.01267  Uiso   1.00
C56    C     0.68830   0.76990   0.31900   0.01267  Uiso   1.00
C57    C     0.76340   0.75480   0.28350   0.01267  Uiso   1.00
C58    C     0.72640   0.74480   0.23280   0.01267  Uiso   1.00
C59    C     0.97350   0.83390   0.33740   0.01267  Uiso   1.00
C60    C     0.07620   0.95720   0.32630   0.01267  Uiso   1.00
C61    C     0.17580   0.04640   0.36440   0.01267  Uiso   1.00
C62    C     0.17250   0.01570   0.41120   0.01267  Uiso   1.00
C63    C     0.06170   0.88910   0.42210   0.01267  Uiso   1.00
C64    C     0.96490   0.79770   0.38450   0.01267  Uiso   1.00
C65    C     0.85030   0.66450   0.39810   0.01267  Uiso   1.00
C66    C     0.24010   0.83030   0.98200   0.01267  Uiso   1.00
C67    C     0.22320   0.93260   0.00740   0.01267  Uiso   1.00
C68    C     0.10680   0.94220   0.99120   0.01267  Uiso   1.00
C69    C     0.01740   0.85740   0.95380   0.01267  Uiso   1.00
C70    C     0.03150   0.75790   0.92760   0.01267  Uiso   1.00
C71    C     0.14850   0.75050   0.94260   0.01267  Uiso   1.00
C72    C     0.36440   0.81280   0.99870   0.01267  Uiso   1.00
C73    C     0.32190   0.03270   0.05130   0.01267  Uiso   1.00
C74    C     0.05610   0.53150   0.88910   0.01267  Uiso   1.00
C75    C     0.95460   0.45420   0.91790   0.01267  Uiso   1.00
C76    C     0.83980   0.33460   0.89550   0.01267  Uiso   1.00
C77    C     0.82850   0.29610   0.84510   0.01267  Uiso   1.00
C78    C     0.93170   0.37350   0.81860   0.01267  Uiso   1.00
C79    C     0.04760   0.49460   0.83950   0.01267  Uiso   1.00
C80    C     0.15200   0.57200   0.80640   0.01267  Uiso   1.00
C81    C     0.82040   0.95020   0.08500   0.01267  Uiso   1.00
C82    C     0.94220   0.06540   0.08430   0.01267  Uiso   1.00
C83    C     0.94860   0.18700   0.07340   0.01267  Uiso   1.00
C84    C     0.82510   0.17890   0.06400   0.01267  Uiso   1.00
C85    C     0.69970   0.05650   0.06500   0.01267  Uiso   1.00
C86    C     0.21040   0.56380   0.07600   0.01267  Uiso   1.00
C87    C     0.08290   0.44010   0.07500   0.01267  Uiso   1.00
C88    C     0.07820   0.31600   0.07230   0.01267  Uiso   1.00
C89    C     0.20540   0.31920   0.07130   0.01267  Uiso   1.00
C90    C     0.31950   0.44330   0.07130   0.01267  Uiso   1.00
C91    C     0.31430   0.95970   0.85240   0.01267  Uiso   1.00
C92    C     0.31690   0.08190   0.84990   0.01267  Uiso   1.00
C93    C     0.40120   0.19020   0.88560   0.01267  Uiso   1.00
C94    C     0.47660   0.16600   0.92240   0.01267  Uiso   1.00
C95    C     0.46960   0.04380   0.92130   0.01267  Uiso   1.00
C96    C     0.39980   0.50440   0.85000   0.01267  Uiso   1.00
C97    C     0.41550   0.39050   0.84780   0.01267  Uiso   1.00
C98    C     0.39780   0.31920   0.88850   0.01267  Uiso   1.00
C99    C     0.37200   0.37100   0.93150   0.01267  Uiso   1.00
C100   C     0.35860   0.48780   0.93120   0.01267  Uiso   1.00
N1     N     0.94220   0.69740   0.57590   0.01267  Uiso   1.00
N2     N     0.56310   0.32570   0.57360   0.01267  Uiso   1.00
N3     N     0.93570   0.38430   0.38660   0.01267  Uiso   1.00
N4     N     0.55060   0.36760   0.39080   0.01267  Uiso   1.00
N5     N     0.69740   0.94220   0.07590   0.01267  Uiso   1.00
N6     N     0.32570   0.56310   0.07360   0.01267  Uiso   1.00
N7     N     0.38430   0.93570   0.88660   0.01267  Uiso   1.00
N8     N     0.36760   0.55060   0.89080   0.01267  Uiso   1.00
O1     O     0.80680   0.49900   0.65170   0.01267  Uiso   1.00
O2     O     0.69710   0.60390   0.63120   0.01267  Uiso   1.00
O3     O     0.83420   0.90260   0.68070   0.01267  Uiso   1.00
O4     O     0.60830   0.79790   0.68660   0.01267  Uiso   1.00
O5     O     0.74220   0.87820   0.79690   0.01267  Uiso   1.00
O6     O     0.55890   0.83110   0.87150   0.01267  Uiso   1.00
O7     O     0.66910   0.79350   0.93390   0.01267  Uiso   1.00
O8     O     0.02360   0.27880   0.59230   0.01267  Uiso   1.00
O9     O     0.11910   0.43870   0.54240   0.01267  Uiso   1.00
O10    O     0.82640   0.39700   0.54450   0.01267  Uiso   1.00
O11    O     0.78130   0.41810   0.46650   0.01267  Uiso   1.00
O12    O     0.65430   0.17090   0.41400   0.01267  Uiso   1.00
O13    O     0.67830   0.27010   0.32280   0.01267  Uiso   1.00
O14    O     0.52840   0.12020   0.26000   0.01267  Uiso   1.00
O15    O     0.49900   0.80680   0.15170   0.01267  Uiso   1.00
O16    O     0.60390   0.69710   0.13120   0.01267  Uiso   1.00
O17    O     0.90260   0.83420   0.18070   0.01267  Uiso   1.00
O18    O     0.79790   0.60830   0.18660   0.01267  Uiso   1.00
O19    O     0.87820   0.74220   0.29690   0.01267  Uiso   1.00
O20    O     0.83110   0.55890   0.37150   0.01267  Uiso   1.00
O21    O     0.79350   0.66910   0.43390   0.01267  Uiso   1.00
O22    O     0.27880   0.02360   0.09230   0.01267  Uiso   1.00
O23    O     0.43870   0.11910   0.04240   0.01267  Uiso   1.00
O24    O     0.39700   0.82640   0.04450   0.01267  Uiso   1.00
O25    O     0.41810   0.78130   0.96650   0.01267  Uiso   1.00
O26    O     0.17090   0.65430   0.91400   0.01267  Uiso   1.00
O27    O     0.27010   0.67830   0.82280   0.01267  Uiso   1.00
O28    O     0.12020   0.52840   0.76000   0.01267  Uiso   1.00
