data_image0
_cell_length_a       16.28
_cell_length_b       11.924
_cell_length_c       18.04
_cell_angle_alpha    90
_cell_angle_beta     103.862
_cell_angle_gamma    90

_symmetry_space_group_name_H-M    "P 1"
_symmetry_int_tables_number       1

loop_
  _symmetry_equiv_pos_as_xyz
  'x, y, z'

loop_
  _atom_site_label
  _atom_site_occupancy
  _atom_site_fract_x
  _atom_site_fract_y
  _atom_site_fract_z
  _atom_site_thermal_displace_type
  _atom_site_B_iso_or_equiv
  _atom_site_type_symbol
  Mo1      1.0000 0.21669  0.64056  0.06789  Biso   1.000  Mo
  Mo2      1.0000 0.21503  0.34816  0.03735  Biso   1.000  Mo
  Mo3      1.0000 0.11796  0.76673  0.96706  Biso   1.000  Mo
  Mo4      1.0000 0.98003  0.64623  0.80528  Biso   1.000  Mo
  Mo5      1.0000 0.97662  0.42997  0.78692  Biso   1.000  Mo
  Mo6      1.0000 0.11060  0.25603  0.92189  Biso   1.000  Mo
  Mn1      1.0000 0.62426  0.49604  0.13494  Biso   1.000  Mn
  P1       1.0000 0.17288  0.52500  0.88644  Biso   1.000  P
  P2       1.0000 0.06128  0.20159  0.73783  Biso   1.000  P
  P3       1.0000 0.38874  0.50625  0.05875  Biso   1.000  P
  P4       1.0000 0.12340  0.83736  0.79022  Biso   1.000  P
  O1       1.0000 0.23880  0.74480  0.99220  Biso   1.000  O
  O2       1.0000 0.09350  0.63480  0.02500  Biso   1.000  O
  O3       1.0000 0.09140  0.36110  0.00110  Biso   1.000  O
  O4       1.0000 0.11590  0.63170  0.87770  Biso   1.000  O
  O5       1.0000 0.47700  0.49580  0.11740  Biso   1.000  O
  O6       1.0000 0.11450  0.42300  0.85800  Biso   1.000  O
  O7       1.0000 0.21120  0.50960  0.97310  Biso   1.000  O
  O8       1.0000 0.96430  0.52400  0.87420  Biso   1.000  O
  O9       1.0000 0.24010  0.54070  0.84200  Biso   1.000  O
  O10      1.0000 0.99260  0.75350  0.90120  Biso   1.000  O
  O11      1.0000 0.20450  0.47980  0.11440  Biso   1.000  O
  O12      1.0000 0.34130  0.59890  0.09130  Biso   1.000  O
  O13      1.0000 0.23290  0.27470  0.94740  Biso   1.000  O
  O14      1.0000 0.34290  0.39260  0.06190  Biso   1.000  O
  O15      1.0000 0.01860  0.55040  0.73310  Biso   1.000  O
  O16      1.0000 0.98630  0.29240  0.86270  Biso   1.000  O
  O17      1.0000 0.12240  0.19690  0.81790  Biso   1.000  O
  O18      1.0000 0.13600  0.86200  0.87650  Biso   1.000  O
  O19      1.0000 0.98570  0.12290  0.73450  Biso   1.000  O
  O20      1.0000 0.03920  0.77570  0.76100  Biso   1.000  O
  O21      1.0000 0.40300  0.53720  0.98270  Biso   1.000  O
  O22      1.0000 0.02990  0.32510  0.72230  Biso   1.000  O
  O23      1.0000 0.13000  0.94360  0.74770  Biso   1.000  O
  O24      1.0000 0.10850  0.16980  0.67710  Biso   1.000  O
  O25      1.0000 0.19790  0.75970  0.77900  Biso   1.000  O
  Mo7      1.0000 0.28331  0.14056  0.43211  Biso   1.000  Mo
  Mo8      1.0000 0.28497  0.84816  0.46265  Biso   1.000  Mo
  Mo9      1.0000 0.38204  0.26673  0.53294  Biso   1.000  Mo
  Mo10     1.0000 0.51997  0.14623  0.69472  Biso   1.000  Mo
  Mo11     1.0000 0.52338  0.92997  0.71308  Biso   1.000  Mo
  Mo12     1.0000 0.38940  0.75603  0.57811  Biso   1.000  Mo
  Mn2      1.0000 0.87574  0.99604  0.36506  Biso   1.000  Mn
  P5       1.0000 0.32712  0.02500  0.61356  Biso   1.000  P
  P6       1.0000 0.43872  0.70159  0.76217  Biso   1.000  P
  P7       1.0000 0.11126  0.00625  0.44125  Biso   1.000  P
  P8       1.0000 0.37660  0.33736  0.70978  Biso   1.000  P
  O26      1.0000 0.26120  0.24480  0.50780  Biso   1.000  O
  O27      1.0000 0.40650  0.13480  0.47500  Biso   1.000  O
  O28      1.0000 0.40860  0.86110  0.49890  Biso   1.000  O
  O29      1.0000 0.38410  0.13170  0.62230  Biso   1.000  O
  O30      1.0000 0.02300  0.99580  0.38260  Biso   1.000  O
  O31      1.0000 0.38550  0.92300  0.64200  Biso   1.000  O
  O32      1.0000 0.28880  0.00960  0.52690  Biso   1.000  O
  O33      1.0000 0.53570  0.02400  0.62580  Biso   1.000  O
  O34      1.0000 0.25990  0.04070  0.65800  Biso   1.000  O
  O35      1.0000 0.50740  0.25350  0.59880  Biso   1.000  O
  O36      1.0000 0.29550  0.97980  0.38560  Biso   1.000  O
  O37      1.0000 0.15870  0.09890  0.40870  Biso   1.000  O
  O38      1.0000 0.26710  0.77470  0.55260  Biso   1.000  O
  O39      1.0000 0.15710  0.89260  0.43810  Biso   1.000  O
  O40      1.0000 0.48140  0.05040  0.76690  Biso   1.000  O
  O41      1.0000 0.51370  0.79240  0.63730  Biso   1.000  O
  O42      1.0000 0.37760  0.69690  0.68210  Biso   1.000  O
  O43      1.0000 0.36400  0.36200  0.62350  Biso   1.000  O
  O44      1.0000 0.51430  0.62290  0.76550  Biso   1.000  O
  O45      1.0000 0.46080  0.27570  0.73900  Biso   1.000  O
  O46      1.0000 0.09700  0.03720  0.51730  Biso   1.000  O
  O47      1.0000 0.47010  0.82510  0.77770  Biso   1.000  O
  O48      1.0000 0.37000  0.44360  0.75230  Biso   1.000  O
  O49      1.0000 0.39150  0.66980  0.82290  Biso   1.000  O
  O50      1.0000 0.30210  0.25970  0.72100  Biso   1.000  O
  Mo13     1.0000 0.78331  0.35944  0.93211  Biso   1.000  Mo
  Mo14     1.0000 0.78497  0.65184  0.96265  Biso   1.000  Mo
  Mo15     1.0000 0.88204  0.23327  0.03294  Biso   1.000  Mo
  Mo16     1.0000 0.01997  0.35377  0.19472  Biso   1.000  Mo
  Mo17     1.0000 0.02338  0.57003  0.21308  Biso   1.000  Mo
  Mo18     1.0000 0.88940  0.74397  0.07811  Biso   1.000  Mo
  Mn3      1.0000 0.37574  0.50396  0.86506  Biso   1.000  Mn
  P9       1.0000 0.82712  0.47500  0.11356  Biso   1.000  P
  P10      1.0000 0.93872  0.79841  0.26217  Biso   1.000  P
  P11      1.0000 0.61126  0.49375  0.94125  Biso   1.000  P
  P12      1.0000 0.87660  0.16264  0.20978  Biso   1.000  P
  O51      1.0000 0.76120  0.25520  0.00780  Biso   1.000  O
  O52      1.0000 0.90650  0.36520  0.97500  Biso   1.000  O
  O53      1.0000 0.90860  0.63890  0.99890  Biso   1.000  O
  O54      1.0000 0.88410  0.36830  0.12230  Biso   1.000  O
  O55      1.0000 0.52300  0.50420  0.88260  Biso   1.000  O
  O56      1.0000 0.88550  0.57700  0.14200  Biso   1.000  O
  O57      1.0000 0.78880  0.49040  0.02690  Biso   1.000  O
  O58      1.0000 0.03570  0.47600  0.12580  Biso   1.000  O
  O59      1.0000 0.75990  0.45930  0.15800  Biso   1.000  O
  O60      1.0000 0.00740  0.24650  0.09880  Biso   1.000  O
  O61      1.0000 0.79550  0.52020  0.88560  Biso   1.000  O
  O62      1.0000 0.65870  0.40110  0.90870  Biso   1.000  O
  O63      1.0000 0.76710  0.72530  0.05260  Biso   1.000  O
  O64      1.0000 0.65710  0.60740  0.93810  Biso   1.000  O
  O65      1.0000 0.98140  0.44960  0.26690  Biso   1.000  O
  O66      1.0000 0.01370  0.70760  0.13730  Biso   1.000  O
  O67      1.0000 0.87760  0.80310  0.18210  Biso   1.000  O
  O68      1.0000 0.86400  0.13800  0.12350  Biso   1.000  O
  O69      1.0000 0.01430  0.87710  0.26550  Biso   1.000  O
  O70      1.0000 0.96080  0.22430  0.23900  Biso   1.000  O
  O71      1.0000 0.59700  0.46280  0.01730  Biso   1.000  O
  O72      1.0000 0.97010  0.67490  0.27770  Biso   1.000  O
  O73      1.0000 0.87000  0.05640  0.25230  Biso   1.000  O
  O74      1.0000 0.89150  0.83020  0.32290  Biso   1.000  O
  O75      1.0000 0.80210  0.24030  0.22100  Biso   1.000  O
  Mo19     1.0000 0.71669  0.85944  0.56789  Biso   1.000  Mo
  Mo20     1.0000 0.71503  0.15184  0.53735  Biso   1.000  Mo
  Mo21     1.0000 0.61796  0.73327  0.46706  Biso   1.000  Mo
  Mo22     1.0000 0.48003  0.85377  0.30528  Biso   1.000  Mo
  Mo23     1.0000 0.47662  0.07003  0.28692  Biso   1.000  Mo
  Mo24     1.0000 0.61060  0.24397  0.42189  Biso   1.000  Mo
  Mn4      1.0000 0.12426  0.00396  0.63494  Biso   1.000  Mn
  P13      1.0000 0.67288  0.97500  0.38644  Biso   1.000  P
  P14      1.0000 0.56128  0.29841  0.23783  Biso   1.000  P
  P15      1.0000 0.88874  0.99375  0.55875  Biso   1.000  P
  P16      1.0000 0.62340  0.66264  0.29022  Biso   1.000  P
  O76      1.0000 0.73880  0.75520  0.49220  Biso   1.000  O
  O77      1.0000 0.59350  0.86520  0.52500  Biso   1.000  O
  O78      1.0000 0.59140  0.13890  0.50110  Biso   1.000  O
  O79      1.0000 0.61590  0.86830  0.37770  Biso   1.000  O
  O80      1.0000 0.97700  0.00420  0.61740  Biso   1.000  O
  O81      1.0000 0.61450  0.07700  0.35800  Biso   1.000  O
  O82      1.0000 0.71120  0.99040  0.47310  Biso   1.000  O
  O83      1.0000 0.46430  0.97600  0.37420  Biso   1.000  O
  O84      1.0000 0.74010  0.95930  0.34200  Biso   1.000  O
  O85      1.0000 0.49260  0.74650  0.40120  Biso   1.000  O
  O86      1.0000 0.70450  0.02020  0.61440  Biso   1.000  O
  O87      1.0000 0.84130  0.90110  0.59130  Biso   1.000  O
  O88      1.0000 0.73290  0.22530  0.44740  Biso   1.000  O
  O89      1.0000 0.84290  0.10740  0.56190  Biso   1.000  O
  O90      1.0000 0.51860  0.94960  0.23310  Biso   1.000  O
  O91      1.0000 0.48630  0.20760  0.36270  Biso   1.000  O
  O92      1.0000 0.62240  0.30310  0.31790  Biso   1.000  O
  O93      1.0000 0.63600  0.63800  0.37650  Biso   1.000  O
  O94      1.0000 0.48570  0.37710  0.23450  Biso   1.000  O
  O95      1.0000 0.53920  0.72430  0.26100  Biso   1.000  O
  O96      1.0000 0.90300  0.96280  0.48270  Biso   1.000  O
  O97      1.0000 0.52990  0.17490  0.22230  Biso   1.000  O
  O98      1.0000 0.63000  0.55640  0.24770  Biso   1.000  O
  O99      1.0000 0.60850  0.33020  0.17710  Biso   1.000  O
  O100     1.0000 0.69790  0.74030  0.27900  Biso   1.000  O
  Mn5      1.0000 0.00000  0.50000  0.00000  Biso   1.000  Mn
  Mn6      1.0000 0.50000  0.00000  0.50000  Biso   1.000  Mn
