data_image0
_cell_length_a       23.1442
_cell_length_b       23.1442
_cell_length_c       7.2233
_cell_angle_alpha    90
_cell_angle_beta     90
_cell_angle_gamma    120

_symmetry_space_group_name_H-M    "P 1"
_symmetry_int_tables_number       1

loop_
  _symmetry_equiv_pos_as_xyz
  'x, y, z'

loop_
  _atom_site_label
  _atom_site_occupancy
  _atom_site_fract_x
  _atom_site_fract_y
  _atom_site_fract_z
  _atom_site_thermal_displace_type
  _atom_site_B_iso_or_equiv
  _atom_site_type_symbol
  Mg1      1.0000 0.28470  0.11930  0.92630  Biso   1.000  Mg
  Mg2      1.0000 0.28000  0.31490  0.33670  Biso   1.000  Mg
  O1       1.0000 0.29590  0.18450  0.15320  Biso   1.000  O
  O2       1.0000 0.32070  0.22570  0.87320  Biso   1.000  O
  O3       1.0000 0.31890  0.28730  0.11510  Biso   1.000  O
  O4       1.0000 0.26600  0.23740  0.50350  Biso   1.000  O
  O5       1.0000 0.18850  0.27660  0.17320  Biso   1.000  O
  C1       1.0000 0.30460  0.23080  0.04230  Biso   1.000  C
  Mg3      1.0000 0.95137  0.45263  0.25963  Biso   1.000  Mg
  Mg4      1.0000 0.94667  0.64823  0.67003  Biso   1.000  Mg
  O6       1.0000 0.96257  0.51783  0.48653  Biso   1.000  O
  O7       1.0000 0.98737  0.55903  0.20653  Biso   1.000  O
  O8       1.0000 0.98557  0.62063  0.44843  Biso   1.000  O
  O9       1.0000 0.93267  0.57073  0.83683  Biso   1.000  O
  O10      1.0000 0.85517  0.60993  0.50653  Biso   1.000  O
  C2       1.0000 0.97127  0.56413  0.37563  Biso   1.000  C
  Mg5      1.0000 0.61803  0.78597  0.59297  Biso   1.000  Mg
  Mg6      1.0000 0.61333  0.98157  0.00337  Biso   1.000  Mg
  O11      1.0000 0.62923  0.85117  0.81987  Biso   1.000  O
  O12      1.0000 0.65403  0.89237  0.53987  Biso   1.000  O
  O13      1.0000 0.65223  0.95397  0.78177  Biso   1.000  O
  O14      1.0000 0.59933  0.90407  0.17017  Biso   1.000  O
  O15      1.0000 0.52183  0.94327  0.83987  Biso   1.000  O
  C3       1.0000 0.63793  0.89747  0.70897  Biso   1.000  C
  Mg7      1.0000 0.88070  0.16540  0.92630  Biso   1.000  Mg
  Mg8      1.0000 0.68510  0.96510  0.33670  Biso   1.000  Mg
  O16      1.0000 0.81550  0.11140  0.15320  Biso   1.000  O
  O17      1.0000 0.77430  0.09500  0.87320  Biso   1.000  O
  O18      1.0000 0.71270  0.03160  0.11510  Biso   1.000  O
  O19      1.0000 0.76260  0.02860  0.50350  Biso   1.000  O
  O20      1.0000 0.72340  0.91190  0.17320  Biso   1.000  O
  C4       1.0000 0.76920  0.07380  0.04230  Biso   1.000  C
  Mg9      1.0000 0.54737  0.49873  0.25963  Biso   1.000  Mg
  Mg10     1.0000 0.35177  0.29843  0.67003  Biso   1.000  Mg
  O21      1.0000 0.48217  0.44473  0.48653  Biso   1.000  O
  O22      1.0000 0.44097  0.42833  0.20653  Biso   1.000  O
  O23      1.0000 0.37937  0.36493  0.44843  Biso   1.000  O
  O24      1.0000 0.42927  0.36193  0.83683  Biso   1.000  O
  O25      1.0000 0.39007  0.24523  0.50653  Biso   1.000  O
  C5       1.0000 0.43587  0.40713  0.37563  Biso   1.000  C
  Mg11     1.0000 0.21403  0.83207  0.59297  Biso   1.000  Mg
  Mg12     1.0000 0.01843  0.63177  0.00337  Biso   1.000  Mg
  O26      1.0000 0.14883  0.77807  0.81987  Biso   1.000  O
  O27      1.0000 0.10763  0.76167  0.53987  Biso   1.000  O
  O28      1.0000 0.04603  0.69827  0.78177  Biso   1.000  O
  O29      1.0000 0.09593  0.69527  0.17017  Biso   1.000  O
  O30      1.0000 0.05673  0.57857  0.83987  Biso   1.000  O
  C6       1.0000 0.10253  0.74047  0.70897  Biso   1.000  C
  Mg13     1.0000 0.83460  0.71530  0.92630  Biso   1.000  Mg
  Mg14     1.0000 0.03490  0.72000  0.33670  Biso   1.000  Mg
  O31      1.0000 0.88860  0.70410  0.15320  Biso   1.000  O
  O32      1.0000 0.90500  0.67930  0.87320  Biso   1.000  O
  O33      1.0000 0.96840  0.68110  0.11510  Biso   1.000  O
  O34      1.0000 0.97140  0.73400  0.50350  Biso   1.000  O
  O35      1.0000 0.08810  0.81150  0.17320  Biso   1.000  O
  C7       1.0000 0.92620  0.69540  0.04230  Biso   1.000  C
  Mg15     1.0000 0.50127  0.04863  0.25963  Biso   1.000  Mg
  Mg16     1.0000 0.70157  0.05333  0.67003  Biso   1.000  Mg
  O36      1.0000 0.55527  0.03743  0.48653  Biso   1.000  O
  O37      1.0000 0.57167  0.01263  0.20653  Biso   1.000  O
  O38      1.0000 0.63507  0.01443  0.44843  Biso   1.000  O
  O39      1.0000 0.63807  0.06733  0.83683  Biso   1.000  O
  O40      1.0000 0.75477  0.14483  0.50653  Biso   1.000  O
  C8       1.0000 0.59287  0.02873  0.37563  Biso   1.000  C
  Mg17     1.0000 0.16793  0.38197  0.59297  Biso   1.000  Mg
  Mg18     1.0000 0.36823  0.38667  0.00337  Biso   1.000  Mg
  O41      1.0000 0.22193  0.37077  0.81987  Biso   1.000  O
  O42      1.0000 0.23833  0.34597  0.53987  Biso   1.000  O
  O43      1.0000 0.30173  0.34777  0.78177  Biso   1.000  O
  O44      1.0000 0.30473  0.40067  0.17017  Biso   1.000  O
  O45      1.0000 0.42143  0.47817  0.83987  Biso   1.000  O
  C9       1.0000 0.25953  0.36207  0.70897  Biso   1.000  C
  Mg19     1.0000 0.88070  0.71530  0.42630  Biso   1.000  Mg
  Mg20     1.0000 0.68510  0.72000  0.83670  Biso   1.000  Mg
  O46      1.0000 0.81550  0.70410  0.65320  Biso   1.000  O
  O47      1.0000 0.77430  0.67930  0.37320  Biso   1.000  O
  O48      1.0000 0.71270  0.68110  0.61510  Biso   1.000  O
  O49      1.0000 0.76260  0.73400  0.00350  Biso   1.000  O
  O50      1.0000 0.72340  0.81150  0.67320  Biso   1.000  O
  C10      1.0000 0.76920  0.69540  0.54230  Biso   1.000  C
  Mg21     1.0000 0.54737  0.04863  0.75963  Biso   1.000  Mg
  Mg22     1.0000 0.35177  0.05333  0.17003  Biso   1.000  Mg
  O51      1.0000 0.48217  0.03743  0.98653  Biso   1.000  O
  O52      1.0000 0.44097  0.01263  0.70653  Biso   1.000  O
  O53      1.0000 0.37937  0.01443  0.94843  Biso   1.000  O
  O54      1.0000 0.42927  0.06733  0.33683  Biso   1.000  O
  O55      1.0000 0.39007  0.14483  0.00653  Biso   1.000  O
  C11      1.0000 0.43587  0.02873  0.87563  Biso   1.000  C
  Mg23     1.0000 0.21403  0.38197  0.09297  Biso   1.000  Mg
  Mg24     1.0000 0.01843  0.38667  0.50337  Biso   1.000  Mg
  O56      1.0000 0.14883  0.37077  0.31987  Biso   1.000  O
  O57      1.0000 0.10763  0.34597  0.03987  Biso   1.000  O
  O58      1.0000 0.04603  0.34777  0.28177  Biso   1.000  O
  O59      1.0000 0.09593  0.40067  0.67017  Biso   1.000  O
  O60      1.0000 0.05673  0.47817  0.33987  Biso   1.000  O
  C12      1.0000 0.10253  0.36207  0.20897  Biso   1.000  C
  Mg25     1.0000 0.83460  0.11930  0.42630  Biso   1.000  Mg
  Mg26     1.0000 0.03490  0.31490  0.83670  Biso   1.000  Mg
  O61      1.0000 0.88860  0.18450  0.65320  Biso   1.000  O
  O62      1.0000 0.90500  0.22570  0.37320  Biso   1.000  O
  O63      1.0000 0.96840  0.28730  0.61510  Biso   1.000  O
  O64      1.0000 0.97140  0.23740  0.00350  Biso   1.000  O
  O65      1.0000 0.08810  0.27660  0.67320  Biso   1.000  O
  C13      1.0000 0.92620  0.23080  0.54230  Biso   1.000  C
  Mg27     1.0000 0.50127  0.45263  0.75963  Biso   1.000  Mg
  Mg28     1.0000 0.70157  0.64823  0.17003  Biso   1.000  Mg
  O66      1.0000 0.55527  0.51783  0.98653  Biso   1.000  O
  O67      1.0000 0.57167  0.55903  0.70653  Biso   1.000  O
  O68      1.0000 0.63507  0.62063  0.94843  Biso   1.000  O
  O69      1.0000 0.63807  0.57073  0.33683  Biso   1.000  O
  O70      1.0000 0.75477  0.60993  0.00653  Biso   1.000  O
  C14      1.0000 0.59287  0.56413  0.87563  Biso   1.000  C
  Mg29     1.0000 0.16793  0.78597  0.09297  Biso   1.000  Mg
  Mg30     1.0000 0.36823  0.98157  0.50337  Biso   1.000  Mg
  O71      1.0000 0.22193  0.85117  0.31987  Biso   1.000  O
  O72      1.0000 0.23833  0.89237  0.03987  Biso   1.000  O
  O73      1.0000 0.30173  0.95397  0.28177  Biso   1.000  O
  O74      1.0000 0.30473  0.90407  0.67017  Biso   1.000  O
  O75      1.0000 0.42143  0.94327  0.33987  Biso   1.000  O
  C15      1.0000 0.25953  0.89747  0.20897  Biso   1.000  C
  Mg31     1.0000 0.28470  0.16540  0.42630  Biso   1.000  Mg
  Mg32     1.0000 0.28000  0.96510  0.83670  Biso   1.000  Mg
  O76      1.0000 0.29590  0.11140  0.65320  Biso   1.000  O
  O77      1.0000 0.32070  0.09500  0.37320  Biso   1.000  O
  O78      1.0000 0.31890  0.03160  0.61510  Biso   1.000  O
  O79      1.0000 0.26600  0.02860  0.00350  Biso   1.000  O
  O80      1.0000 0.18850  0.91190  0.67320  Biso   1.000  O
  C16      1.0000 0.30460  0.07380  0.54230  Biso   1.000  C
  Mg33     1.0000 0.95137  0.49873  0.75963  Biso   1.000  Mg
  Mg34     1.0000 0.94667  0.29843  0.17003  Biso   1.000  Mg
  O81      1.0000 0.96257  0.44473  0.98653  Biso   1.000  O
  O82      1.0000 0.98737  0.42833  0.70653  Biso   1.000  O
  O83      1.0000 0.98557  0.36493  0.94843  Biso   1.000  O
  O84      1.0000 0.93267  0.36193  0.33683  Biso   1.000  O
  O85      1.0000 0.85517  0.24523  0.00653  Biso   1.000  O
  C17      1.0000 0.97127  0.40713  0.87563  Biso   1.000  C
  Mg35     1.0000 0.61803  0.83207  0.09297  Biso   1.000  Mg
  Mg36     1.0000 0.61333  0.63177  0.50337  Biso   1.000  Mg
  O86      1.0000 0.62923  0.77807  0.31987  Biso   1.000  O
  O87      1.0000 0.65403  0.76167  0.03987  Biso   1.000  O
  O88      1.0000 0.65223  0.69827  0.28177  Biso   1.000  O
  O89      1.0000 0.59933  0.69527  0.67017  Biso   1.000  O
  O90      1.0000 0.52183  0.57857  0.33987  Biso   1.000  O
  C18      1.0000 0.63793  0.74047  0.20897  Biso   1.000  C
