data_image0
_cell_length_a       7.951
_cell_length_b       16.819
_cell_length_c       15.189
_cell_angle_alpha    90
_cell_angle_beta     104.29
_cell_angle_gamma    90

_symmetry_space_group_name_H-M    "P 1"
_symmetry_int_tables_number       1

loop_
  _symmetry_equiv_pos_as_xyz
  'x, y, z'

loop_
  _atom_site_label
  _atom_site_occupancy
  _atom_site_fract_x
  _atom_site_fract_y
  _atom_site_fract_z
  _atom_site_thermal_displace_type
  _atom_site_B_iso_or_equiv
  _atom_site_type_symbol
  Mo1      1.0000 0.18692  0.66443  0.33848  Biso   1.000  Mo
  Mn1      1.0000 0.32830  0.56050  0.69242  Biso   1.000  Mn
  N1       1.0000 0.27850  0.59340  0.54940  Biso   1.000  N
  N2       1.0000 0.48090  0.53470  0.30850  Biso   1.000  N
  N3       1.0000 0.10830  0.47640  0.67020  Biso   1.000  N
  N4       1.0000 0.19470  0.83160  0.22910  Biso   1.000  N
  N5       1.0000 0.99530  0.62900  0.12430  Biso   1.000  N
  N6       1.0000 0.53740  0.76470  0.44120  Biso   1.000  N
  N7       1.0000 0.93810  0.77890  0.42990  Biso   1.000  N
  C1       1.0000 0.24870  0.61780  0.47620  Biso   1.000  C
  C2       1.0000 0.37570  0.57920  0.31540  Biso   1.000  C
  C3       1.0000 0.00610  0.42740  0.66480  Biso   1.000  C
  C4       1.0000 0.19430  0.77120  0.26460  Biso   1.000  C
  C5       1.0000 0.06400  0.64090  0.19900  Biso   1.000  C
  C6       1.0000 0.41450  0.73010  0.40790  Biso   1.000  C
  C7       1.0000 0.02000  0.73900  0.39490  Biso   1.000  C
  Mn2      1.0000 0.77584  0.67735  0.01643  Biso   1.000  Mn
  Mo2      1.0000 0.81308  0.16443  0.16152  Biso   1.000  Mo
  Mn3      1.0000 0.67170  0.06050  0.80758  Biso   1.000  Mn
  N8       1.0000 0.72150  0.09340  0.95060  Biso   1.000  N
  N9       1.0000 0.51910  0.03470  0.19150  Biso   1.000  N
  N10      1.0000 0.89170  0.97640  0.82980  Biso   1.000  N
  N11      1.0000 0.80530  0.33160  0.27090  Biso   1.000  N
  N12      1.0000 0.00470  0.12900  0.37570  Biso   1.000  N
  N13      1.0000 0.46260  0.26470  0.05880  Biso   1.000  N
  N14      1.0000 0.06190  0.27890  0.07010  Biso   1.000  N
  C8       1.0000 0.75130  0.11780  0.02380  Biso   1.000  C
  C9       1.0000 0.62430  0.07920  0.18460  Biso   1.000  C
  C10      1.0000 0.99390  0.92740  0.83520  Biso   1.000  C
  C11      1.0000 0.80570  0.27120  0.23540  Biso   1.000  C
  C12      1.0000 0.93600  0.14090  0.30100  Biso   1.000  C
  C13      1.0000 0.58550  0.23010  0.09210  Biso   1.000  C
  C14      1.0000 0.98000  0.23900  0.10510  Biso   1.000  C
  Mn4      1.0000 0.22416  0.17735  0.48357  Biso   1.000  Mn
  Mo3      1.0000 0.81308  0.33557  0.66152  Biso   1.000  Mo
  Mn5      1.0000 0.67170  0.43950  0.30758  Biso   1.000  Mn
  N15      1.0000 0.72150  0.40660  0.45060  Biso   1.000  N
  N16      1.0000 0.51910  0.46530  0.69150  Biso   1.000  N
  N17      1.0000 0.89170  0.52360  0.32980  Biso   1.000  N
  N18      1.0000 0.80530  0.16840  0.77090  Biso   1.000  N
  N19      1.0000 0.00470  0.37100  0.87570  Biso   1.000  N
  N20      1.0000 0.46260  0.23530  0.55880  Biso   1.000  N
  N21      1.0000 0.06190  0.22110  0.57010  Biso   1.000  N
  C15      1.0000 0.75130  0.38220  0.52380  Biso   1.000  C
  C16      1.0000 0.62430  0.42080  0.68460  Biso   1.000  C
  C17      1.0000 0.99390  0.57260  0.33520  Biso   1.000  C
  C18      1.0000 0.80570  0.22880  0.73540  Biso   1.000  C
  C19      1.0000 0.93600  0.35910  0.80100  Biso   1.000  C
  C20      1.0000 0.58550  0.26990  0.59210  Biso   1.000  C
  C21      1.0000 0.98000  0.26100  0.60510  Biso   1.000  C
  Mn6      1.0000 0.22416  0.32265  0.98357  Biso   1.000  Mn
  Mo4      1.0000 0.18692  0.83557  0.83848  Biso   1.000  Mo
  Mn7      1.0000 0.32830  0.93950  0.19242  Biso   1.000  Mn
  N22      1.0000 0.27850  0.90660  0.04940  Biso   1.000  N
  N23      1.0000 0.48090  0.96530  0.80850  Biso   1.000  N
  N24      1.0000 0.10830  0.02360  0.17020  Biso   1.000  N
  N25      1.0000 0.19470  0.66840  0.72910  Biso   1.000  N
  N26      1.0000 0.99530  0.87100  0.62430  Biso   1.000  N
  N27      1.0000 0.53740  0.73530  0.94120  Biso   1.000  N
  N28      1.0000 0.93810  0.72110  0.92990  Biso   1.000  N
  C22      1.0000 0.24870  0.88220  0.97620  Biso   1.000  C
  C23      1.0000 0.37570  0.92080  0.81540  Biso   1.000  C
  C24      1.0000 0.00610  0.07260  0.16480  Biso   1.000  C
  C25      1.0000 0.19430  0.72880  0.76460  Biso   1.000  C
  C26      1.0000 0.06400  0.85910  0.69900  Biso   1.000  C
  C27      1.0000 0.41450  0.76990  0.90790  Biso   1.000  C
  C28      1.0000 0.02000  0.76100  0.89490  Biso   1.000  C
  Mn8      1.0000 0.77584  0.82265  0.51643  Biso   1.000  Mn
