data_image0
_cell_length_a       12.6539
_cell_length_b       12.6539
_cell_length_c       15.1151
_cell_angle_alpha    90
_cell_angle_beta     90
_cell_angle_gamma    120

_symmetry_space_group_name_H-M    "P 1"
_symmetry_int_tables_number       1

loop_
  _symmetry_equiv_pos_as_xyz
  'x, y, z'

loop_
  _atom_site_label
  _atom_site_occupancy
  _atom_site_fract_x
  _atom_site_fract_y
  _atom_site_fract_z
  _atom_site_thermal_displace_type
  _atom_site_B_iso_or_equiv
  _atom_site_type_symbol
  Ti1      1.0000 0.52750  0.21230  0.35853  Biso   1.000  Ti
  Ti2      1.0000 0.49026  0.75639  0.81731  Biso   1.000  Ti
  O1       1.0000 0.43225  0.68870  0.70891  Biso   1.000  O
  O2       1.0000 0.48479  0.31651  0.41903  Biso   1.000  O
  O3       1.0000 0.61320  0.48320  0.46866  Biso   1.000  O
  O4       1.0000 0.49798  0.62502  0.86057  Biso   1.000  O
  O5       1.0000 0.56028  0.31810  0.25412  Biso   1.000  O
  O6       1.0000 0.33190  0.49407  0.92108  Biso   1.000  O
  O7       1.0000 0.52705  0.41053  0.32778  Biso   1.000  O
  O8       1.0000 0.39440  0.50384  0.76780  Biso   1.000  O
  C1       1.0000 0.50300  0.39620  0.47915  Biso   1.000  C
  C2       1.0000 0.43740  0.59610  0.72361  Biso   1.000  C
  C3       1.0000 0.40254  0.42000  0.52076  Biso   1.000  C
  C4       1.0000 0.54032  0.60331  0.66622  Biso   1.000  C
  C5       1.0000 0.41218  0.54752  0.52254  Biso   1.000  C
  C6       1.0000 0.53781  0.48142  0.65561  Biso   1.000  C
  C7       1.0000 0.52183  0.64615  0.57513  Biso   1.000  C
  C8       1.0000 0.42050  0.38448  0.61224  Biso   1.000  C
  C9       1.0000 0.49477  0.43394  0.99883  Biso   1.000  C
  C10      1.0000 0.47050  0.41238  0.16183  Biso   1.000  C
  C11      1.0000 0.53724  0.40007  0.08186  Biso   1.000  C
  C12      1.0000 0.49814  0.54358  0.17193  Biso   1.000  C
  C13      1.0000 0.47710  0.59594  0.08916  Biso   1.000  C
  C14      1.0000 0.52466  0.56616  0.00562  Biso   1.000  C
  C15      1.0000 0.44351  0.56912  0.93002  Biso   1.000  C
  C16      1.0000 0.51332  0.38860  0.24951  Biso   1.000  C
  Ti3      1.0000 0.78770  0.31520  0.35853  Biso   1.000  Ti
  Ti4      1.0000 0.24361  0.73387  0.81731  Biso   1.000  Ti
  O9       1.0000 0.31130  0.74355  0.70891  Biso   1.000  O
  O10      1.0000 0.68349  0.16828  0.41903  Biso   1.000  O
  O11      1.0000 0.51680  0.13000  0.46866  Biso   1.000  O
  O12      1.0000 0.37498  0.87296  0.86057  Biso   1.000  O
  O13      1.0000 0.68190  0.24218  0.25412  Biso   1.000  O
  O14      1.0000 0.50593  0.83783  0.92108  Biso   1.000  O
  O15      1.0000 0.58947  0.11652  0.32778  Biso   1.000  O
  O16      1.0000 0.49616  0.89056  0.76780  Biso   1.000  O
  C17      1.0000 0.60380  0.10680  0.47915  Biso   1.000  C
  C18      1.0000 0.40390  0.84130  0.72361  Biso   1.000  C
  C19      1.0000 0.58000  0.98254  0.52076  Biso   1.000  C
  C20      1.0000 0.39669  0.93701  0.66622  Biso   1.000  C
  C21      1.0000 0.45248  0.86466  0.52254  Biso   1.000  C
  C22      1.0000 0.51858  0.05639  0.65561  Biso   1.000  C
  C23      1.0000 0.35385  0.87568  0.57513  Biso   1.000  C
  C24      1.0000 0.61552  0.03602  0.61224  Biso   1.000  C
  C25      1.0000 0.56606  0.06083  0.99883  Biso   1.000  C
  C26      1.0000 0.58762  0.05812  0.16183  Biso   1.000  C
  C27      1.0000 0.59993  0.13717  0.08186  Biso   1.000  C
  C28      1.0000 0.45642  0.95456  0.17193  Biso   1.000  C
  C29      1.0000 0.40406  0.88116  0.08916  Biso   1.000  C
  C30      1.0000 0.43384  0.95850  0.00562  Biso   1.000  C
  C31      1.0000 0.43088  0.87439  0.93002  Biso   1.000  C
  C32      1.0000 0.61140  0.12472  0.24951  Biso   1.000  C
  Ti5      1.0000 0.68480  0.47250  0.35853  Biso   1.000  Ti
  Ti6      1.0000 0.26613  0.50974  0.81731  Biso   1.000  Ti
  O17      1.0000 0.25645  0.56775  0.70891  Biso   1.000  O
  O18      1.0000 0.83172  0.51521  0.41903  Biso   1.000  O
  O19      1.0000 0.87000  0.38680  0.46866  Biso   1.000  O
  O20      1.0000 0.12704  0.50202  0.86057  Biso   1.000  O
  O21      1.0000 0.75782  0.43972  0.25412  Biso   1.000  O
  O22      1.0000 0.16217  0.66810  0.92108  Biso   1.000  O
  O23      1.0000 0.88348  0.47295  0.32778  Biso   1.000  O
  O24      1.0000 0.10944  0.60560  0.76780  Biso   1.000  O
  C33      1.0000 0.89320  0.49700  0.47915  Biso   1.000  C
  C34      1.0000 0.15870  0.56260  0.72361  Biso   1.000  C
  C35      1.0000 0.01746  0.59746  0.52076  Biso   1.000  C
  C36      1.0000 0.06299  0.45968  0.66622  Biso   1.000  C
  C37      1.0000 0.13534  0.58782  0.52254  Biso   1.000  C
  C38      1.0000 0.94361  0.46219  0.65561  Biso   1.000  C
  C39      1.0000 0.12432  0.47817  0.57513  Biso   1.000  C
  C40      1.0000 0.96398  0.57950  0.61224  Biso   1.000  C
  C41      1.0000 0.93917  0.50523  0.99883  Biso   1.000  C
  C42      1.0000 0.94188  0.52950  0.16183  Biso   1.000  C
  C43      1.0000 0.86283  0.46276  0.08186  Biso   1.000  C
  C44      1.0000 0.04544  0.50186  0.17193  Biso   1.000  C
  C45      1.0000 0.11884  0.52290  0.08916  Biso   1.000  C
  C46      1.0000 0.04150  0.47534  0.00562  Biso   1.000  C
  C47      1.0000 0.12561  0.55649  0.93002  Biso   1.000  C
  C48      1.0000 0.87528  0.48668  0.24951  Biso   1.000  C
  O25      1.0000 0.66667  0.33333  0.40397  Biso   1.000  O
  O26      1.0000 0.33333  0.66667  0.84779  Biso   1.000  O
