data_image0
_cell_length_a       11.6918
_cell_length_b       11.6918
_cell_length_c       13.8937
_cell_angle_alpha    90
_cell_angle_beta     90
_cell_angle_gamma    120

_symmetry_space_group_name_H-M    "P 1"
_symmetry_int_tables_number       1

loop_
  _symmetry_equiv_pos_as_xyz
  'x, y, z'

loop_
  _atom_site_label
  _atom_site_occupancy
  _atom_site_fract_x
  _atom_site_fract_y
  _atom_site_fract_z
  _atom_site_thermal_displace_type
  _atom_site_B_iso_or_equiv
  _atom_site_type_symbol
  Ti1      1.0000 0.50222  0.18541  0.33954  Biso   1.000  Ti
  Ti2      1.0000 0.52601  0.75748  0.83941  Biso   1.000  Ti
  O1       1.0000 0.49607  0.58217  0.77594  Biso   1.000  O
  O2       1.0000 0.44321  0.26530  0.44215  Biso   1.000  O
  O3       1.0000 0.27530  0.44675  0.70826  Biso   1.000  O
  O4       1.0000 0.56912  0.46938  0.44127  Biso   1.000  O
  O5       1.0000 0.47220  0.67679  0.95422  Biso   1.000  O
  O6       1.0000 0.46704  0.24305  0.22840  Biso   1.000  O
  O7       1.0000 0.38707  0.47570  0.88495  Biso   1.000  O
  O8       1.0000 0.53363  0.45961  0.26160  Biso   1.000  O
  C1       1.0000 0.45667  0.37945  0.45490  Biso   1.000  C
  C2       1.0000 0.39952  0.50179  0.72811  Biso   1.000  C
  C3       1.0000 0.32975  0.37092  0.48360  Biso   1.000  C
  C4       1.0000 0.45350  0.43161  0.66332  Biso   1.000  C
  C5       1.0000 0.37426  0.50796  0.51891  Biso   1.000  C
  C6       1.0000 0.34446  0.28729  0.64496  Biso   1.000  C
  C7       1.0000 0.48833  0.54335  0.58692  Biso   1.000  C
  C8       1.0000 0.25125  0.27553  0.56392  Biso   1.000  C
  C9       1.0000 0.58904  0.44705  0.01710  Biso   1.000  C
  C10      1.0000 0.39310  0.33823  0.11772  Biso   1.000  C
  C11      1.0000 0.45617  0.32244  0.02734  Biso   1.000  C
  C12      1.0000 0.35579  0.44461  0.11582  Biso   1.000  C
  C13      1.0000 0.48451  0.57230  0.10616  Biso   1.000  C
  C14      1.0000 0.56345  0.56272  0.01346  Biso   1.000  C
  C15      1.0000 0.46195  0.56337  0.93953  Biso   1.000  C
  C16      1.0000 0.47501  0.35543  0.21212  Biso   1.000  C
  Ti3      1.0000 0.81459  0.31681  0.33954  Biso   1.000  Ti
  Ti4      1.0000 0.24252  0.76853  0.83941  Biso   1.000  Ti
  O9       1.0000 0.41783  0.91390  0.77594  Biso   1.000  O
  O10      1.0000 0.73470  0.17791  0.44215  Biso   1.000  O
  O11      1.0000 0.55325  0.82855  0.70826  Biso   1.000  O
  O12      1.0000 0.53062  0.09974  0.44127  Biso   1.000  O
  O13      1.0000 0.32321  0.79541  0.95422  Biso   1.000  O
  O14      1.0000 0.75695  0.22399  0.22840  Biso   1.000  O
  O15      1.0000 0.52430  0.91137  0.88495  Biso   1.000  O
  O16      1.0000 0.54039  0.07402  0.26160  Biso   1.000  O
  C17      1.0000 0.62055  0.07722  0.45490  Biso   1.000  C
  C18      1.0000 0.49821  0.89773  0.72811  Biso   1.000  C
  C19      1.0000 0.62908  0.95883  0.48360  Biso   1.000  C
  C20      1.0000 0.56839  0.02189  0.66332  Biso   1.000  C
  C21      1.0000 0.49204  0.86630  0.51891  Biso   1.000  C
  C22      1.0000 0.71271  0.05717  0.64496  Biso   1.000  C
  C23      1.0000 0.45665  0.94498  0.58692  Biso   1.000  C
  C24      1.0000 0.72447  0.97572  0.56392  Biso   1.000  C
  C25      1.0000 0.55295  0.14199  0.01710  Biso   1.000  C
  C26      1.0000 0.66177  0.05487  0.11772  Biso   1.000  C
  C27      1.0000 0.67756  0.13373  0.02734  Biso   1.000  C
  C28      1.0000 0.55539  0.91118  0.11582  Biso   1.000  C
  C29      1.0000 0.42770  0.91221  0.10616  Biso   1.000  C
  C30      1.0000 0.43728  0.00073  0.01346  Biso   1.000  C
  C31      1.0000 0.43663  0.89858  0.93953  Biso   1.000  C
  C32      1.0000 0.64457  0.11958  0.21212  Biso   1.000  C
  Ti5      1.0000 0.68319  0.49778  0.33954  Biso   1.000  Ti
  Ti6      1.0000 0.23147  0.47399  0.83941  Biso   1.000  Ti
  O17      1.0000 0.08610  0.50393  0.77594  Biso   1.000  O
  O18      1.0000 0.82209  0.55679  0.44215  Biso   1.000  O
  O19      1.0000 0.17145  0.72470  0.70826  Biso   1.000  O
  O20      1.0000 0.90026  0.43088  0.44127  Biso   1.000  O
  O21      1.0000 0.20459  0.52780  0.95422  Biso   1.000  O
  O22      1.0000 0.77601  0.53296  0.22840  Biso   1.000  O
  O23      1.0000 0.08863  0.61293  0.88495  Biso   1.000  O
  O24      1.0000 0.92598  0.46637  0.26160  Biso   1.000  O
  C33      1.0000 0.92278  0.54333  0.45490  Biso   1.000  C
  C34      1.0000 0.10227  0.60048  0.72811  Biso   1.000  C
  C35      1.0000 0.04117  0.67025  0.48360  Biso   1.000  C
  C36      1.0000 0.97811  0.54650  0.66332  Biso   1.000  C
  C37      1.0000 0.13370  0.62574  0.51891  Biso   1.000  C
  C38      1.0000 0.94283  0.65554  0.64496  Biso   1.000  C
  C39      1.0000 0.05502  0.51167  0.58692  Biso   1.000  C
  C40      1.0000 0.02428  0.74875  0.56392  Biso   1.000  C
  C41      1.0000 0.85801  0.41096  0.01710  Biso   1.000  C
  C42      1.0000 0.94513  0.60690  0.11772  Biso   1.000  C
  C43      1.0000 0.86627  0.54383  0.02734  Biso   1.000  C
  C44      1.0000 0.08882  0.64421  0.11582  Biso   1.000  C
  C45      1.0000 0.08779  0.51549  0.10616  Biso   1.000  C
  C46      1.0000 0.99927  0.43655  0.01346  Biso   1.000  C
  C47      1.0000 0.10142  0.53805  0.93953  Biso   1.000  C
  C48      1.0000 0.88042  0.52499  0.21212  Biso   1.000  C
  O25      1.0000 0.33333  0.66667  0.80382  Biso   1.000  O
  O26      1.0000 0.66667  0.33333  0.33550  Biso   1.000  O
