data_image0
_cell_length_a       10.488
_cell_length_b       10.212
_cell_length_c       11.273
_cell_angle_alpha    90
_cell_angle_beta     92.89
_cell_angle_gamma    90

_symmetry_space_group_name_H-M    "P 1"
_symmetry_int_tables_number       1

loop_
  _symmetry_equiv_pos_as_xyz
  'x, y, z'

loop_
  _atom_site_label
  _atom_site_occupancy
  _atom_site_fract_x
  _atom_site_fract_y
  _atom_site_fract_z
  _atom_site_thermal_displace_type
  _atom_site_B_iso_or_equiv
  _atom_site_type_symbol
  Cd1      1.0000 0.63410  0.13621  0.60660  Biso   1.000  Cd
  S1       1.0000 0.39839  0.14701  0.56416  Biso   1.000  S
  N1       1.0000 0.29090  0.90660  0.57120  Biso   1.000  N
  N2       1.0000 0.23660  0.82410  0.65190  Biso   1.000  N
  N3       1.0000 0.31070  0.99950  0.74930  Biso   1.000  N
  C1       1.0000 0.33380  0.01130  0.63240  Biso   1.000  C
  C2       1.0000 0.25090  0.88330  0.75560  Biso   1.000  C
  H1       1.0000 0.22260  0.84840  0.82580  Biso   1.000  H
  Cd2      1.0000 0.13410  0.63621  0.60660  Biso   1.000  Cd
  S2       1.0000 0.89839  0.64701  0.56416  Biso   1.000  S
  N4       1.0000 0.79090  0.40660  0.57120  Biso   1.000  N
  N5       1.0000 0.73660  0.32410  0.65190  Biso   1.000  N
  N6       1.0000 0.81070  0.49950  0.74930  Biso   1.000  N
  C3       1.0000 0.83380  0.51130  0.63240  Biso   1.000  C
  C4       1.0000 0.75090  0.38330  0.75560  Biso   1.000  C
  H2       1.0000 0.72260  0.34840  0.82580  Biso   1.000  H
  Cd3      1.0000 0.36590  0.13621  0.89340  Biso   1.000  Cd
  S3       1.0000 0.60161  0.14701  0.93584  Biso   1.000  S
  N7       1.0000 0.70910  0.90660  0.92880  Biso   1.000  N
  N8       1.0000 0.76340  0.82410  0.84810  Biso   1.000  N
  N9       1.0000 0.68930  0.99950  0.75070  Biso   1.000  N
  C5       1.0000 0.66620  0.01130  0.86760  Biso   1.000  C
  C6       1.0000 0.74910  0.88330  0.74440  Biso   1.000  C
  H3       1.0000 0.77740  0.84840  0.67420  Biso   1.000  H
  Cd4      1.0000 0.86590  0.63621  0.89340  Biso   1.000  Cd
  S4       1.0000 0.10161  0.64701  0.93584  Biso   1.000  S
  N10      1.0000 0.20910  0.40660  0.92880  Biso   1.000  N
  N11      1.0000 0.26340  0.32410  0.84810  Biso   1.000  N
  N12      1.0000 0.18930  0.49950  0.75070  Biso   1.000  N
  C7       1.0000 0.16620  0.51130  0.86760  Biso   1.000  C
  C8       1.0000 0.24910  0.38330  0.74440  Biso   1.000  C
  H4       1.0000 0.27740  0.34840  0.67420  Biso   1.000  H
  Cd5      1.0000 0.36590  0.86379  0.39340  Biso   1.000  Cd
  S5       1.0000 0.60161  0.85299  0.43584  Biso   1.000  S
  N13      1.0000 0.70910  0.09340  0.42880  Biso   1.000  N
  N14      1.0000 0.76340  0.17590  0.34810  Biso   1.000  N
  N15      1.0000 0.68930  0.00050  0.25070  Biso   1.000  N
  C9       1.0000 0.66620  0.98870  0.36760  Biso   1.000  C
  C10      1.0000 0.74910  0.11670  0.24440  Biso   1.000  C
  H5       1.0000 0.77740  0.15160  0.17420  Biso   1.000  H
  Cd6      1.0000 0.86590  0.36379  0.39340  Biso   1.000  Cd
  S6       1.0000 0.10161  0.35299  0.43584  Biso   1.000  S
  N16      1.0000 0.20910  0.59340  0.42880  Biso   1.000  N
  N17      1.0000 0.26340  0.67590  0.34810  Biso   1.000  N
  N18      1.0000 0.18930  0.50050  0.25070  Biso   1.000  N
  C11      1.0000 0.16620  0.48870  0.36760  Biso   1.000  C
  C12      1.0000 0.24910  0.61670  0.24440  Biso   1.000  C
  H6       1.0000 0.27740  0.65160  0.17420  Biso   1.000  H
  Cd7      1.0000 0.63410  0.86379  0.10660  Biso   1.000  Cd
  S7       1.0000 0.39839  0.85299  0.06416  Biso   1.000  S
  N19      1.0000 0.29090  0.09340  0.07120  Biso   1.000  N
  N20      1.0000 0.23660  0.17590  0.15190  Biso   1.000  N
  N21      1.0000 0.31070  0.00050  0.24930  Biso   1.000  N
  C13      1.0000 0.33380  0.98870  0.13240  Biso   1.000  C
  C14      1.0000 0.25090  0.11670  0.25560  Biso   1.000  C
  H7       1.0000 0.22260  0.15160  0.32580  Biso   1.000  H
  Cd8      1.0000 0.13410  0.36379  0.10660  Biso   1.000  Cd
  S8       1.0000 0.89839  0.35299  0.06416  Biso   1.000  S
  N22      1.0000 0.79090  0.59340  0.07120  Biso   1.000  N
  N23      1.0000 0.73660  0.67590  0.15190  Biso   1.000  N
  N24      1.0000 0.81070  0.50050  0.24930  Biso   1.000  N
  C15      1.0000 0.83380  0.48870  0.13240  Biso   1.000  C
  C16      1.0000 0.75090  0.61670  0.25560  Biso   1.000  C
  H8       1.0000 0.72260  0.65160  0.32580  Biso   1.000  H
