data_NUYWEK_clean
_audit_creation_date              2014-07-02
_audit_creation_method            'Materials Studio'
_symmetry_space_group_name_H-M    'P1'
_symmetry_Int_Tables_number       1
_symmetry_cell_setting            triclinic
loop_
_symmetry_equiv_pos_as_xyz
  x,y,z
_cell_length_a                    9.1470
_cell_length_b                    9.2190
_cell_length_c                    14.6040
_cell_angle_alpha                 97.9730
_cell_angle_beta                  104.9560
_cell_angle_gamma                 104.5650
loop_
_atom_site_label
_atom_site_type_symbol
_atom_site_fract_x
_atom_site_fract_y
_atom_site_fract_z
_atom_site_U_iso_or_equiv
_atom_site_adp_type
_atom_site_occupancy
Cd1    Cd    0.59716   0.07904   0.18877   0.01267  Uiso   1.00
Cd2    Cd    0.33834   0.24758   0.59602   0.01267  Uiso   1.00
H1     H     0.92530   0.15960   0.50660   0.01267  Uiso   1.00
H2     H     0.75660   0.17030   0.60600   0.01267  Uiso   1.00
H3     H     0.17610   0.20500   0.77500   0.01267  Uiso   1.00
H4     H     0.10590   0.28840   0.90890   0.01267  Uiso   1.00
H5     H     0.99560   0.25130   0.03850   0.01267  Uiso   1.00
H6     H     0.56630   0.09100   0.85570   0.01267  Uiso   1.00
H7     H     0.65430   0.10710   0.72580   0.01267  Uiso   1.00
H8     H     0.18020   0.16830   0.36320   0.01267  Uiso   1.00
H9     H     0.01540   0.29080   0.26200   0.01267  Uiso   1.00
H10    H     0.19540   0.55210   0.52440   0.01267  Uiso   1.00
H11    H     0.03400   0.69550   0.48600   0.01267  Uiso   1.00
H12    H     0.90270   0.87010   0.42770   0.01267  Uiso   1.00
H13    H     0.79220   0.64090   0.15780   0.01267  Uiso   1.00
H14    H     0.93350   0.47480   0.20670   0.01267  Uiso   1.00
H15    H     0.26160   0.13810   0.22650   0.01267  Uiso   1.00
H16    H     0.99650   0.01420   0.12390   0.01267  Uiso   1.00
H17    H     0.27290   0.78350   0.05700   0.01267  Uiso   1.00
H18    H     0.78010   0.79230   0.03420   0.01267  Uiso   1.00
H19    H     0.57990   0.62190   0.90630   0.01267  Uiso   1.00
H20    H     0.87970   0.49980   0.78390   0.01267  Uiso   1.00
H21    H     0.08920   0.68360   0.90270   0.01267  Uiso   1.00
H22    H     0.70170   0.18980   0.42030   0.01267  Uiso   1.00
H23    H     0.65430   0.39020   0.52080   0.01267  Uiso   1.00
H24    H     0.52970   0.43890   0.24730   0.01267  Uiso   1.00
H25    H     0.64840   0.63410   0.56750   0.01267  Uiso   1.00
H26    H     0.54930   0.82060   0.62060   0.01267  Uiso   1.00
H27    H     0.35720   0.84490   0.34300   0.01267  Uiso   1.00
H28    H     0.43210   0.62410   0.29380   0.01267  Uiso   1.00
C1     C     0.95510   0.17180   0.57370   0.01267  Uiso   1.00
C2     C     0.86320   0.17570   0.62770   0.01267  Uiso   1.00
C3     C     0.09390   0.19600   0.71950   0.01267  Uiso   1.00
C4     C     0.88820   0.18810   0.80330   0.01267  Uiso   1.00
C5     C     0.99790   0.24420   0.89770   0.01267  Uiso   1.00
C6     C     0.92800   0.22690   0.97530   0.01267  Uiso   1.00
C7     C     0.77780   0.18000   0.96190   0.01267  Uiso   1.00
C8     C     0.67460   0.13000   0.86550   0.01267  Uiso   1.00
C9     C     0.72550   0.13640   0.78820   0.01267  Uiso   1.00
C10    C     0.70760   0.15690   0.04420   0.01267  Uiso   1.00
C11    C     0.16400   0.26180   0.38300   0.01267  Uiso   1.00
C12    C     0.07320   0.32880   0.32730   0.01267  Uiso   1.00
C13    C     0.17290   0.47240   0.47140   0.01267  Uiso   1.00
C14    C     0.00240   0.57050   0.35300   0.01267  Uiso   1.00
C15    C     0.98950   0.68550   0.41970   0.01267  Uiso   1.00
C16    C     0.90670   0.78820   0.38430   0.01267  Uiso   1.00
C17    C     0.83390   0.76760   0.28830   0.01267  Uiso   1.00
C18    C     0.84340   0.65260   0.22350   0.01267  Uiso   1.00
C19    C     0.92690   0.55220   0.25220   0.01267  Uiso   1.00
C20    C     0.74230   0.87530   0.25480   0.01267  Uiso   1.00
C21    C     0.23070   0.05210   0.17640   0.01267  Uiso   1.00
C22    C     0.08530   0.98420   0.12120   0.01267  Uiso   1.00
C23    C     0.23820   0.86080   0.08400   0.01267  Uiso   1.00
C24    C     0.95730   0.75590   0.98250   0.01267  Uiso   1.00
C25    C     0.80270   0.73830   0.98360   0.01267  Uiso   1.00
C26    C     0.68400   0.63620   0.90570   0.01267  Uiso   1.00
C27    C     0.70700   0.55490   0.82820   0.01267  Uiso   1.00
C28    C     0.86000   0.56410   0.83120   0.01267  Uiso   1.00
C29    C     0.98600   0.67000   0.90480   0.01267  Uiso   1.00
C30    C     0.57710   0.44500   0.74840   0.01267  Uiso   1.00
C31    C     0.66110   0.26630   0.39900   0.01267  Uiso   1.00
C32    C     0.63880   0.37740   0.45430   0.01267  Uiso   1.00
C33    C     0.56880   0.40430   0.30280   0.01267  Uiso   1.00
C34    C     0.53600   0.60550   0.42280   0.01267  Uiso   1.00
C35    C     0.58210   0.67090   0.52310   0.01267  Uiso   1.00
C36    C     0.53000   0.78670   0.55430   0.01267  Uiso   1.00
C37    C     0.44490   0.85820   0.48810   0.01267  Uiso   1.00
C38    C     0.40980   0.79980   0.38890   0.01267  Uiso   1.00
C39    C     0.45790   0.66670   0.35960   0.01267  Uiso   1.00
C40    C     0.40120   0.98950   0.52260   0.01267  Uiso   1.00
N1     N     0.11100   0.18960   0.63590   0.01267  Uiso   1.00
N2     N     0.94780   0.18880   0.72040   0.01267  Uiso   1.00
N3     N     0.22940   0.35370   0.47410   0.01267  Uiso   1.00
N4     N     0.08050   0.46280   0.38350   0.01267  Uiso   1.00
N5     N     0.33170   0.97880   0.15010   0.01267  Uiso   1.00
N6     N     0.08750   0.86000   0.05820   0.01267  Uiso   1.00
N7     N     0.61480   0.28050   0.30380   0.01267  Uiso   1.00
N8     N     0.58690   0.47450   0.39500   0.01267  Uiso   1.00
O1     O     0.80590   0.16900   0.12710   0.01267  Uiso   1.00
O2     O     0.56770   0.13110   0.03240   0.01267  Uiso   1.00
O3     O     0.75990   0.99740   0.31200   0.01267  Uiso   1.00
O4     O     0.65290   0.83830   0.16640   0.01267  Uiso   1.00
O5     O     0.59820   0.40770   0.66960   0.01267  Uiso   1.00
O6     O     0.44700   0.38480   0.76380   0.01267  Uiso   1.00
O7     O     0.39260   0.01520   0.61240   0.01267  Uiso   1.00
O8     O     0.35840   0.07150   0.46800   0.01267  Uiso   1.00
