data_image0
_cell_length_a       15.318
_cell_length_b       8.0546
_cell_length_c       29.444
_cell_angle_alpha    90
_cell_angle_beta     99.92
_cell_angle_gamma    90

_symmetry_space_group_name_H-M    "P 1"
_symmetry_int_tables_number       1

loop_
  _symmetry_equiv_pos_as_xyz
  'x, y, z'

loop_
  _atom_site_label
  _atom_site_occupancy
  _atom_site_fract_x
  _atom_site_fract_y
  _atom_site_fract_z
  _atom_site_thermal_displace_type
  _atom_site_B_iso_or_equiv
  _atom_site_type_symbol
  Tb1      1.0000 0.04775  0.74556  0.50960  Biso   1.000  Tb
  Cu1      1.0000 0.57051  0.57790  0.75201  Biso   1.000  Cu
  Cu2      1.0000 0.64402  0.30580  0.71545  Biso   1.000  Cu
  Cu3      1.0000 0.49341  0.42770  0.67191  Biso   1.000  Cu
  Cu4      1.0000 0.64929  0.62310  0.68094  Biso   1.000  Cu
  I1       1.0000 0.62658  0.33490  0.62510  Biso   1.000  I
  I2       1.0000 0.74951  0.54561  0.76144  Biso   1.000  I
  I3       1.0000 0.50263  0.27190  0.75243  Biso   1.000  I
  I4       1.0000 0.49067  0.75368  0.67525  Biso   1.000  I
  O1       1.0000 0.97390  0.49550  0.54270  Biso   1.000  O
  O2       1.0000 0.14660  0.94790  0.54770  Biso   1.000  O
  O3       1.0000 0.96110  0.88760  0.55140  Biso   1.000  O
  O4       1.0000 0.88500  0.12220  0.54740  Biso   1.000  O
  O5       1.0000 0.07770  0.62600  0.58990  Biso   1.000  O
  O6       1.0000 0.08210  0.20000  0.54350  Biso   1.000  O
  N1       1.0000 0.73070  0.74780  0.64480  Biso   1.000  N
  N2       1.0000 0.95530  0.22300  0.69620  Biso   1.000  N
  N3       1.0000 0.38170  0.32250  0.63550  Biso   1.000  N
  C1       1.0000 0.01760  0.51780  0.58350  Biso   1.000  C
  C2       1.0000 0.84190  0.90350  0.59230  Biso   1.000  C
  C3       1.0000 0.99710  0.41630  0.62310  Biso   1.000  C
  C4       1.0000 0.91040  0.35730  0.62250  Biso   1.000  C
  H1       1.0000 0.86450  0.38100  0.59720  Biso   1.000  H
  C5       1.0000 0.90000  0.97980  0.56170  Biso   1.000  C
  C6       1.0000 0.03750  0.28310  0.69620  Biso   1.000  C
  H2       1.0000 0.08260  0.25720  0.72160  Biso   1.000  H
  C7       1.0000 0.23050  0.17760  0.58490  Biso   1.000  C
  C8       1.0000 0.05960  0.38030  0.66120  Biso   1.000  C
  H3       1.0000 0.11820  0.42230  0.66350  Biso   1.000  H
  C9       1.0000 0.37980  0.16170  0.62460  Biso   1.000  C
  H4       1.0000 0.43130  0.09670  0.63460  Biso   1.000  H
  C10      1.0000 0.89320  0.26430  0.65940  Biso   1.000  C
  H5       1.0000 0.83430  0.22700  0.65900  Biso   1.000  H
  C11      1.0000 0.30570  0.08530  0.59920  Biso   1.000  C
  H6       1.0000 0.30690  0.97060  0.59190  Biso   1.000  H
  C12      1.0000 0.30800  0.40980  0.62260  Biso   1.000  C
  H7       1.0000 0.30760  0.52320  0.63140  Biso   1.000  H
  C13      1.0000 0.75390  0.94860  0.58890  Biso   1.000  C
  H8       1.0000 0.73010  0.03480  0.56850  Biso   1.000  H
  C14      1.0000 0.70070  0.86790  0.61540  Biso   1.000  C
  H9       1.0000 0.64030  0.89970  0.61230  Biso   1.000  H
  C15      1.0000 0.23080  0.34300  0.59660  Biso   1.000  C
  H10      1.0000 0.17990  0.41020  0.58720  Biso   1.000  H
  C16      1.0000 0.14570  0.10030  0.55550  Biso   1.000  C
  C17      1.0000 0.87350  0.78030  0.62360  Biso   1.000  C
  H11      1.0000 0.93360  0.74590  0.62720  Biso   1.000  H
  C18      1.0000 0.81640  0.70730  0.64980  Biso   1.000  C
  H12      1.0000 0.83920  0.62580  0.67200  Biso   1.000  H
  Tb2      1.0000 0.45225  0.24556  0.99040  Biso   1.000  Tb
  Cu5      1.0000 0.92949  0.07790  0.74799  Biso   1.000  Cu
  Cu6      1.0000 0.85598  0.80580  0.78455  Biso   1.000  Cu
  Cu7      1.0000 0.00659  0.92770  0.82809  Biso   1.000  Cu
  Cu8      1.0000 0.85071  0.12310  0.81906  Biso   1.000  Cu
  I5       1.0000 0.87342  0.83490  0.87490  Biso   1.000  I
  I6       1.0000 0.75049  0.04561  0.73856  Biso   1.000  I
  I7       1.0000 0.99737  0.77190  0.74757  Biso   1.000  I
  I8       1.0000 0.00933  0.25368  0.82475  Biso   1.000  I
  O7       1.0000 0.52610  0.99550  0.95730  Biso   1.000  O
  O8       1.0000 0.35340  0.44790  0.95230  Biso   1.000  O
  O9       1.0000 0.53890  0.38760  0.94860  Biso   1.000  O
  O10      1.0000 0.61500  0.62220  0.95260  Biso   1.000  O
  O11      1.0000 0.42230  0.12600  0.91010  Biso   1.000  O
  O12      1.0000 0.41790  0.70000  0.95650  Biso   1.000  O
  N4       1.0000 0.76930  0.24780  0.85520  Biso   1.000  N
  N5       1.0000 0.54470  0.72300  0.80380  Biso   1.000  N
  N6       1.0000 0.11830  0.82250  0.86450  Biso   1.000  N
  C19      1.0000 0.48240  0.01780  0.91650  Biso   1.000  C
  C20      1.0000 0.65810  0.40350  0.90770  Biso   1.000  C
  C21      1.0000 0.50290  0.91630  0.87690  Biso   1.000  C
  C22      1.0000 0.58960  0.85730  0.87750  Biso   1.000  C
  H13      1.0000 0.63550  0.88100  0.90280  Biso   1.000  H
  C23      1.0000 0.60000  0.47980  0.93830  Biso   1.000  C
  C24      1.0000 0.46250  0.78310  0.80380  Biso   1.000  C
  H14      1.0000 0.41740  0.75720  0.77840  Biso   1.000  H
  C25      1.0000 0.26950  0.67760  0.91510  Biso   1.000  C
  C26      1.0000 0.44040  0.88030  0.83880  Biso   1.000  C
  H15      1.0000 0.38180  0.92230  0.83650  Biso   1.000  H
  C27      1.0000 0.12020  0.66170  0.87540  Biso   1.000  C
  H16      1.0000 0.06870  0.59670  0.86540  Biso   1.000  H
  C28      1.0000 0.60680  0.76430  0.84060  Biso   1.000  C
  H17      1.0000 0.66570  0.72700  0.84100  Biso   1.000  H
  C29      1.0000 0.19430  0.58530  0.90080  Biso   1.000  C
  H18      1.0000 0.19310  0.47060  0.90810  Biso   1.000  H
  C30      1.0000 0.19200  0.90980  0.87740  Biso   1.000  C
  H19      1.0000 0.19240  0.02320  0.86860  Biso   1.000  H
  C31      1.0000 0.74610  0.44860  0.91110  Biso   1.000  C
  H20      1.0000 0.76990  0.53480  0.93150  Biso   1.000  H
  C32      1.0000 0.79930  0.36790  0.88460  Biso   1.000  C
  H21      1.0000 0.85970  0.39970  0.88770  Biso   1.000  H
  C33      1.0000 0.26920  0.84300  0.90340  Biso   1.000  C
  H22      1.0000 0.32010  0.91020  0.91280  Biso   1.000  H
  C34      1.0000 0.35430  0.60030  0.94450  Biso   1.000  C
  C35      1.0000 0.62650  0.28030  0.87640  Biso   1.000  C
  H23      1.0000 0.56640  0.24590  0.87280  Biso   1.000  H
  C36      1.0000 0.68360  0.20730  0.85020  Biso   1.000  C
  H24      1.0000 0.66080  0.12580  0.82800  Biso   1.000  H
  Tb3      1.0000 0.95225  0.25444  0.49040  Biso   1.000  Tb
  Cu9      1.0000 0.42949  0.42210  0.24799  Biso   1.000  Cu
  Cu10     1.0000 0.35598  0.69420  0.28455  Biso   1.000  Cu
  Cu11     1.0000 0.50659  0.57230  0.32809  Biso   1.000  Cu
  Cu12     1.0000 0.35071  0.37690  0.31906  Biso   1.000  Cu
  I9       1.0000 0.37342  0.66510  0.37490  Biso   1.000  I
  I10      1.0000 0.25049  0.45439  0.23856  Biso   1.000  I
  I11      1.0000 0.49737  0.72810  0.24757  Biso   1.000  I
  I12      1.0000 0.50933  0.24632  0.32475  Biso   1.000  I
  O13      1.0000 0.02610  0.50450  0.45730  Biso   1.000  O
  O14      1.0000 0.85340  0.05210  0.45230  Biso   1.000  O
  O15      1.0000 0.03890  0.11240  0.44860  Biso   1.000  O
  O16      1.0000 0.11500  0.87780  0.45260  Biso   1.000  O
  O17      1.0000 0.92230  0.37400  0.41010  Biso   1.000  O
  O18      1.0000 0.91790  0.80000  0.45650  Biso   1.000  O
  N7       1.0000 0.26930  0.25220  0.35520  Biso   1.000  N
  N8       1.0000 0.04470  0.77700  0.30380  Biso   1.000  N
  N9       1.0000 0.61830  0.67750  0.36450  Biso   1.000  N
  C37      1.0000 0.98240  0.48220  0.41650  Biso   1.000  C
  C38      1.0000 0.15810  0.09650  0.40770  Biso   1.000  C
  C39      1.0000 0.00290  0.58370  0.37690  Biso   1.000  C
  C40      1.0000 0.08960  0.64270  0.37750  Biso   1.000  C
  H25      1.0000 0.13550  0.61900  0.40280  Biso   1.000  H
  C41      1.0000 0.10000  0.02020  0.43830  Biso   1.000  C
  C42      1.0000 0.96250  0.71690  0.30380  Biso   1.000  C
  H26      1.0000 0.91740  0.74280  0.27840  Biso   1.000  H
  C43      1.0000 0.76950  0.82240  0.41510  Biso   1.000  C
  C44      1.0000 0.94040  0.61970  0.33880  Biso   1.000  C
  H27      1.0000 0.88180  0.57770  0.33650  Biso   1.000  H
  C45      1.0000 0.62020  0.83830  0.37540  Biso   1.000  C
  H28      1.0000 0.56870  0.90330  0.36540  Biso   1.000  H
  C46      1.0000 0.10680  0.73570  0.34060  Biso   1.000  C
  H29      1.0000 0.16570  0.77300  0.34100  Biso   1.000  H
  C47      1.0000 0.69430  0.91470  0.40080  Biso   1.000  C
  H30      1.0000 0.69310  0.02940  0.40810  Biso   1.000  H
  C48      1.0000 0.69200  0.59020  0.37740  Biso   1.000  C
  H31      1.0000 0.69240  0.47680  0.36860  Biso   1.000  H
  C49      1.0000 0.24610  0.05140  0.41110  Biso   1.000  C
  H32      1.0000 0.26990  0.96520  0.43150  Biso   1.000  H
  C50      1.0000 0.29930  0.13210  0.38460  Biso   1.000  C
  H33      1.0000 0.35970  0.10030  0.38770  Biso   1.000  H
  C51      1.0000 0.76920  0.65700  0.40340  Biso   1.000  C
  H34      1.0000 0.82010  0.58980  0.41280  Biso   1.000  H
  C52      1.0000 0.85430  0.89970  0.44450  Biso   1.000  C
  C53      1.0000 0.12650  0.21970  0.37640  Biso   1.000  C
  H35      1.0000 0.06640  0.25410  0.37280  Biso   1.000  H
  C54      1.0000 0.18360  0.29270  0.35020  Biso   1.000  C
  H36      1.0000 0.16080  0.37420  0.32800  Biso   1.000  H
  Tb4      1.0000 0.54775  0.75444  0.00960  Biso   1.000  Tb
  Cu13     1.0000 0.07051  0.92210  0.25201  Biso   1.000  Cu
  Cu14     1.0000 0.14402  0.19420  0.21545  Biso   1.000  Cu
  Cu15     1.0000 0.99341  0.07230  0.17191  Biso   1.000  Cu
  Cu16     1.0000 0.14929  0.87690  0.18094  Biso   1.000  Cu
  I13      1.0000 0.12658  0.16510  0.12510  Biso   1.000  I
  I14      1.0000 0.24951  0.95439  0.26144  Biso   1.000  I
  I15      1.0000 0.00263  0.22810  0.25243  Biso   1.000  I
  I16      1.0000 0.99067  0.74632  0.17525  Biso   1.000  I
  O19      1.0000 0.47390  0.00450  0.04270  Biso   1.000  O
  O20      1.0000 0.64660  0.55210  0.04770  Biso   1.000  O
  O21      1.0000 0.46110  0.61240  0.05140  Biso   1.000  O
  O22      1.0000 0.38500  0.37780  0.04740  Biso   1.000  O
  O23      1.0000 0.57770  0.87400  0.08990  Biso   1.000  O
  O24      1.0000 0.58210  0.30000  0.04350  Biso   1.000  O
  N10      1.0000 0.23070  0.75220  0.14480  Biso   1.000  N
  N11      1.0000 0.45530  0.27700  0.19620  Biso   1.000  N
  N12      1.0000 0.88170  0.17750  0.13550  Biso   1.000  N
  C55      1.0000 0.51760  0.98220  0.08350  Biso   1.000  C
  C56      1.0000 0.34190  0.59650  0.09230  Biso   1.000  C
  C57      1.0000 0.49710  0.08370  0.12310  Biso   1.000  C
  C58      1.0000 0.41040  0.14270  0.12250  Biso   1.000  C
  H37      1.0000 0.36450  0.11900  0.09720  Biso   1.000  H
  C59      1.0000 0.40000  0.52020  0.06170  Biso   1.000  C
  C60      1.0000 0.53750  0.21690  0.19620  Biso   1.000  C
  H38      1.0000 0.58260  0.24280  0.22160  Biso   1.000  H
  C61      1.0000 0.73050  0.32240  0.08490  Biso   1.000  C
  C62      1.0000 0.55960  0.11970  0.16120  Biso   1.000  C
  H39      1.0000 0.61820  0.07770  0.16350  Biso   1.000  H
  C63      1.0000 0.87980  0.33830  0.12460  Biso   1.000  C
  H40      1.0000 0.93130  0.40330  0.13460  Biso   1.000  H
  C64      1.0000 0.39320  0.23570  0.15940  Biso   1.000  C
  H41      1.0000 0.33430  0.27300  0.15900  Biso   1.000  H
  C65      1.0000 0.80570  0.41470  0.09920  Biso   1.000  C
  H42      1.0000 0.80690  0.52940  0.09190  Biso   1.000  H
  C66      1.0000 0.80800  0.09020  0.12260  Biso   1.000  C
  H43      1.0000 0.80760  0.97680  0.13140  Biso   1.000  H
  C67      1.0000 0.25390  0.55140  0.08890  Biso   1.000  C
  H44      1.0000 0.23010  0.46520  0.06850  Biso   1.000  H
  C68      1.0000 0.20070  0.63210  0.11540  Biso   1.000  C
  H45      1.0000 0.14030  0.60030  0.11230  Biso   1.000  H
  C69      1.0000 0.73080  0.15700  0.09660  Biso   1.000  C
  H46      1.0000 0.67990  0.08980  0.08720  Biso   1.000  H
  C70      1.0000 0.64570  0.39970  0.05550  Biso   1.000  C
  C71      1.0000 0.37350  0.71970  0.12360  Biso   1.000  C
  H47      1.0000 0.43360  0.75410  0.12720  Biso   1.000  H
  C72      1.0000 0.31640  0.79270  0.14980  Biso   1.000  C
  H48      1.0000 0.33920  0.87420  0.17200  Biso   1.000  H
