data_image0
_cell_length_a       15.074
_cell_length_b       24.9818
_cell_length_c       29.6125
_cell_angle_alpha    90
_cell_angle_beta     107.801
_cell_angle_gamma    90

_symmetry_space_group_name_H-M    "P 1"
_symmetry_int_tables_number       1

loop_
  _symmetry_equiv_pos_as_xyz
  'x, y, z'

loop_
  _atom_site_label
  _atom_site_occupancy
  _atom_site_fract_x
  _atom_site_fract_y
  _atom_site_fract_z
  _atom_site_thermal_displace_type
  _atom_site_B_iso_or_equiv
  _atom_site_type_symbol
  Tb1      1.0000 0.96453  0.57990  0.51385  Biso   1.000  Tb
  Tb2      1.0000 0.95628  0.90056  0.53456  Biso   1.000  Tb
  Tb3      1.0000 0.03896  0.74163  0.49543  Biso   1.000  Tb
  I1       1.0000 0.67522  0.56667  0.68517  Biso   1.000  I
  I2       1.0000 0.47961  0.64433  0.76343  Biso   1.000  I
  I3       1.0000 0.74229  0.71965  0.77156  Biso   1.000  I
  I4       1.0000 0.51320  0.71173  0.62817  Biso   1.000  I
  I5       1.0000 0.49934  0.81086  0.74238  Biso   1.000  I
  I6       1.0000 0.30946  0.74811  0.82972  Biso   1.000  I
  I7       1.0000 0.49103  0.89177  0.87495  Biso   1.000  I
  I8       1.0000 0.25514  0.89740  0.73655  Biso   1.000  I
  I9       1.0000 0.51297  0.97779  0.75104  Biso   1.000  I
  I10      1.0000 0.69633  0.90915  0.66384  Biso   1.000  I
  I11      1.0000 0.77551  0.05473  0.75311  Biso   1.000  I
  I12      1.0000 0.52969  0.05180  0.61800  Biso   1.000  I
  Cu1      1.0000 0.52060  0.62222  0.68214  Biso   1.000  Cu
  Cu2      1.0000 0.67927  0.67053  0.68768  Biso   1.000  Cu
  Cu3      1.0000 0.65305  0.62281  0.76005  Biso   1.000  Cu
  Cu4      1.0000 0.56450  0.71851  0.72280  Biso   1.000  Cu
  Cu5      1.0000 0.32690  0.79799  0.74889  Biso   1.000  Cu
  Cu6      1.0000 0.46338  0.79443  0.82640  Biso   1.000  Cu
  Cu7      1.0000 0.31731  0.85314  0.82327  Biso   1.000  Cu
  Cu8      1.0000 0.43339  0.89446  0.78229  Biso   1.000  Cu
  Cu9      1.0000 0.53976  0.95687  0.66594  Biso   1.000  Cu
  Cu10     1.0000 0.68264  0.96015  0.74308  Biso   1.000  Cu
  Cu11     1.0000 0.70513  0.01476  0.66538  Biso   1.000  Cu
  Cu12     1.0000 0.40553  0.55484  0.78877  Biso   1.000  Cu
  O1       1.0000 0.09610  0.52891  0.54122  Biso   1.000  O
  O2       1.0000 0.17735  0.45668  0.53506  Biso   1.000  O
  O3       1.0000 0.01801  0.93354  0.94883  Biso   1.000  O
  O4       1.0000 0.07770  0.01394  0.93992  Biso   1.000  O
  O5       1.0000 0.08760  0.65964  0.54186  Biso   1.000  O
  O6       1.0000 0.03443  0.61546  0.59268  Biso   1.000  O
  O7       1.0000 0.91931  0.84291  0.96337  Biso   1.000  O
  O8       1.0000 0.97669  0.79469  0.91653  Biso   1.000  O
  O9       1.0000 0.98121  0.74246  0.56038  Biso   1.000  O
  O10      1.0000 0.91587  0.82173  0.56715  Biso   1.000  O
  O11      1.0000 0.17382  0.78352  0.54606  Biso   1.000  O
  O12      1.0000 0.09413  0.85112  0.56277  Biso   1.000  O
  O13      1.0000 0.92649  0.18703  0.54749  Biso   1.000  O
  O14      1.0000 0.98587  0.10967  0.53118  Biso   1.000  O
  O15      1.0000 0.89816  0.71739  0.96711  Biso   1.000  O
  O16      1.0000 0.82671  0.64219  0.97767  Biso   1.000  O
  O17      1.0000 0.93617  0.46857  0.94384  Biso   1.000  O
  O18      1.0000 0.88314  0.52881  0.98534  Biso   1.000  O
  N1       1.0000 0.41330  0.57769  0.64366  Biso   1.000  N
  N2       1.0000 0.23350  0.88818  0.85620  Biso   1.000  N
  N3       1.0000 0.25760  0.74597  0.69831  Biso   1.000  N
  N4       1.0000 0.75270  0.91322  0.79859  Biso   1.000  N
  N5       1.0000 0.76680  0.70227  0.65628  Biso   1.000  N
  N6       1.0000 0.42480  0.91317  0.63198  Biso   1.000  N
  N7       1.0000 0.78530  0.05273  0.63057  Biso   1.000  N
  N8       1.0000 0.57410  0.75322  0.86640  Biso   1.000  N
  N9       1.0000 0.71850  0.57786  0.81651  Biso   1.000  N
  C1       1.0000 0.32930  0.58426  0.64952  Biso   1.000  C
  H1       1.0000 0.32430  0.60640  0.67470  Biso   1.000  H
  C2       1.0000 0.24950  0.56020  0.62058  Biso   1.000  C
  H2       1.0000 0.19100  0.56620  0.62560  Biso   1.000  H
  C3       1.0000 0.25620  0.52723  0.58422  Biso   1.000  C
  C4       1.0000 0.34330  0.51758  0.57938  Biso   1.000  C
  H3       1.0000 0.35060  0.49360  0.55590  Biso   1.000  H
  C5       1.0000 0.41970  0.54366  0.60952  Biso   1.000  C
  H4       1.0000 0.47930  0.53730  0.60590  Biso   1.000  H
  C6       1.0000 0.17030  0.50239  0.55111  Biso   1.000  C
  C7       1.0000 0.17660  0.86040  0.87376  Biso   1.000  C
  H5       1.0000 0.17330  0.82270  0.86930  Biso   1.000  H
  C8       1.0000 0.12240  0.88355  0.89813  Biso   1.000  C
  H6       1.0000 0.08380  0.86180  0.91070  Biso   1.000  H
  C9       1.0000 0.12390  0.93835  0.90448  Biso   1.000  C
  C10      1.0000 0.18040  0.96789  0.88480  Biso   1.000  C
  H7       1.0000 0.18200  0.00580  0.88720  Biso   1.000  H
  C11      1.0000 0.23430  0.94169  0.86150  Biso   1.000  C
  H8       1.0000 0.27370  0.96240  0.84860  Biso   1.000  H
  C12      1.0000 0.06800  0.96427  0.93313  Biso   1.000  C
  C13      1.0000 0.28210  0.73742  0.65917  Biso   1.000  C
  H9       1.0000 0.33770  0.75350  0.65700  Biso   1.000  H
  C14      1.0000 0.23020  0.70604  0.62143  Biso   1.000  C
  H10      1.0000 0.24990  0.70120  0.59410  Biso   1.000  H
  C15      1.0000 0.14920  0.68194  0.62441  Biso   1.000  C
  C16      1.0000 0.12610  0.68831  0.66605  Biso   1.000  C
  H11      1.0000 0.07340  0.67040  0.67010  Biso   1.000  H
  C17      1.0000 0.18020  0.72083  0.70140  Biso   1.000  C
  H12      1.0000 0.16240  0.72580  0.72920  Biso   1.000  H
  C18      1.0000 0.08590  0.65019  0.58401  Biso   1.000  C
  C19      1.0000 0.73030  0.91300  0.83906  Biso   1.000  C
  H13      1.0000 0.67590  0.93160  0.84000  Biso   1.000  H
  C20      1.0000 0.78350  0.88670  0.87973  Biso   1.000  C
  H14      1.0000 0.76530  0.88730  0.90770  Biso   1.000  H
  C21      1.0000 0.86320  0.85957  0.87903  Biso   1.000  C
  C22      1.0000 0.88430  0.85728  0.83650  Biso   1.000  C
  H15      1.0000 0.93620  0.83720  0.83410  Biso   1.000  H
  C23      1.0000 0.82820  0.88481  0.79783  Biso   1.000  C
  H16      1.0000 0.84370  0.88360  0.76910  Biso   1.000  H
  C24      1.0000 0.92450  0.83079  0.92230  Biso   1.000  C
  C25      1.0000 0.82450  0.67276  0.63999  Biso   1.000  C
  H17      1.0000 0.82680  0.63530  0.64560  Biso   1.000  H
  C26      1.0000 0.88090  0.69378  0.61543  Biso   1.000  C
  H18      1.0000 0.92100  0.67130  0.60460  Biso   1.000  H
  C27      1.0000 0.87770  0.74822  0.60691  Biso   1.000  C
  C28      1.0000 0.82240  0.78003  0.62576  Biso   1.000  C
  H19      1.0000 0.82180  0.81780  0.62200  Biso   1.000  H
  C29      1.0000 0.76810  0.75608  0.65009  Biso   1.000  C
  H20      1.0000 0.73040  0.77800  0.66300  Biso   1.000  H
  C30      1.0000 0.92980  0.77306  0.57592  Biso   1.000  C
  C31      1.0000 0.42570  0.86584  0.61020  Biso   1.000  C
  H21      1.0000 0.48400  0.85150  0.61020  Biso   1.000  H
  C32      1.0000 0.34530  0.83706  0.58773  Biso   1.000  C
  H22      1.0000 0.34900  0.80410  0.57240  Biso   1.000  H
  C33      1.0000 0.25920  0.85741  0.58807  Biso   1.000  C
  C34      1.0000 0.25840  0.90534  0.61141  Biso   1.000  C
  H23      1.0000 0.20110  0.92000  0.61280  Biso   1.000  H
  C35      1.0000 0.34120  0.93183  0.63274  Biso   1.000  C
  H24      1.0000 0.33920  0.96460  0.64860  Biso   1.000  H
  C36      1.0000 0.16910  0.82838  0.56392  Biso   1.000  C
  C37      1.0000 0.78210  0.10685  0.62685  Biso   1.000  C
  H25      1.0000 0.74530  0.12620  0.64220  Biso   1.000  H
  C38      1.0000 0.83030  0.13507  0.60169  Biso   1.000  C
  H26      1.0000 0.82610  0.17300  0.59980  Biso   1.000  H
  C39      1.0000 0.88500  0.10752  0.57903  Biso   1.000  C
  C40      1.0000 0.88970  0.05213  0.58356  Biso   1.000  C
  H27      1.0000 0.92680  0.03190  0.56890  Biso   1.000  H
  C41      1.0000 0.84000  0.02668  0.60956  Biso   1.000  C
  H28      1.0000 0.84490  0.98890  0.61280  Biso   1.000  H
  C42      1.0000 0.93730  0.13678  0.55023  Biso   1.000  C
  C43      1.0000 0.65850  0.76950  0.86560  Biso   1.000  C
  H29      1.0000 0.66180  0.79680  0.84380  Biso   1.000  H
  C44      1.0000 0.74030  0.74863  0.89469  Biso   1.000  C
  H30      1.0000 0.79840  0.76150  0.89280  Biso   1.000  H
  C45      1.0000 0.73790  0.70889  0.92663  Biso   1.000  C
  C46      1.0000 0.65130  0.68998  0.92656  Biso   1.000  C
  H31      1.0000 0.64680  0.66160  0.94710  Biso   1.000  H
  C47      1.0000 0.57140  0.71277  0.89625  Biso   1.000  C
  H32      1.0000 0.51250  0.69950  0.89650  Biso   1.000  H
  C48      1.0000 0.82780  0.68718  0.95986  Biso   1.000  C
  C49      1.0000 0.78970  0.54504  0.81783  Biso   1.000  C
  H33      1.0000 0.80260  0.53760  0.78900  Biso   1.000  H
  C50      1.0000 0.84550  0.52138  0.85910  Biso   1.000  C
  H34      1.0000 0.89510  0.49830  0.85840  Biso   1.000  H
  C51      1.0000 0.82750  0.53208  0.90133  Biso   1.000  C
  C52      1.0000 0.75180  0.56400  0.90010  Biso   1.000  C
  H35      1.0000 0.73580  0.57050  0.92830  Biso   1.000  H
  C53      1.0000 0.69930  0.58643  0.85734  Biso   1.000  C
  H36      1.0000 0.64800  0.60870  0.85700  Biso   1.000  H
  C54      1.0000 0.88800  0.50807  0.94751  Biso   1.000  C
  Tb4      1.0000 0.03547  0.07990  0.98615  Biso   1.000  Tb
  Tb5      1.0000 0.04372  0.40056  0.96544  Biso   1.000  Tb
  Tb6      1.0000 0.96103  0.24163  0.00457  Biso   1.000  Tb
  I13      1.0000 0.32478  0.06667  0.81483  Biso   1.000  I
  I14      1.0000 0.52039  0.14433  0.73657  Biso   1.000  I
  I15      1.0000 0.25771  0.21965  0.72844  Biso   1.000  I
  I16      1.0000 0.48680  0.21173  0.87183  Biso   1.000  I
  I17      1.0000 0.50066  0.31086  0.75762  Biso   1.000  I
  I18      1.0000 0.69054  0.24811  0.67028  Biso   1.000  I
  I19      1.0000 0.50897  0.39177  0.62505  Biso   1.000  I
  I20      1.0000 0.74486  0.39740  0.76345  Biso   1.000  I
  I21      1.0000 0.48703  0.47779  0.74896  Biso   1.000  I
  I22      1.0000 0.30367  0.40915  0.83616  Biso   1.000  I
  I23      1.0000 0.22449  0.55473  0.74689  Biso   1.000  I
  I24      1.0000 0.47031  0.55180  0.88200  Biso   1.000  I
  Cu13     1.0000 0.47940  0.12222  0.81786  Biso   1.000  Cu
  Cu14     1.0000 0.32073  0.17053  0.81232  Biso   1.000  Cu
  Cu15     1.0000 0.34695  0.12281  0.73995  Biso   1.000  Cu
  Cu16     1.0000 0.43550  0.21851  0.77720  Biso   1.000  Cu
  Cu17     1.0000 0.67310  0.29799  0.75111  Biso   1.000  Cu
  Cu18     1.0000 0.53662  0.29443  0.67360  Biso   1.000  Cu
  Cu19     1.0000 0.68269  0.35314  0.67673  Biso   1.000  Cu
  Cu20     1.0000 0.56661  0.39446  0.71770  Biso   1.000  Cu
  Cu21     1.0000 0.46024  0.45687  0.83406  Biso   1.000  Cu
  Cu22     1.0000 0.31736  0.46015  0.75692  Biso   1.000  Cu
  Cu23     1.0000 0.29487  0.51476  0.83461  Biso   1.000  Cu
  Cu24     1.0000 0.59447  0.05484  0.71123  Biso   1.000  Cu
  O19      1.0000 0.90390  0.02891  0.95878  Biso   1.000  O
  O20      1.0000 0.82265  0.95668  0.96494  Biso   1.000  O
  O21      1.0000 0.98199  0.43354  0.55117  Biso   1.000  O
  O22      1.0000 0.92230  0.51394  0.56008  Biso   1.000  O
  O23      1.0000 0.91240  0.15964  0.95814  Biso   1.000  O
  O24      1.0000 0.96557  0.11546  0.90732  Biso   1.000  O
  O25      1.0000 0.08069  0.34291  0.53663  Biso   1.000  O
  O26      1.0000 0.02331  0.29469  0.58347  Biso   1.000  O
  O27      1.0000 0.01879  0.24246  0.93962  Biso   1.000  O
  O28      1.0000 0.08413  0.32173  0.93285  Biso   1.000  O
  O29      1.0000 0.82618  0.28352  0.95394  Biso   1.000  O
  O30      1.0000 0.90587  0.35112  0.93723  Biso   1.000  O
  O31      1.0000 0.07351  0.68703  0.95251  Biso   1.000  O
  O32      1.0000 0.01413  0.60967  0.96882  Biso   1.000  O
  O33      1.0000 0.10184  0.21739  0.53289  Biso   1.000  O
  O34      1.0000 0.17329  0.14219  0.52233  Biso   1.000  O
  O35      1.0000 0.06383  0.96857  0.55616  Biso   1.000  O
  O36      1.0000 0.11686  0.02881  0.51466  Biso   1.000  O
  N10      1.0000 0.58670  0.07769  0.85634  Biso   1.000  N
  N11      1.0000 0.76650  0.38818  0.64380  Biso   1.000  N
  N12      1.0000 0.74240  0.24597  0.80169  Biso   1.000  N
  N13      1.0000 0.24730  0.41322  0.70141  Biso   1.000  N
  N14      1.0000 0.23320  0.20227  0.84372  Biso   1.000  N
  N15      1.0000 0.57520  0.41317  0.86802  Biso   1.000  N
  N16      1.0000 0.21470  0.55273  0.86943  Biso   1.000  N
  N17      1.0000 0.42590  0.25322  0.63360  Biso   1.000  N
  N18      1.0000 0.28150  0.07786  0.68349  Biso   1.000  N
  C55      1.0000 0.67070  0.08426  0.85048  Biso   1.000  C
  H37      1.0000 0.67570  0.10640  0.82530  Biso   1.000  H
  C56      1.0000 0.75050  0.06020  0.87942  Biso   1.000  C
  H38      1.0000 0.80900  0.06620  0.87440  Biso   1.000  H
  C57      1.0000 0.74380  0.02723  0.91578  Biso   1.000  C
  C58      1.0000 0.65670  0.01758  0.92062  Biso   1.000  C
  H39      1.0000 0.64940  0.99360  0.94410  Biso   1.000  H
  C59      1.0000 0.58030  0.04366  0.89048  Biso   1.000  C
  H40      1.0000 0.52070  0.03730  0.89410  Biso   1.000  H
  C60      1.0000 0.82970  0.00239  0.94889  Biso   1.000  C
  C61      1.0000 0.82340  0.36040  0.62624  Biso   1.000  C
  H41      1.0000 0.82670  0.32270  0.63070  Biso   1.000  H
  C62      1.0000 0.87760  0.38355  0.60187  Biso   1.000  C
  H42      1.0000 0.91620  0.36180  0.58930  Biso   1.000  H
  C63      1.0000 0.87610  0.43835  0.59552  Biso   1.000  C
  C64      1.0000 0.81960  0.46789  0.61520  Biso   1.000  C
  H43      1.0000 0.81800  0.50580  0.61280  Biso   1.000  H
  C65      1.0000 0.76570  0.44169  0.63850  Biso   1.000  C
  H44      1.0000 0.72630  0.46240  0.65140  Biso   1.000  H
  C66      1.0000 0.93200  0.46427  0.56687  Biso   1.000  C
  C67      1.0000 0.71790  0.23742  0.84083  Biso   1.000  C
  H45      1.0000 0.66230  0.25350  0.84300  Biso   1.000  H
  C68      1.0000 0.76980  0.20604  0.87857  Biso   1.000  C
  H46      1.0000 0.75010  0.20120  0.90590  Biso   1.000  H
  C69      1.0000 0.85080  0.18194  0.87559  Biso   1.000  C
  C70      1.0000 0.87390  0.18831  0.83395  Biso   1.000  C
  H47      1.0000 0.92660  0.17040  0.82990  Biso   1.000  H
  C71      1.0000 0.81980  0.22083  0.79860  Biso   1.000  C
  H48      1.0000 0.83760  0.22580  0.77080  Biso   1.000  H
  C72      1.0000 0.91410  0.15019  0.91599  Biso   1.000  C
  C73      1.0000 0.26970  0.41300  0.66094  Biso   1.000  C
  H49      1.0000 0.32410  0.43160  0.66000  Biso   1.000  H
  C74      1.0000 0.21650  0.38670  0.62027  Biso   1.000  C
  H50      1.0000 0.23470  0.38730  0.59230  Biso   1.000  H
  C75      1.0000 0.13680  0.35957  0.62097  Biso   1.000  C
  C76      1.0000 0.11570  0.35728  0.66350  Biso   1.000  C
  H51      1.0000 0.06380  0.33720  0.66590  Biso   1.000  H
  C77      1.0000 0.17180  0.38481  0.70217  Biso   1.000  C
  H52      1.0000 0.15630  0.38360  0.73090  Biso   1.000  H
  C78      1.0000 0.07550  0.33079  0.57770  Biso   1.000  C
  C79      1.0000 0.17550  0.17276  0.86001  Biso   1.000  C
  H53      1.0000 0.17320  0.13530  0.85440  Biso   1.000  H
  C80      1.0000 0.11910  0.19378  0.88457  Biso   1.000  C
  H54      1.0000 0.07900  0.17130  0.89540  Biso   1.000  H
  C81      1.0000 0.12230  0.24822  0.89309  Biso   1.000  C
  C82      1.0000 0.17760  0.28003  0.87424  Biso   1.000  C
  H55      1.0000 0.17820  0.31780  0.87800  Biso   1.000  H
  C83      1.0000 0.23190  0.25608  0.84991  Biso   1.000  C
  H56      1.0000 0.26960  0.27800  0.83700  Biso   1.000  H
  C84      1.0000 0.07020  0.27306  0.92408  Biso   1.000  C
  C85      1.0000 0.57430  0.36584  0.88980  Biso   1.000  C
  H57      1.0000 0.51600  0.35150  0.88980  Biso   1.000  H
  C86      1.0000 0.65470  0.33706  0.91227  Biso   1.000  C
  H58      1.0000 0.65100  0.30410  0.92760  Biso   1.000  H
  C87      1.0000 0.74080  0.35741  0.91193  Biso   1.000  C
  C88      1.0000 0.74160  0.40534  0.88859  Biso   1.000  C
  H59      1.0000 0.79890  0.42000  0.88720  Biso   1.000  H
  C89      1.0000 0.65880  0.43183  0.86726  Biso   1.000  C
  H60      1.0000 0.66080  0.46460  0.85140  Biso   1.000  H
  C90      1.0000 0.83090  0.32838  0.93608  Biso   1.000  C
  C91      1.0000 0.21790  0.60685  0.87315  Biso   1.000  C
  H61      1.0000 0.25470  0.62620  0.85780  Biso   1.000  H
  C92      1.0000 0.16970  0.63507  0.89831  Biso   1.000  C
  H62      1.0000 0.17390  0.67300  0.90020  Biso   1.000  H
  C93      1.0000 0.11500  0.60752  0.92097  Biso   1.000  C
  C94      1.0000 0.11030  0.55213  0.91644  Biso   1.000  C
  H63      1.0000 0.07320  0.53190  0.93110  Biso   1.000  H
  C95      1.0000 0.16000  0.52668  0.89044  Biso   1.000  C
  H64      1.0000 0.15510  0.48890  0.88720  Biso   1.000  H
  C96      1.0000 0.06270  0.63678  0.94977  Biso   1.000  C
  C97      1.0000 0.34150  0.26950  0.63440  Biso   1.000  C
  H65      1.0000 0.33820  0.29680  0.65620  Biso   1.000  H
  C98      1.0000 0.25970  0.24863  0.60531  Biso   1.000  C
  H66      1.0000 0.20160  0.26150  0.60720  Biso   1.000  H
  C99      1.0000 0.26210  0.20889  0.57337  Biso   1.000  C
  C100     1.0000 0.34870  0.18998  0.57344  Biso   1.000  C
  H67      1.0000 0.35320  0.16160  0.55290  Biso   1.000  H
  C101     1.0000 0.42860  0.21277  0.60375  Biso   1.000  C
  H68      1.0000 0.48750  0.19950  0.60350  Biso   1.000  H
  C102     1.0000 0.17220  0.18718  0.54014  Biso   1.000  C
  C103     1.0000 0.21030  0.04504  0.68217  Biso   1.000  C
  H69      1.0000 0.19740  0.03760  0.71100  Biso   1.000  H
  C104     1.0000 0.15450  0.02138  0.64090  Biso   1.000  C
  H70      1.0000 0.10490  0.99830  0.64160  Biso   1.000  H
  C105     1.0000 0.17250  0.03208  0.59867  Biso   1.000  C
  C106     1.0000 0.24820  0.06400  0.59990  Biso   1.000  C
  H71      1.0000 0.26420  0.07050  0.57170  Biso   1.000  H
  C107     1.0000 0.30070  0.08643  0.64266  Biso   1.000  C
  H72      1.0000 0.35200  0.10870  0.64300  Biso   1.000  H
  C108     1.0000 0.11200  0.00807  0.55249  Biso   1.000  C
  Tb7      1.0000 0.03547  0.42010  0.48615  Biso   1.000  Tb
  Tb8      1.0000 0.04372  0.09944  0.46544  Biso   1.000  Tb
  Tb9      1.0000 0.96103  0.25837  0.50457  Biso   1.000  Tb
  I25      1.0000 0.32478  0.43333  0.31483  Biso   1.000  I
  I26      1.0000 0.52039  0.35567  0.23657  Biso   1.000  I
  I27      1.0000 0.25771  0.28035  0.22844  Biso   1.000  I
  I28      1.0000 0.48680  0.28827  0.37183  Biso   1.000  I
  I29      1.0000 0.50066  0.18914  0.25762  Biso   1.000  I
  I30      1.0000 0.69054  0.25189  0.17028  Biso   1.000  I
  I31      1.0000 0.50897  0.10823  0.12505  Biso   1.000  I
  I32      1.0000 0.74486  0.10260  0.26345  Biso   1.000  I
  I33      1.0000 0.48703  0.02221  0.24896  Biso   1.000  I
  I34      1.0000 0.30367  0.09085  0.33616  Biso   1.000  I
  I35      1.0000 0.22449  0.94527  0.24689  Biso   1.000  I
  I36      1.0000 0.47031  0.94820  0.38200  Biso   1.000  I
  Cu25     1.0000 0.47940  0.37778  0.31786  Biso   1.000  Cu
  Cu26     1.0000 0.32073  0.32947  0.31232  Biso   1.000  Cu
  Cu27     1.0000 0.34695  0.37719  0.23995  Biso   1.000  Cu
  Cu28     1.0000 0.43550  0.28149  0.27720  Biso   1.000  Cu
  Cu29     1.0000 0.67310  0.20201  0.25111  Biso   1.000  Cu
  Cu30     1.0000 0.53662  0.20557  0.17360  Biso   1.000  Cu
  Cu31     1.0000 0.68269  0.14686  0.17673  Biso   1.000  Cu
  Cu32     1.0000 0.56661  0.10554  0.21770  Biso   1.000  Cu
  Cu33     1.0000 0.46024  0.04313  0.33406  Biso   1.000  Cu
  Cu34     1.0000 0.31736  0.03985  0.25692  Biso   1.000  Cu
  Cu35     1.0000 0.29487  0.98524  0.33461  Biso   1.000  Cu
  Cu36     1.0000 0.59447  0.44516  0.21123  Biso   1.000  Cu
  O37      1.0000 0.90390  0.47109  0.45878  Biso   1.000  O
  O38      1.0000 0.82265  0.54332  0.46494  Biso   1.000  O
  O39      1.0000 0.98199  0.06646  0.05117  Biso   1.000  O
  O40      1.0000 0.92230  0.98606  0.06008  Biso   1.000  O
  O41      1.0000 0.91240  0.34036  0.45814  Biso   1.000  O
  O42      1.0000 0.96557  0.38454  0.40732  Biso   1.000  O
  O43      1.0000 0.08069  0.15709  0.03663  Biso   1.000  O
  O44      1.0000 0.02331  0.20531  0.08347  Biso   1.000  O
  O45      1.0000 0.01879  0.25754  0.43962  Biso   1.000  O
  O46      1.0000 0.08413  0.17827  0.43285  Biso   1.000  O
  O47      1.0000 0.82618  0.21648  0.45394  Biso   1.000  O
  O48      1.0000 0.90587  0.14888  0.43723  Biso   1.000  O
  O49      1.0000 0.07351  0.81297  0.45251  Biso   1.000  O
  O50      1.0000 0.01413  0.89033  0.46882  Biso   1.000  O
  O51      1.0000 0.10184  0.28261  0.03289  Biso   1.000  O
  O52      1.0000 0.17329  0.35781  0.02233  Biso   1.000  O
  O53      1.0000 0.06383  0.53143  0.05616  Biso   1.000  O
  O54      1.0000 0.11686  0.47119  0.01466  Biso   1.000  O
  N19      1.0000 0.58670  0.42231  0.35634  Biso   1.000  N
  N20      1.0000 0.76650  0.11182  0.14380  Biso   1.000  N
  N21      1.0000 0.74240  0.25403  0.30169  Biso   1.000  N
  N22      1.0000 0.24730  0.08678  0.20141  Biso   1.000  N
  N23      1.0000 0.23320  0.29773  0.34372  Biso   1.000  N
  N24      1.0000 0.57520  0.08683  0.36802  Biso   1.000  N
  N25      1.0000 0.21470  0.94727  0.36943  Biso   1.000  N
  N26      1.0000 0.42590  0.24678  0.13360  Biso   1.000  N
  N27      1.0000 0.28150  0.42214  0.18349  Biso   1.000  N
  C109     1.0000 0.67070  0.41574  0.35048  Biso   1.000  C
  H73      1.0000 0.67570  0.39360  0.32530  Biso   1.000  H
  C110     1.0000 0.75050  0.43980  0.37942  Biso   1.000  C
  H74      1.0000 0.80900  0.43380  0.37440  Biso   1.000  H
  C111     1.0000 0.74380  0.47277  0.41578  Biso   1.000  C
  C112     1.0000 0.65670  0.48242  0.42062  Biso   1.000  C
  H75      1.0000 0.64940  0.50640  0.44410  Biso   1.000  H
  C113     1.0000 0.58030  0.45634  0.39048  Biso   1.000  C
  H76      1.0000 0.52070  0.46270  0.39410  Biso   1.000  H
  C114     1.0000 0.82970  0.49761  0.44889  Biso   1.000  C
  C115     1.0000 0.82340  0.13960  0.12624  Biso   1.000  C
  H77      1.0000 0.82670  0.17730  0.13070  Biso   1.000  H
  C116     1.0000 0.87760  0.11645  0.10187  Biso   1.000  C
  H78      1.0000 0.91620  0.13820  0.08930  Biso   1.000  H
  C117     1.0000 0.87610  0.06165  0.09552  Biso   1.000  C
  C118     1.0000 0.81960  0.03211  0.11520  Biso   1.000  C
  H79      1.0000 0.81800  0.99420  0.11280  Biso   1.000  H
  C119     1.0000 0.76570  0.05831  0.13850  Biso   1.000  C
  H80      1.0000 0.72630  0.03760  0.15140  Biso   1.000  H
  C120     1.0000 0.93200  0.03573  0.06687  Biso   1.000  C
  C121     1.0000 0.71790  0.26258  0.34083  Biso   1.000  C
  H81      1.0000 0.66230  0.24650  0.34300  Biso   1.000  H
  C122     1.0000 0.76980  0.29396  0.37857  Biso   1.000  C
  H82      1.0000 0.75010  0.29880  0.40590  Biso   1.000  H
  C123     1.0000 0.85080  0.31806  0.37559  Biso   1.000  C
  C124     1.0000 0.87390  0.31169  0.33395  Biso   1.000  C
  H83      1.0000 0.92660  0.32960  0.32990  Biso   1.000  H
  C125     1.0000 0.81980  0.27917  0.29860  Biso   1.000  C
  H84      1.0000 0.83760  0.27420  0.27080  Biso   1.000  H
  C126     1.0000 0.91410  0.34981  0.41599  Biso   1.000  C
  C127     1.0000 0.26970  0.08700  0.16094  Biso   1.000  C
  H85      1.0000 0.32410  0.06840  0.16000  Biso   1.000  H
  C128     1.0000 0.21650  0.11330  0.12027  Biso   1.000  C
  H86      1.0000 0.23470  0.11270  0.09230  Biso   1.000  H
  C129     1.0000 0.13680  0.14043  0.12097  Biso   1.000  C
  C130     1.0000 0.11570  0.14272  0.16350  Biso   1.000  C
  H87      1.0000 0.06380  0.16280  0.16590  Biso   1.000  H
  C131     1.0000 0.17180  0.11519  0.20217  Biso   1.000  C
  H88      1.0000 0.15630  0.11640  0.23090  Biso   1.000  H
  C132     1.0000 0.07550  0.16921  0.07770  Biso   1.000  C
  C133     1.0000 0.17550  0.32724  0.36001  Biso   1.000  C
  H89      1.0000 0.17320  0.36470  0.35440  Biso   1.000  H
  C134     1.0000 0.11910  0.30622  0.38457  Biso   1.000  C
  H90      1.0000 0.07900  0.32870  0.39540  Biso   1.000  H
  C135     1.0000 0.12230  0.25178  0.39309  Biso   1.000  C
  C136     1.0000 0.17760  0.21997  0.37424  Biso   1.000  C
  H91      1.0000 0.17820  0.18220  0.37800  Biso   1.000  H
  C137     1.0000 0.23190  0.24392  0.34991  Biso   1.000  C
  H92      1.0000 0.26960  0.22200  0.33700  Biso   1.000  H
  C138     1.0000 0.07020  0.22694  0.42408  Biso   1.000  C
  C139     1.0000 0.57430  0.13416  0.38980  Biso   1.000  C
  H93      1.0000 0.51600  0.14850  0.38980  Biso   1.000  H
  C140     1.0000 0.65470  0.16294  0.41227  Biso   1.000  C
  H94      1.0000 0.65100  0.19590  0.42760  Biso   1.000  H
  C141     1.0000 0.74080  0.14259  0.41193  Biso   1.000  C
  C142     1.0000 0.74160  0.09466  0.38859  Biso   1.000  C
  H95      1.0000 0.79890  0.08000  0.38720  Biso   1.000  H
  C143     1.0000 0.65880  0.06817  0.36726  Biso   1.000  C
  H96      1.0000 0.66080  0.03540  0.35140  Biso   1.000  H
  C144     1.0000 0.83090  0.17162  0.43608  Biso   1.000  C
  C145     1.0000 0.21790  0.89315  0.37315  Biso   1.000  C
  H97      1.0000 0.25470  0.87380  0.35780  Biso   1.000  H
  C146     1.0000 0.16970  0.86493  0.39831  Biso   1.000  C
  H98      1.0000 0.17390  0.82700  0.40020  Biso   1.000  H
  C147     1.0000 0.11500  0.89248  0.42097  Biso   1.000  C
  C148     1.0000 0.11030  0.94787  0.41644  Biso   1.000  C
  H99      1.0000 0.07320  0.96810  0.43110  Biso   1.000  H
  C149     1.0000 0.16000  0.97332  0.39044  Biso   1.000  C
  H100     1.0000 0.15510  0.01110  0.38720  Biso   1.000  H
  C150     1.0000 0.06270  0.86322  0.44977  Biso   1.000  C
  C151     1.0000 0.34150  0.23050  0.13440  Biso   1.000  C
  H101     1.0000 0.33820  0.20320  0.15620  Biso   1.000  H
  C152     1.0000 0.25970  0.25137  0.10531  Biso   1.000  C
  H102     1.0000 0.20160  0.23850  0.10720  Biso   1.000  H
  C153     1.0000 0.26210  0.29111  0.07337  Biso   1.000  C
  C154     1.0000 0.34870  0.31002  0.07344  Biso   1.000  C
  H103     1.0000 0.35320  0.33840  0.05290  Biso   1.000  H
  C155     1.0000 0.42860  0.28723  0.10375  Biso   1.000  C
  H104     1.0000 0.48750  0.30050  0.10350  Biso   1.000  H
  C156     1.0000 0.17220  0.31282  0.04014  Biso   1.000  C
  C157     1.0000 0.21030  0.45496  0.18217  Biso   1.000  C
  H105     1.0000 0.19740  0.46240  0.21100  Biso   1.000  H
  C158     1.0000 0.15450  0.47862  0.14090  Biso   1.000  C
  H106     1.0000 0.10490  0.50170  0.14160  Biso   1.000  H
  C159     1.0000 0.17250  0.46792  0.09867  Biso   1.000  C
  C160     1.0000 0.24820  0.43600  0.09990  Biso   1.000  C
  H107     1.0000 0.26420  0.42950  0.07170  Biso   1.000  H
  C161     1.0000 0.30070  0.41357  0.14266  Biso   1.000  C
  H108     1.0000 0.35200  0.39130  0.14300  Biso   1.000  H
  C162     1.0000 0.11200  0.49193  0.05249  Biso   1.000  C
  Tb10     1.0000 0.96453  0.92010  0.01385  Biso   1.000  Tb
  Tb11     1.0000 0.95628  0.59944  0.03456  Biso   1.000  Tb
  Tb12     1.0000 0.03896  0.75837  0.99543  Biso   1.000  Tb
  I37      1.0000 0.67522  0.93333  0.18517  Biso   1.000  I
  I38      1.0000 0.47961  0.85567  0.26343  Biso   1.000  I
  I39      1.0000 0.74229  0.78035  0.27156  Biso   1.000  I
  I40      1.0000 0.51320  0.78827  0.12817  Biso   1.000  I
  I41      1.0000 0.49934  0.68914  0.24238  Biso   1.000  I
  I42      1.0000 0.30946  0.75189  0.32972  Biso   1.000  I
  I43      1.0000 0.49103  0.60823  0.37495  Biso   1.000  I
  I44      1.0000 0.25514  0.60260  0.23655  Biso   1.000  I
  I45      1.0000 0.51297  0.52221  0.25104  Biso   1.000  I
  I46      1.0000 0.69633  0.59085  0.16384  Biso   1.000  I
  I47      1.0000 0.77551  0.44527  0.25311  Biso   1.000  I
  I48      1.0000 0.52969  0.44820  0.11800  Biso   1.000  I
  Cu37     1.0000 0.52060  0.87778  0.18214  Biso   1.000  Cu
  Cu38     1.0000 0.67927  0.82947  0.18768  Biso   1.000  Cu
  Cu39     1.0000 0.65305  0.87719  0.26005  Biso   1.000  Cu
  Cu40     1.0000 0.56450  0.78149  0.22280  Biso   1.000  Cu
  Cu41     1.0000 0.32690  0.70201  0.24889  Biso   1.000  Cu
  Cu42     1.0000 0.46338  0.70557  0.32640  Biso   1.000  Cu
  Cu43     1.0000 0.31731  0.64686  0.32327  Biso   1.000  Cu
  Cu44     1.0000 0.43339  0.60554  0.28230  Biso   1.000  Cu
  Cu45     1.0000 0.53976  0.54313  0.16594  Biso   1.000  Cu
  Cu46     1.0000 0.68264  0.53985  0.24308  Biso   1.000  Cu
  Cu47     1.0000 0.70513  0.48524  0.16539  Biso   1.000  Cu
  Cu48     1.0000 0.40553  0.94516  0.28877  Biso   1.000  Cu
  O55      1.0000 0.09610  0.97109  0.04122  Biso   1.000  O
  O56      1.0000 0.17735  0.04332  0.03506  Biso   1.000  O
  O57      1.0000 0.01801  0.56646  0.44883  Biso   1.000  O
  O58      1.0000 0.07770  0.48606  0.43992  Biso   1.000  O
  O59      1.0000 0.08760  0.84036  0.04186  Biso   1.000  O
  O60      1.0000 0.03443  0.88454  0.09268  Biso   1.000  O
  O61      1.0000 0.91931  0.65709  0.46337  Biso   1.000  O
  O62      1.0000 0.97669  0.70531  0.41653  Biso   1.000  O
  O63      1.0000 0.98121  0.75754  0.06038  Biso   1.000  O
  O64      1.0000 0.91587  0.67827  0.06715  Biso   1.000  O
  O65      1.0000 0.17382  0.71648  0.04606  Biso   1.000  O
  O66      1.0000 0.09413  0.64888  0.06277  Biso   1.000  O
  O67      1.0000 0.92649  0.31297  0.04749  Biso   1.000  O
  O68      1.0000 0.98587  0.39033  0.03118  Biso   1.000  O
  O69      1.0000 0.89816  0.78261  0.46711  Biso   1.000  O
  O70      1.0000 0.82671  0.85781  0.47767  Biso   1.000  O
  O71      1.0000 0.93617  0.03143  0.44384  Biso   1.000  O
  O72      1.0000 0.88314  0.97119  0.48534  Biso   1.000  O
  N28      1.0000 0.41330  0.92231  0.14366  Biso   1.000  N
  N29      1.0000 0.23350  0.61182  0.35620  Biso   1.000  N
  N30      1.0000 0.25760  0.75403  0.19831  Biso   1.000  N
  N31      1.0000 0.75270  0.58678  0.29859  Biso   1.000  N
  N32      1.0000 0.76680  0.79773  0.15628  Biso   1.000  N
  N33      1.0000 0.42480  0.58683  0.13198  Biso   1.000  N
  N34      1.0000 0.78530  0.44727  0.13057  Biso   1.000  N
  N35      1.0000 0.57410  0.74678  0.36640  Biso   1.000  N
  N36      1.0000 0.71850  0.92214  0.31651  Biso   1.000  N
  C163     1.0000 0.32930  0.91574  0.14952  Biso   1.000  C
  H109     1.0000 0.32430  0.89360  0.17470  Biso   1.000  H
  C164     1.0000 0.24950  0.93980  0.12058  Biso   1.000  C
  H110     1.0000 0.19100  0.93380  0.12560  Biso   1.000  H
  C165     1.0000 0.25620  0.97277  0.08422  Biso   1.000  C
  C166     1.0000 0.34330  0.98242  0.07938  Biso   1.000  C
  H111     1.0000 0.35060  0.00640  0.05590  Biso   1.000  H
  C167     1.0000 0.41970  0.95634  0.10952  Biso   1.000  C
  H112     1.0000 0.47930  0.96270  0.10590  Biso   1.000  H
  C168     1.0000 0.17030  0.99761  0.05111  Biso   1.000  C
  C169     1.0000 0.17660  0.63960  0.37376  Biso   1.000  C
  H113     1.0000 0.17330  0.67730  0.36930  Biso   1.000  H
  C170     1.0000 0.12240  0.61645  0.39813  Biso   1.000  C
  H114     1.0000 0.08380  0.63820  0.41070  Biso   1.000  H
  C171     1.0000 0.12390  0.56165  0.40448  Biso   1.000  C
  C172     1.0000 0.18040  0.53211  0.38480  Biso   1.000  C
  H115     1.0000 0.18200  0.49420  0.38720  Biso   1.000  H
  C173     1.0000 0.23430  0.55831  0.36150  Biso   1.000  C
  H116     1.0000 0.27370  0.53760  0.34860  Biso   1.000  H
  C174     1.0000 0.06800  0.53573  0.43313  Biso   1.000  C
  C175     1.0000 0.28210  0.76258  0.15917  Biso   1.000  C
  H117     1.0000 0.33770  0.74650  0.15700  Biso   1.000  H
  C176     1.0000 0.23020  0.79396  0.12143  Biso   1.000  C
  H118     1.0000 0.24990  0.79880  0.09410  Biso   1.000  H
  C177     1.0000 0.14920  0.81806  0.12441  Biso   1.000  C
  C178     1.0000 0.12610  0.81169  0.16605  Biso   1.000  C
  H119     1.0000 0.07340  0.82960  0.17010  Biso   1.000  H
  C179     1.0000 0.18020  0.77917  0.20140  Biso   1.000  C
  H120     1.0000 0.16240  0.77420  0.22920  Biso   1.000  H
  C180     1.0000 0.08590  0.84981  0.08401  Biso   1.000  C
  C181     1.0000 0.73030  0.58700  0.33906  Biso   1.000  C
  H121     1.0000 0.67590  0.56840  0.34000  Biso   1.000  H
  C182     1.0000 0.78350  0.61330  0.37973  Biso   1.000  C
  H122     1.0000 0.76530  0.61270  0.40770  Biso   1.000  H
  C183     1.0000 0.86320  0.64043  0.37903  Biso   1.000  C
  C184     1.0000 0.88430  0.64272  0.33650  Biso   1.000  C
  H123     1.0000 0.93620  0.66280  0.33410  Biso   1.000  H
  C185     1.0000 0.82820  0.61519  0.29783  Biso   1.000  C
  H124     1.0000 0.84370  0.61640  0.26910  Biso   1.000  H
  C186     1.0000 0.92450  0.66921  0.42230  Biso   1.000  C
  C187     1.0000 0.82450  0.82724  0.13999  Biso   1.000  C
  H125     1.0000 0.82680  0.86470  0.14560  Biso   1.000  H
  C188     1.0000 0.88090  0.80622  0.11543  Biso   1.000  C
  H126     1.0000 0.92100  0.82870  0.10460  Biso   1.000  H
  C189     1.0000 0.87770  0.75178  0.10691  Biso   1.000  C
  C190     1.0000 0.82240  0.71997  0.12576  Biso   1.000  C
  H127     1.0000 0.82180  0.68220  0.12200  Biso   1.000  H
  C191     1.0000 0.76810  0.74392  0.15009  Biso   1.000  C
  H128     1.0000 0.73040  0.72200  0.16300  Biso   1.000  H
  C192     1.0000 0.92980  0.72694  0.07592  Biso   1.000  C
  C193     1.0000 0.42570  0.63416  0.11020  Biso   1.000  C
  H129     1.0000 0.48400  0.64850  0.11020  Biso   1.000  H
  C194     1.0000 0.34530  0.66294  0.08773  Biso   1.000  C
  H130     1.0000 0.34900  0.69590  0.07240  Biso   1.000  H
  C195     1.0000 0.25920  0.64259  0.08807  Biso   1.000  C
  C196     1.0000 0.25840  0.59466  0.11141  Biso   1.000  C
  H131     1.0000 0.20110  0.58000  0.11280  Biso   1.000  H
  C197     1.0000 0.34120  0.56817  0.13274  Biso   1.000  C
  H132     1.0000 0.33920  0.53540  0.14860  Biso   1.000  H
  C198     1.0000 0.16910  0.67162  0.06392  Biso   1.000  C
  C199     1.0000 0.78210  0.39315  0.12685  Biso   1.000  C
  H133     1.0000 0.74530  0.37380  0.14220  Biso   1.000  H
  C200     1.0000 0.83030  0.36493  0.10169  Biso   1.000  C
  H134     1.0000 0.82610  0.32700  0.09980  Biso   1.000  H
  C201     1.0000 0.88500  0.39248  0.07903  Biso   1.000  C
  C202     1.0000 0.88970  0.44787  0.08356  Biso   1.000  C
  H135     1.0000 0.92680  0.46810  0.06890  Biso   1.000  H
  C203     1.0000 0.84000  0.47332  0.10956  Biso   1.000  C
  H136     1.0000 0.84490  0.51110  0.11280  Biso   1.000  H
  C204     1.0000 0.93730  0.36322  0.05023  Biso   1.000  C
  C205     1.0000 0.65850  0.73050  0.36560  Biso   1.000  C
  H137     1.0000 0.66180  0.70320  0.34380  Biso   1.000  H
  C206     1.0000 0.74030  0.75137  0.39469  Biso   1.000  C
  H138     1.0000 0.79840  0.73850  0.39280  Biso   1.000  H
  C207     1.0000 0.73790  0.79111  0.42663  Biso   1.000  C
  C208     1.0000 0.65130  0.81002  0.42656  Biso   1.000  C
  H139     1.0000 0.64680  0.83840  0.44710  Biso   1.000  H
  C209     1.0000 0.57140  0.78723  0.39625  Biso   1.000  C
  H140     1.0000 0.51250  0.80050  0.39650  Biso   1.000  H
  C210     1.0000 0.82780  0.81282  0.45986  Biso   1.000  C
  C211     1.0000 0.78970  0.95496  0.31783  Biso   1.000  C
  H141     1.0000 0.80260  0.96240  0.28900  Biso   1.000  H
  C212     1.0000 0.84550  0.97862  0.35910  Biso   1.000  C
  H142     1.0000 0.89510  0.00170  0.35840  Biso   1.000  H
  C213     1.0000 0.82750  0.96792  0.40133  Biso   1.000  C
  C214     1.0000 0.75180  0.93600  0.40010  Biso   1.000  C
  H143     1.0000 0.73580  0.92950  0.42830  Biso   1.000  H
  C215     1.0000 0.69930  0.91357  0.35734  Biso   1.000  C
  H144     1.0000 0.64800  0.89130  0.35700  Biso   1.000  H
  C216     1.0000 0.88800  0.99193  0.44751  Biso   1.000  C
