data_image0
_cell_length_a       15.005
_cell_length_b       8.341
_cell_length_c       29.272
_cell_angle_alpha    90
_cell_angle_beta     101.167
_cell_angle_gamma    90

_symmetry_space_group_name_H-M    "P 1"
_symmetry_int_tables_number       1

loop_
  _symmetry_equiv_pos_as_xyz
  'x, y, z'

loop_
  _atom_site_label
  _atom_site_occupancy
  _atom_site_fract_x
  _atom_site_fract_y
  _atom_site_fract_z
  _atom_site_thermal_displace_type
  _atom_site_B_iso_or_equiv
  _atom_site_type_symbol
  Tb1      1.0000 0.55869  0.77495  0.51458  Biso   1.000  Tb
  Cu1      1.0000 0.63880  0.17930  0.22028  Biso   1.000  Cu
  Cu2      1.0000 0.57850  0.88864  0.25173  Biso   1.000  Cu
  Cu3      1.0000 0.63676  0.89350  0.17395  Biso   1.000  Cu
  Cu4      1.0000 0.48204  0.05050  0.18221  Biso   1.000  Cu
  I1       1.0000 0.76113  0.94298  0.25564  Biso   1.000  I
  I2       1.0000 0.60034  0.17308  0.12677  Biso   1.000  I
  I3       1.0000 0.47761  0.73974  0.17403  Biso   1.000  I
  I4       1.0000 0.50540  0.17230  0.26870  Biso   1.000  I
  O1       1.0000 0.44530  0.79840  0.44708  Biso   1.000  O
  O2       1.0000 0.37240  0.03290  0.43399  Biso   1.000  O
  O3       1.0000 0.57360  0.55130  0.46964  Biso   1.000  O
  O4       1.0000 0.46810  0.39420  0.42673  Biso   1.000  O
  O5       1.0000 0.33790  0.10560  0.52805  Biso   1.000  O
  O6       1.0000 0.43600  0.90400  0.53662  Biso   1.000  O
  N1       1.0000 0.13901  0.65510  0.34900  Biso   1.000  N
  C1       1.0000 0.20992  0.56400  0.37362  Biso   1.000  C
  H1       1.0000 0.20550  0.45040  0.37380  Biso   1.000  H
  C2       1.0000 0.28738  0.63910  0.39802  Biso   1.000  C
  H2       1.0000 0.33590  0.57690  0.41490  Biso   1.000  H
  C3       1.0000 0.29393  0.80540  0.39781  Biso   1.000  C
  C4       1.0000 0.22301  0.89650  0.37319  Biso   1.000  C
  H3       1.0000 0.22750  0.01010  0.37300  Biso   1.000  H
  C5       1.0000 0.14555  0.82140  0.34878  Biso   1.000  C
  H4       1.0000 0.09710  0.88360  0.33200  Biso   1.000  H
  C6       1.0000 0.37820  0.88470  0.42887  Biso   1.000  C
  N2       1.0000 0.56758  0.74150  0.30562  Biso   1.000  N
  C7       1.0000 0.63230  0.75470  0.34641  Biso   1.000  C
  H5       1.0000 0.68500  0.81830  0.34700  Biso   1.000  H
  C8       1.0000 0.61988  0.67490  0.38639  Biso   1.000  C
  H6       1.0000 0.66410  0.68400  0.41430  Biso   1.000  H
  C9       1.0000 0.54273  0.58190  0.38559  Biso   1.000  C
  C10      1.0000 0.47801  0.56860  0.34479  Biso   1.000  C
  H7       1.0000 0.42530  0.50500  0.34420  Biso   1.000  H
  C11      1.0000 0.49043  0.64840  0.30481  Biso   1.000  C
  H8       1.0000 0.44620  0.63940  0.27690  Biso   1.000  H
  C12      1.0000 0.52710  0.50410  0.43100  Biso   1.000  C
  N3       1.0000 0.20979  0.74120  0.63570  Biso   1.000  N
  C13      1.0000 0.16975  0.86150  0.60575  Biso   1.000  C
  H9       1.0000 0.10830  0.89090  0.60500  Biso   1.000  H
  C14      1.0000 0.21958  0.93870  0.57689  Biso   1.000  C
  H10      1.0000 0.19220  0.02090  0.55640  Biso   1.000  H
  C15      1.0000 0.30945  0.89560  0.57798  Biso   1.000  C
  C16      1.0000 0.34950  0.77530  0.60792  Biso   1.000  C
  H11      1.0000 0.41090  0.74580  0.60870  Biso   1.000  H
  C17      1.0000 0.29966  0.69810  0.63678  Biso   1.000  C
  H12      1.0000 0.32700  0.61580  0.65720  Biso   1.000  H
  C18      1.0000 0.36510  0.97290  0.54494  Biso   1.000  C
  Tb2      1.0000 0.94131  0.27495  0.98542  Biso   1.000  Tb
  Cu5      1.0000 0.86120  0.67930  0.27972  Biso   1.000  Cu
  Cu6      1.0000 0.92150  0.38864  0.24827  Biso   1.000  Cu
  Cu7      1.0000 0.86324  0.39350  0.32605  Biso   1.000  Cu
  Cu8      1.0000 0.01796  0.55050  0.31779  Biso   1.000  Cu
  I5       1.0000 0.73887  0.44298  0.24436  Biso   1.000  I
  I6       1.0000 0.89966  0.67308  0.37323  Biso   1.000  I
  I7       1.0000 0.02239  0.23974  0.32597  Biso   1.000  I
  I8       1.0000 0.99460  0.67230  0.23130  Biso   1.000  I
  O7       1.0000 0.05470  0.29840  0.05292  Biso   1.000  O
  O8       1.0000 0.12760  0.53290  0.06601  Biso   1.000  O
  O9       1.0000 0.92640  0.05130  0.03036  Biso   1.000  O
  O10      1.0000 0.03190  0.89420  0.07327  Biso   1.000  O
  O11      1.0000 0.16210  0.60560  0.97195  Biso   1.000  O
  O12      1.0000 0.06400  0.40400  0.96338  Biso   1.000  O
  N4       1.0000 0.36099  0.15510  0.15100  Biso   1.000  N
  C19      1.0000 0.29008  0.06400  0.12638  Biso   1.000  C
  H13      1.0000 0.29450  0.95040  0.12620  Biso   1.000  H
  C20      1.0000 0.21262  0.13910  0.10198  Biso   1.000  C
  H14      1.0000 0.16410  0.07690  0.08510  Biso   1.000  H
  C21      1.0000 0.20607  0.30540  0.10219  Biso   1.000  C
  C22      1.0000 0.27699  0.39650  0.12681  Biso   1.000  C
  H15      1.0000 0.27250  0.51010  0.12700  Biso   1.000  H
  C23      1.0000 0.35445  0.32140  0.15122  Biso   1.000  C
  H16      1.0000 0.40290  0.38360  0.16800  Biso   1.000  H
  C24      1.0000 0.12180  0.38470  0.07113  Biso   1.000  C
  N5       1.0000 0.93242  0.24150  0.19438  Biso   1.000  N
  C25      1.0000 0.86770  0.25470  0.15359  Biso   1.000  C
  H17      1.0000 0.81500  0.31830  0.15300  Biso   1.000  H
  C26      1.0000 0.88012  0.17490  0.11361  Biso   1.000  C
  H18      1.0000 0.83590  0.18400  0.08570  Biso   1.000  H
  C27      1.0000 0.95727  0.08190  0.11441  Biso   1.000  C
  C28      1.0000 0.02199  0.06860  0.15521  Biso   1.000  C
  H19      1.0000 0.07470  0.00500  0.15580  Biso   1.000  H
  C29      1.0000 0.00957  0.14840  0.19519  Biso   1.000  C
  H20      1.0000 0.05380  0.13940  0.22310  Biso   1.000  H
  C30      1.0000 0.97290  0.00410  0.06900  Biso   1.000  C
  N6       1.0000 0.29021  0.24120  0.86430  Biso   1.000  N
  C31      1.0000 0.33025  0.36150  0.89425  Biso   1.000  C
  H21      1.0000 0.39170  0.39090  0.89500  Biso   1.000  H
  C32      1.0000 0.28042  0.43870  0.92311  Biso   1.000  C
  H22      1.0000 0.30780  0.52090  0.94360  Biso   1.000  H
  C33      1.0000 0.19055  0.39560  0.92202  Biso   1.000  C
  C34      1.0000 0.15050  0.27530  0.89208  Biso   1.000  C
  H23      1.0000 0.08910  0.24580  0.89130  Biso   1.000  H
  C35      1.0000 0.20034  0.19810  0.86322  Biso   1.000  C
  H24      1.0000 0.17300  0.11580  0.84280  Biso   1.000  H
  C36      1.0000 0.13490  0.47290  0.95506  Biso   1.000  C
  Tb3      1.0000 0.44131  0.22505  0.48542  Biso   1.000  Tb
  Cu9      1.0000 0.36120  0.82070  0.77972  Biso   1.000  Cu
  Cu10     1.0000 0.42150  0.11136  0.74827  Biso   1.000  Cu
  Cu11     1.0000 0.36324  0.10650  0.82605  Biso   1.000  Cu
  Cu12     1.0000 0.51796  0.94950  0.81779  Biso   1.000  Cu
  I9       1.0000 0.23887  0.05702  0.74436  Biso   1.000  I
  I10      1.0000 0.39966  0.82692  0.87323  Biso   1.000  I
  I11      1.0000 0.52239  0.26026  0.82597  Biso   1.000  I
  I12      1.0000 0.49460  0.82770  0.73130  Biso   1.000  I
  O13      1.0000 0.55470  0.20160  0.55292  Biso   1.000  O
  O14      1.0000 0.62760  0.96710  0.56601  Biso   1.000  O
  O15      1.0000 0.42640  0.44870  0.53036  Biso   1.000  O
  O16      1.0000 0.53190  0.60580  0.57327  Biso   1.000  O
  O17      1.0000 0.66210  0.89440  0.47195  Biso   1.000  O
  O18      1.0000 0.56400  0.09600  0.46338  Biso   1.000  O
  N7       1.0000 0.86099  0.34490  0.65100  Biso   1.000  N
  C37      1.0000 0.79008  0.43600  0.62638  Biso   1.000  C
  H25      1.0000 0.79450  0.54960  0.62620  Biso   1.000  H
  C38      1.0000 0.71262  0.36090  0.60198  Biso   1.000  C
  H26      1.0000 0.66410  0.42310  0.58510  Biso   1.000  H
  C39      1.0000 0.70607  0.19460  0.60219  Biso   1.000  C
  C40      1.0000 0.77699  0.10350  0.62681  Biso   1.000  C
  H27      1.0000 0.77250  0.98990  0.62700  Biso   1.000  H
  C41      1.0000 0.85445  0.17860  0.65122  Biso   1.000  C
  H28      1.0000 0.90290  0.11640  0.66800  Biso   1.000  H
  C42      1.0000 0.62180  0.11530  0.57113  Biso   1.000  C
  N8       1.0000 0.43242  0.25850  0.69438  Biso   1.000  N
  C43      1.0000 0.36770  0.24530  0.65359  Biso   1.000  C
  H29      1.0000 0.31500  0.18170  0.65300  Biso   1.000  H
  C44      1.0000 0.38012  0.32510  0.61361  Biso   1.000  C
  H30      1.0000 0.33590  0.31600  0.58570  Biso   1.000  H
  C45      1.0000 0.45727  0.41810  0.61441  Biso   1.000  C
  C46      1.0000 0.52199  0.43140  0.65521  Biso   1.000  C
  H31      1.0000 0.57470  0.49500  0.65580  Biso   1.000  H
  C47      1.0000 0.50957  0.35160  0.69519  Biso   1.000  C
  H32      1.0000 0.55380  0.36060  0.72310  Biso   1.000  H
  C48      1.0000 0.47290  0.49590  0.56900  Biso   1.000  C
  N9       1.0000 0.79021  0.25880  0.36430  Biso   1.000  N
  C49      1.0000 0.83025  0.13850  0.39425  Biso   1.000  C
  H33      1.0000 0.89170  0.10910  0.39500  Biso   1.000  H
  C50      1.0000 0.78042  0.06130  0.42311  Biso   1.000  C
  H34      1.0000 0.80780  0.97910  0.44360  Biso   1.000  H
  C51      1.0000 0.69055  0.10440  0.42202  Biso   1.000  C
  C52      1.0000 0.65050  0.22470  0.39208  Biso   1.000  C
  H35      1.0000 0.58910  0.25420  0.39130  Biso   1.000  H
  C53      1.0000 0.70034  0.30190  0.36322  Biso   1.000  C
  H36      1.0000 0.67300  0.38420  0.34280  Biso   1.000  H
  C54      1.0000 0.63490  0.02710  0.45506  Biso   1.000  C
  Tb4      1.0000 0.05869  0.72505  0.01458  Biso   1.000  Tb
  Cu13     1.0000 0.13880  0.32070  0.72028  Biso   1.000  Cu
  Cu14     1.0000 0.07850  0.61136  0.75173  Biso   1.000  Cu
  Cu15     1.0000 0.13676  0.60650  0.67395  Biso   1.000  Cu
  Cu16     1.0000 0.98204  0.44950  0.68221  Biso   1.000  Cu
  I13      1.0000 0.26113  0.55702  0.75564  Biso   1.000  I
  I14      1.0000 0.10034  0.32692  0.62677  Biso   1.000  I
  I15      1.0000 0.97761  0.76026  0.67403  Biso   1.000  I
  I16      1.0000 0.00540  0.32770  0.76870  Biso   1.000  I
  O19      1.0000 0.94530  0.70160  0.94708  Biso   1.000  O
  O20      1.0000 0.87240  0.46710  0.93399  Biso   1.000  O
  O21      1.0000 0.07360  0.94870  0.96964  Biso   1.000  O
  O22      1.0000 0.96810  0.10580  0.92673  Biso   1.000  O
  O23      1.0000 0.83790  0.39440  0.02805  Biso   1.000  O
  O24      1.0000 0.93600  0.59600  0.03662  Biso   1.000  O
  N10      1.0000 0.63901  0.84490  0.84900  Biso   1.000  N
  C55      1.0000 0.70992  0.93600  0.87362  Biso   1.000  C
  H37      1.0000 0.70550  0.04960  0.87380  Biso   1.000  H
  C56      1.0000 0.78738  0.86090  0.89802  Biso   1.000  C
  H38      1.0000 0.83590  0.92310  0.91490  Biso   1.000  H
  C57      1.0000 0.79393  0.69460  0.89781  Biso   1.000  C
  C58      1.0000 0.72301  0.60350  0.87319  Biso   1.000  C
  H39      1.0000 0.72750  0.48990  0.87300  Biso   1.000  H
  C59      1.0000 0.64555  0.67860  0.84878  Biso   1.000  C
  H40      1.0000 0.59710  0.61640  0.83200  Biso   1.000  H
  C60      1.0000 0.87820  0.61530  0.92887  Biso   1.000  C
  N11      1.0000 0.06758  0.75850  0.80562  Biso   1.000  N
  C61      1.0000 0.13230  0.74530  0.84641  Biso   1.000  C
  H41      1.0000 0.18500  0.68170  0.84700  Biso   1.000  H
  C62      1.0000 0.11988  0.82510  0.88639  Biso   1.000  C
  H42      1.0000 0.16410  0.81600  0.91430  Biso   1.000  H
  C63      1.0000 0.04273  0.91810  0.88559  Biso   1.000  C
  C64      1.0000 0.97801  0.93140  0.84479  Biso   1.000  C
  H43      1.0000 0.92530  0.99500  0.84420  Biso   1.000  H
  C65      1.0000 0.99043  0.85160  0.80481  Biso   1.000  C
  H44      1.0000 0.94620  0.86060  0.77690  Biso   1.000  H
  C66      1.0000 0.02710  0.99590  0.93100  Biso   1.000  C
  N12      1.0000 0.70979  0.75880  0.13570  Biso   1.000  N
  C67      1.0000 0.66975  0.63850  0.10575  Biso   1.000  C
  H45      1.0000 0.60830  0.60910  0.10500  Biso   1.000  H
  C68      1.0000 0.71958  0.56130  0.07689  Biso   1.000  C
  H46      1.0000 0.69220  0.47910  0.05640  Biso   1.000  H
  C69      1.0000 0.80945  0.60440  0.07798  Biso   1.000  C
  C70      1.0000 0.84950  0.72470  0.10792  Biso   1.000  C
  H47      1.0000 0.91090  0.75420  0.10870  Biso   1.000  H
  C71      1.0000 0.79966  0.80190  0.13678  Biso   1.000  C
  H48      1.0000 0.82700  0.88420  0.15720  Biso   1.000  H
  C72      1.0000 0.86510  0.52710  0.04494  Biso   1.000  C
