data_OBEPER_clean
_audit_creation_date              2014-07-02
_audit_creation_method            'Materials Studio'
_symmetry_space_group_name_H-M    'P1'
_symmetry_Int_Tables_number       1
_symmetry_cell_setting            triclinic
loop_
_symmetry_equiv_pos_as_xyz
  x,y,z
_cell_length_a                    9.6890
_cell_length_b                    11.2110
_cell_length_c                    12.8510
_cell_angle_alpha                 90.0000
_cell_angle_beta                  90.0000
_cell_angle_gamma                 111.7260
loop_
_atom_site_label
_atom_site_type_symbol
_atom_site_fract_x
_atom_site_fract_y
_atom_site_fract_z
_atom_site_U_iso_or_equiv
_atom_site_adp_type
_atom_site_occupancy
Tm1    Tm    0.14470   0.35770   0.34758   0.01267  Uiso   1.00
Tm2    Tm    0.35530   0.64230   0.84758   0.01267  Uiso   1.00
Tm3    Tm    0.85530   0.64230   0.65242   0.01267  Uiso   1.00
Tm4    Tm    0.64470   0.35770   0.15242   0.01267  Uiso   1.00
H1     H     0.84760   0.99900   0.42360   0.01267  Uiso   1.00
H2     H     0.51580   0.95070   0.68620   0.01267  Uiso   1.00
H3     H     0.56060   0.26210   0.51350   0.01267  Uiso   1.00
H4     H     0.65240   0.00100   0.92360   0.01267  Uiso   1.00
H5     H     0.98420   0.04930   0.18620   0.01267  Uiso   1.00
H6     H     0.93940   0.73790   0.01350   0.01267  Uiso   1.00
H7     H     0.15240   0.00100   0.57640   0.01267  Uiso   1.00
H8     H     0.48420   0.04930   0.31380   0.01267  Uiso   1.00
H9     H     0.43940   0.73790   0.48650   0.01267  Uiso   1.00
H10    H     0.34760   0.99900   0.07640   0.01267  Uiso   1.00
H11    H     0.01580   0.95070   0.81380   0.01267  Uiso   1.00
H12    H     0.06060   0.26210   0.98650   0.01267  Uiso   1.00
C1     C     0.34480   0.14400   0.53560   0.01267  Uiso   1.00
C2     C     0.25520   0.02880   0.58240   0.01267  Uiso   1.00
C3     C     0.31840   0.95550   0.63780   0.01267  Uiso   1.00
C4     C     0.47200   0.99790   0.64820   0.01267  Uiso   1.00
C5     C     0.55710   0.11060   0.60140   0.01267  Uiso   1.00
C6     C     0.49900   0.18610   0.54460   0.01267  Uiso   1.00
C7     C     0.27590   0.22210   0.47570   0.01267  Uiso   1.00
C8     C     0.22280   0.83120   0.68790   0.01267  Uiso   1.00
C9     C     0.94980   0.50560   0.45460   0.01267  Uiso   1.00
C10    C     0.15520   0.85600   0.03560   0.01267  Uiso   1.00
C11    C     0.24480   0.97120   0.08240   0.01267  Uiso   1.00
C12    C     0.18160   0.04450   0.13780   0.01267  Uiso   1.00
C13    C     0.02800   0.00210   0.14820   0.01267  Uiso   1.00
C14    C     0.94290   0.88940   0.10140   0.01267  Uiso   1.00
C15    C     0.00100   0.81390   0.04460   0.01267  Uiso   1.00
C16    C     0.22410   0.77790   0.97570   0.01267  Uiso   1.00
C17    C     0.27720   0.16880   0.18790   0.01267  Uiso   1.00
C18    C     0.55020   0.49440   0.95460   0.01267  Uiso   1.00
C19    C     0.65520   0.85600   0.46440   0.01267  Uiso   1.00
C20    C     0.74480   0.97120   0.41760   0.01267  Uiso   1.00
C21    C     0.68160   0.04450   0.36220   0.01267  Uiso   1.00
C22    C     0.52800   0.00210   0.35180   0.01267  Uiso   1.00
C23    C     0.44290   0.88940   0.39860   0.01267  Uiso   1.00
C24    C     0.50100   0.81390   0.45540   0.01267  Uiso   1.00
C25    C     0.72410   0.77790   0.52430   0.01267  Uiso   1.00
C26    C     0.77720   0.16880   0.31210   0.01267  Uiso   1.00
C27    C     0.05020   0.49440   0.54540   0.01267  Uiso   1.00
C28    C     0.84480   0.14400   0.96440   0.01267  Uiso   1.00
C29    C     0.75520   0.02880   0.91760   0.01267  Uiso   1.00
C30    C     0.81840   0.95550   0.86220   0.01267  Uiso   1.00
C31    C     0.97200   0.99790   0.85180   0.01267  Uiso   1.00
C32    C     0.05710   0.11060   0.89860   0.01267  Uiso   1.00
C33    C     0.99900   0.18610   0.95540   0.01267  Uiso   1.00
C34    C     0.77590   0.22210   0.02430   0.01267  Uiso   1.00
C35    C     0.72280   0.83120   0.81210   0.01267  Uiso   1.00
C36    C     0.44980   0.50560   0.04540   0.01267  Uiso   1.00
N1     N     0.72110   0.15580   0.61110   0.01267  Uiso   1.00
N2     N     0.77890   0.84420   0.11110   0.01267  Uiso   1.00
N3     N     0.27890   0.84420   0.38890   0.01267  Uiso   1.00
N4     N     0.22110   0.15580   0.88890   0.01267  Uiso   1.00
O1     O     0.36020   0.32820   0.43530   0.01267  Uiso   1.00
O2     O     0.13810   0.18520   0.46770   0.01267  Uiso   1.00
O3     O     0.91410   0.19950   0.31590   0.01267  Uiso   1.00
O4     O     0.28740   0.76670   0.73140   0.01267  Uiso   1.00
O5     O     0.77240   0.09020   0.66200   0.01267  Uiso   1.00
O6     O     0.79540   0.25300   0.56690   0.01267  Uiso   1.00
O7     O     0.85400   0.55170   0.47620   0.01267  Uiso   1.00
O8     O     0.97430   0.46830   0.36810   0.01267  Uiso   1.00
O9     O     0.13980   0.67180   0.93530   0.01267  Uiso   1.00
O10    O     0.36190   0.81480   0.96770   0.01267  Uiso   1.00
O11    O     0.58590   0.80050   0.81590   0.01267  Uiso   1.00
O12    O     0.21260   0.23330   0.23140   0.01267  Uiso   1.00
O13    O     0.72760   0.90980   0.16200   0.01267  Uiso   1.00
O14    O     0.70460   0.74700   0.06690   0.01267  Uiso   1.00
O15    O     0.64600   0.44830   0.97620   0.01267  Uiso   1.00
O16    O     0.52570   0.53170   0.86810   0.01267  Uiso   1.00
O17    O     0.63980   0.67180   0.56470   0.01267  Uiso   1.00
O18    O     0.86190   0.81480   0.53230   0.01267  Uiso   1.00
O19    O     0.08590   0.80050   0.68410   0.01267  Uiso   1.00
O20    O     0.71260   0.23330   0.26860   0.01267  Uiso   1.00
O21    O     0.22760   0.90980   0.33800   0.01267  Uiso   1.00
O22    O     0.20460   0.74700   0.43310   0.01267  Uiso   1.00
O23    O     0.14600   0.44830   0.52380   0.01267  Uiso   1.00
O24    O     0.02570   0.53170   0.63190   0.01267  Uiso   1.00
O25    O     0.86020   0.32820   0.06470   0.01267  Uiso   1.00
O26    O     0.63810   0.18520   0.03230   0.01267  Uiso   1.00
O27    O     0.41410   0.19950   0.18410   0.01267  Uiso   1.00
O28    O     0.78740   0.76670   0.76860   0.01267  Uiso   1.00
O29    O     0.27240   0.09020   0.83800   0.01267  Uiso   1.00
O30    O     0.29540   0.25300   0.93310   0.01267  Uiso   1.00
O31    O     0.35400   0.55170   0.02380   0.01267  Uiso   1.00
O32    O     0.47430   0.46830   0.13190   0.01267  Uiso   1.00
