data_image0
_cell_length_a       16.746
_cell_length_b       34.094
_cell_length_c       19.114
_cell_angle_alpha    90
_cell_angle_beta     104.321
_cell_angle_gamma    90

_symmetry_space_group_name_H-M    "P 1"
_symmetry_int_tables_number       1

loop_
  _symmetry_equiv_pos_as_xyz
  'x, y, z'

loop_
  _atom_site_label
  _atom_site_occupancy
  _atom_site_fract_x
  _atom_site_fract_y
  _atom_site_fract_z
  _atom_site_thermal_displace_type
  _atom_site_B_iso_or_equiv
  _atom_site_type_symbol
  Mg1      1.0000 0.51070  0.83232  0.53172  Biso   1.000  Mg
  Mg2      1.0000 0.29403  0.82238  0.48228  Biso   1.000  Mg
  Mg3      1.0000 0.00449  0.87504  0.49347  Biso   1.000  Mg
  Mg4      1.0000 0.20476  0.34618  0.03863  Biso   1.000  Mg
  O1       1.0000 0.39749  0.97587  0.17212  Biso   1.000  O
  O2       1.0000 0.45717  0.86622  0.44583  Biso   1.000  O
  O3       1.0000 0.32171  0.85838  0.40636  Biso   1.000  O
  O4       1.0000 0.35688  0.96617  0.84183  Biso   1.000  O
  O5       1.0000 0.32177  0.85958  0.56548  Biso   1.000  O
  O6       1.0000 0.45896  0.86150  0.60329  Biso   1.000  O
  O7       1.0000 0.46154  0.11985  0.04791  Biso   1.000  O
  O8       1.0000 0.58687  0.29197  0.99159  Biso   1.000  O
  O9       1.0000 0.69040  0.26994  0.07617  Biso   1.000  O
  O10      1.0000 0.85385  0.97720  0.83368  Biso   1.000  O
  O11      1.0000 0.95634  0.88950  0.57793  Biso   1.000  O
  O12      1.0000 0.82275  0.87251  0.55672  Biso   1.000  O
  O13      1.0000 0.96360  0.13467  0.00280  Biso   1.000  O
  O14      1.0000 0.14700  0.29703  0.03680  Biso   1.000  O
  O15      1.0000 0.01890  0.31718  0.99564  Biso   1.000  O
  O16      1.0000 0.88527  0.99485  0.16216  Biso   1.000  O
  O17      1.0000 0.75777  0.88571  0.38077  Biso   1.000  O
  O18      1.0000 0.88845  0.88153  0.42489  Biso   1.000  O
  O19      1.0000 0.68740  0.82777  0.46955  Biso   1.000  O
  O20      1.0000 0.56709  0.80005  0.46649  Biso   1.000  O
  O21      1.0000 0.05011  0.86140  0.40476  Biso   1.000  O
  O22      1.0000 0.17636  0.84088  0.45246  Biso   1.000  O
  C1       1.0000 0.35050  0.00665  0.05820  Biso   1.000  C
  C2       1.0000 0.37470  0.98463  0.00430  Biso   1.000  C
  C3       1.0000 0.39860  0.00440  0.94878  Biso   1.000  C
  C4       1.0000 0.39640  0.04497  0.94490  Biso   1.000  C
  C5       1.0000 0.37500  0.06678  0.00030  Biso   1.000  C
  C6       1.0000 0.35410  0.04757  0.05740  Biso   1.000  C
  C7       1.0000 0.37520  0.94052  0.00610  Biso   1.000  C
  H1       1.0000 0.35690  0.93140  0.04820  Biso   1.000  H
  H2       1.0000 0.33790  0.93040  0.96190  Biso   1.000  H
  H3       1.0000 0.43120  0.93100  0.00920  Biso   1.000  H
  C8       1.0000 0.41440  0.06660  0.87970  Biso   1.000  C
  H4       1.0000 0.41010  0.09500  0.88630  Biso   1.000  H
  H5       1.0000 0.47020  0.06010  0.87590  Biso   1.000  H
  H6       1.0000 0.37430  0.05850  0.83550  Biso   1.000  H
  C9       1.0000 0.33530  0.07064  0.11890  Biso   1.000  C
  H7       1.0000 0.32190  0.05250  0.15420  Biso   1.000  H
  H8       1.0000 0.38360  0.08630  0.14230  Biso   1.000  H
  H9       1.0000 0.28840  0.08810  0.10020  Biso   1.000  H
  C10      1.0000 0.32440  0.98499  0.11800  Biso   1.000  C
  H10      1.0000 0.28740  0.00160  0.13850  Biso   1.000  H
  H11      1.0000 0.29460  0.96060  0.09900  Biso   1.000  H
  C11      1.0000 0.39050  0.95137  0.22690  Biso   1.000  C
  C12      1.0000 0.46250  0.94002  0.27420  Biso   1.000  C
  H12      1.0000 0.51340  0.94990  0.26800  Biso   1.000  H
  C13      1.0000 0.46290  0.91473  0.33040  Biso   1.000  C
  H13      1.0000 0.51370  0.90690  0.36170  Biso   1.000  H
  C14      1.0000 0.38910  0.90061  0.34140  Biso   1.000  C
  C15      1.0000 0.31620  0.91259  0.29430  Biso   1.000  C
  H14      1.0000 0.26530  0.90320  0.30110  Biso   1.000  H
  C16      1.0000 0.31560  0.93770  0.23790  Biso   1.000  C
  H15      1.0000 0.26490  0.94570  0.20670  Biso   1.000  H
  C17      1.0000 0.38900  0.87289  0.40210  Biso   1.000  C
  C18      1.0000 0.42880  0.98111  0.89390  Biso   1.000  C
  H16      1.0000 0.46180  0.99800  0.86950  Biso   1.000  H
  H17      1.0000 0.46390  0.95910  0.91760  Biso   1.000  H
  C19      1.0000 0.36920  0.94323  0.78750  Biso   1.000  C
  C20      1.0000 0.44580  0.93536  0.77440  Biso   1.000  C
  H18      1.0000 0.49430  0.94650  0.80430  Biso   1.000  H
  C21      1.0000 0.45080  0.91095  0.71700  Biso   1.000  C
  H19      1.0000 0.50340  0.90510  0.70920  Biso   1.000  H
  C22      1.0000 0.38210  0.89517  0.67180  Biso   1.000  C
  C23      1.0000 0.30620  0.90397  0.68490  Biso   1.000  C
  H20      1.0000 0.25760  0.89360  0.65370  Biso   1.000  H
  C24      1.0000 0.29930  0.92726  0.74190  Biso   1.000  C
  H21      1.0000 0.24660  0.93240  0.75010  Biso   1.000  H
  C25      1.0000 0.38840  0.87017  0.60900  Biso   1.000  C
  C26      1.0000 0.38210  0.11056  0.00100  Biso   1.000  C
  H22      1.0000 0.37830  0.12060  0.95170  Biso   1.000  H
  H23      1.0000 0.33750  0.12250  0.01950  Biso   1.000  H
  C27      1.0000 0.49390  0.15655  0.04260  Biso   1.000  C
  C28      1.0000 0.45860  0.18510  0.99310  Biso   1.000  C
  H24      1.0000 0.40690  0.18040  0.96010  Biso   1.000  H
  C29      1.0000 0.49850  0.22028  0.99190  Biso   1.000  C
  H25      1.0000 0.47450  0.23950  0.95700  Biso   1.000  H
  C30      1.0000 0.57290  0.22824  0.04030  Biso   1.000  C
  C31      1.0000 0.60700  0.19983  0.09120  Biso   1.000  C
  H26      1.0000 0.65760  0.20490  0.12550  Biso   1.000  H
  C32      1.0000 0.56790  0.16426  0.09220  Biso   1.000  C
  H27      1.0000 0.59190  0.14500  0.12700  Biso   1.000  H
  C33      1.0000 0.61890  0.26552  0.03650  Biso   1.000  C
  C34      1.0000 0.89720  0.01669  0.93740  Biso   1.000  C
  C35      1.0000 0.87290  0.99918  0.99540  Biso   1.000  C
  C36      1.0000 0.84820  0.02443  0.04510  Biso   1.000  C
  C37      1.0000 0.85450  0.06509  0.04020  Biso   1.000  C
  C38      1.0000 0.87510  0.08052  0.97990  Biso   1.000  C
  C39      1.0000 0.89620  0.05752  0.92770  Biso   1.000  C
  C40      1.0000 0.87220  0.95519  0.00490  Biso   1.000  C
  H28      1.0000 0.85340  0.94890  0.04830  Biso   1.000  H
  H29      1.0000 0.83470  0.94330  0.96260  Biso   1.000  H
  H30      1.0000 0.92790  0.94490  0.01000  Biso   1.000  H
  C41      1.0000 0.84170  0.09084  0.10180  Biso   1.000  C
  H31      1.0000 0.82760  0.07430  0.13900  Biso   1.000  H
  H32      1.0000 0.89250  0.10530  0.12280  Biso   1.000  H
  H33      1.0000 0.79680  0.10940  0.08320  Biso   1.000  H
  C42      1.0000 0.91570  0.07530  0.86230  Biso   1.000  C
  H34      1.0000 0.92920  0.05440  0.83190  Biso   1.000  H
  H35      1.0000 0.86780  0.09000  0.83500  Biso   1.000  H
  H36      1.0000 0.96290  0.09300  0.87730  Biso   1.000  H
  C43      1.0000 0.92630  0.99060  0.88630  Biso   1.000  C
  H37      1.0000 0.96310  0.00520  0.86220  Biso   1.000  H
  H38      1.0000 0.95710  0.96800  0.91240  Biso   1.000  H
  C44      1.0000 0.86690  0.95452  0.77800  Biso   1.000  C
  C45      1.0000 0.79590  0.94167  0.72830  Biso   1.000  C
  H39      1.0000 0.74300  0.94810  0.73480  Biso   1.000  H
  C46      1.0000 0.80290  0.91995  0.67040  Biso   1.000  C
  H40      1.0000 0.75440  0.91030  0.63800  Biso   1.000  H
  C47      1.0000 0.87920  0.91157  0.65760  Biso   1.000  C
  C48      1.0000 0.94870  0.92453  0.70810  Biso   1.000  C
  H41      1.0000 0.00160  0.91830  0.70120  Biso   1.000  H
  C49      1.0000 0.94350  0.94597  0.76740  Biso   1.000  C
  H42      1.0000 0.99200  0.95480  0.80080  Biso   1.000  H
  C50      1.0000 0.88670  0.88957  0.59280  Biso   1.000  C
  C51      1.0000 0.81560  0.00611  0.10390  Biso   1.000  C
  H43      1.0000 0.78040  0.02510  0.12170  Biso   1.000  H
  H44      1.0000 0.78200  0.98280  0.08510  Biso   1.000  H
  C52      1.0000 0.86830  0.97152  0.21510  Biso   1.000  C
  C53      1.0000 0.78960  0.96635  0.22480  Biso   1.000  C
  H45      1.0000 0.74400  0.97940  0.19420  Biso   1.000  H
  C54      1.0000 0.77810  0.94241  0.27870  Biso   1.000  C
  H46      1.0000 0.72420  0.93920  0.28550  Biso   1.000  H
  C55      1.0000 0.84380  0.92266  0.32380  Biso   1.000  C
  C56      1.0000 0.92250  0.93010  0.31490  Biso   1.000  C
  H47      1.0000 0.96900  0.91850  0.34720  Biso   1.000  H
  C57      1.0000 0.93400  0.95373  0.26080  Biso   1.000  C
  H48      1.0000 0.98800  0.95790  0.25480  Biso   1.000  H
  C58      1.0000 0.82920  0.89626  0.37960  Biso   1.000  C
  C59      1.0000 0.87880  0.12502  0.97400  Biso   1.000  C
  H49      1.0000 0.86000  0.13350  0.92300  Biso   1.000  H
  H50      1.0000 0.84380  0.13770  0.00230  Biso   1.000  H
  C60      1.0000 0.98440  0.17360  0.00560  Biso   1.000  C
  C61      1.0000 0.06730  0.18180  0.03590  Biso   1.000  C
  H51      1.0000 0.10420  0.16120  0.05550  Biso   1.000  H
  C62      1.0000 0.09540  0.21950  0.03730  Biso   1.000  C
  H52      1.0000 0.15260  0.22480  0.05460  Biso   1.000  H
  C63      1.0000 0.04090  0.25024  0.01360  Biso   1.000  C
  C64      1.0000 0.95840  0.24245  0.98860  Biso   1.000  C
  H53      1.0000 0.92090  0.26350  0.97340  Biso   1.000  H
  C65      1.0000 0.92840  0.20373  0.98510  Biso   1.000  C
  H54      1.0000 0.87100  0.19850  0.96910  Biso   1.000  H
  C66      1.0000 0.07120  0.29138  0.01540  Biso   1.000  C
  C67      1.0000 0.63390  0.80102  0.45060  Biso   1.000  C
  C68      1.0000 0.65610  0.76660  0.40950  Biso   1.000  C
  H55      1.0000 0.71040  0.77100  0.40020  Biso   1.000  H
  H56      1.0000 0.65750  0.74260  0.43800  Biso   1.000  H
  H57      1.0000 0.61480  0.76380  0.36340  Biso   1.000  H
  C69      1.0000 0.11720  0.84707  0.39920  Biso   1.000  C
  C70      1.0000 0.12710  0.83920  0.32520  Biso   1.000  C
  H58      1.0000 0.07570  0.84540  0.28960  Biso   1.000  H
  H59      1.0000 0.17180  0.85540  0.31620  Biso   1.000  H
  H60      1.0000 0.14040  0.81140  0.32100  Biso   1.000  H
  Mg5      1.0000 0.48930  0.33232  0.96828  Biso   1.000  Mg
  Mg6      1.0000 0.70597  0.32238  0.01772  Biso   1.000  Mg
  Mg7      1.0000 0.99551  0.37504  0.00653  Biso   1.000  Mg
  Mg8      1.0000 0.79524  0.84618  0.46137  Biso   1.000  Mg
  O23      1.0000 0.60251  0.47587  0.32788  Biso   1.000  O
  O24      1.0000 0.54283  0.36622  0.05417  Biso   1.000  O
  O25      1.0000 0.67829  0.35838  0.09364  Biso   1.000  O
  O26      1.0000 0.64312  0.46617  0.65817  Biso   1.000  O
  O27      1.0000 0.67823  0.35958  0.93452  Biso   1.000  O
  O28      1.0000 0.54104  0.36150  0.89671  Biso   1.000  O
  O29      1.0000 0.53846  0.61985  0.45209  Biso   1.000  O
  O30      1.0000 0.41313  0.79197  0.50841  Biso   1.000  O
  O31      1.0000 0.30960  0.76994  0.42383  Biso   1.000  O
  O32      1.0000 0.14615  0.47720  0.66632  Biso   1.000  O
  O33      1.0000 0.04366  0.38950  0.92207  Biso   1.000  O
  O34      1.0000 0.17725  0.37251  0.94328  Biso   1.000  O
  O35      1.0000 0.03640  0.63467  0.49720  Biso   1.000  O
  O36      1.0000 0.85300  0.79703  0.46320  Biso   1.000  O
  O37      1.0000 0.98110  0.81718  0.50436  Biso   1.000  O
  O38      1.0000 0.11473  0.49485  0.33784  Biso   1.000  O
  O39      1.0000 0.24223  0.38571  0.11923  Biso   1.000  O
  O40      1.0000 0.11155  0.38153  0.07511  Biso   1.000  O
  O41      1.0000 0.31260  0.32777  0.03045  Biso   1.000  O
  O42      1.0000 0.43291  0.30005  0.03351  Biso   1.000  O
  O43      1.0000 0.94989  0.36140  0.09524  Biso   1.000  O
  O44      1.0000 0.82364  0.34088  0.04754  Biso   1.000  O
  C71      1.0000 0.64950  0.50665  0.44180  Biso   1.000  C
  C72      1.0000 0.62530  0.48463  0.49570  Biso   1.000  C
  C73      1.0000 0.60140  0.50440  0.55122  Biso   1.000  C
  C74      1.0000 0.60360  0.54497  0.55510  Biso   1.000  C
  C75      1.0000 0.62500  0.56678  0.49970  Biso   1.000  C
  C76      1.0000 0.64590  0.54757  0.44260  Biso   1.000  C
  C77      1.0000 0.62480  0.44052  0.49390  Biso   1.000  C
  H61      1.0000 0.64310  0.43140  0.45180  Biso   1.000  H
  H62      1.0000 0.66210  0.43040  0.53810  Biso   1.000  H
  H63      1.0000 0.56880  0.43100  0.49080  Biso   1.000  H
  C78      1.0000 0.58560  0.56660  0.62030  Biso   1.000  C
  H64      1.0000 0.58990  0.59500  0.61370  Biso   1.000  H
  H65      1.0000 0.52980  0.56010  0.62410  Biso   1.000  H
  H66      1.0000 0.62570  0.55850  0.66450  Biso   1.000  H
  C79      1.0000 0.66470  0.57064  0.38110  Biso   1.000  C
  H67      1.0000 0.67810  0.55250  0.34580  Biso   1.000  H
  H68      1.0000 0.61640  0.58630  0.35770  Biso   1.000  H
  H69      1.0000 0.71160  0.58810  0.39980  Biso   1.000  H
  C80      1.0000 0.67560  0.48499  0.38200  Biso   1.000  C
  H70      1.0000 0.71260  0.50160  0.36150  Biso   1.000  H
  H71      1.0000 0.70540  0.46060  0.40100  Biso   1.000  H
  C81      1.0000 0.60950  0.45137  0.27310  Biso   1.000  C
  C82      1.0000 0.53750  0.44002  0.22580  Biso   1.000  C
  H72      1.0000 0.48660  0.44990  0.23200  Biso   1.000  H
  C83      1.0000 0.53710  0.41473  0.16960  Biso   1.000  C
  H73      1.0000 0.48630  0.40690  0.13830  Biso   1.000  H
  C84      1.0000 0.61090  0.40061  0.15860  Biso   1.000  C
  C85      1.0000 0.68380  0.41259  0.20570  Biso   1.000  C
  H74      1.0000 0.73470  0.40320  0.19890  Biso   1.000  H
  C86      1.0000 0.68440  0.43770  0.26210  Biso   1.000  C
  H75      1.0000 0.73510  0.44570  0.29330  Biso   1.000  H
  C87      1.0000 0.61100  0.37289  0.09790  Biso   1.000  C
  C88      1.0000 0.57120  0.48111  0.60610  Biso   1.000  C
  H76      1.0000 0.53820  0.49800  0.63050  Biso   1.000  H
  H77      1.0000 0.53610  0.45910  0.58240  Biso   1.000  H
  C89      1.0000 0.63080  0.44323  0.71250  Biso   1.000  C
  C90      1.0000 0.55420  0.43536  0.72560  Biso   1.000  C
  H78      1.0000 0.50570  0.44650  0.69570  Biso   1.000  H
  C91      1.0000 0.54920  0.41095  0.78300  Biso   1.000  C
  H79      1.0000 0.49660  0.40510  0.79080  Biso   1.000  H
  C92      1.0000 0.61790  0.39517  0.82820  Biso   1.000  C
  C93      1.0000 0.69380  0.40397  0.81510  Biso   1.000  C
  H80      1.0000 0.74240  0.39360  0.84630  Biso   1.000  H
  C94      1.0000 0.70070  0.42726  0.75810  Biso   1.000  C
  H81      1.0000 0.75340  0.43240  0.74990  Biso   1.000  H
  C95      1.0000 0.61160  0.37017  0.89100  Biso   1.000  C
  C96      1.0000 0.61790  0.61056  0.49900  Biso   1.000  C
  H82      1.0000 0.62170  0.62060  0.54830  Biso   1.000  H
  H83      1.0000 0.66250  0.62250  0.48050  Biso   1.000  H
  C97      1.0000 0.50610  0.65655  0.45740  Biso   1.000  C
  C98      1.0000 0.54140  0.68510  0.50690  Biso   1.000  C
  H84      1.0000 0.59310  0.68040  0.53990  Biso   1.000  H
  C99      1.0000 0.50150  0.72028  0.50810  Biso   1.000  C
  H85      1.0000 0.52550  0.73950  0.54300  Biso   1.000  H
  C100     1.0000 0.42710  0.72824  0.45970  Biso   1.000  C
  C101     1.0000 0.39300  0.69983  0.40880  Biso   1.000  C
  H86      1.0000 0.34240  0.70490  0.37450  Biso   1.000  H
  C102     1.0000 0.43210  0.66426  0.40780  Biso   1.000  C
  H87      1.0000 0.40810  0.64500  0.37300  Biso   1.000  H
  C103     1.0000 0.38110  0.76552  0.46350  Biso   1.000  C
  C104     1.0000 0.10280  0.51669  0.56260  Biso   1.000  C
  C105     1.0000 0.12710  0.49918  0.50460  Biso   1.000  C
  C106     1.0000 0.15180  0.52443  0.45490  Biso   1.000  C
  C107     1.0000 0.14550  0.56509  0.45980  Biso   1.000  C
  C108     1.0000 0.12490  0.58052  0.52010  Biso   1.000  C
  C109     1.0000 0.10380  0.55752  0.57230  Biso   1.000  C
  C110     1.0000 0.12780  0.45519  0.49510  Biso   1.000  C
  H88      1.0000 0.14660  0.44890  0.45170  Biso   1.000  H
  H89      1.0000 0.16530  0.44330  0.53740  Biso   1.000  H
  H90      1.0000 0.07210  0.44490  0.49000  Biso   1.000  H
  C111     1.0000 0.15830  0.59084  0.39820  Biso   1.000  C
  H91      1.0000 0.17240  0.57430  0.36100  Biso   1.000  H
  H92      1.0000 0.10750  0.60530  0.37720  Biso   1.000  H
  H93      1.0000 0.20320  0.60940  0.41680  Biso   1.000  H
  C112     1.0000 0.08430  0.57530  0.63770  Biso   1.000  C
  H94      1.0000 0.07080  0.55440  0.66810  Biso   1.000  H
  H95      1.0000 0.13220  0.59000  0.66500  Biso   1.000  H
  H96      1.0000 0.03710  0.59300  0.62270  Biso   1.000  H
  C113     1.0000 0.07370  0.49060  0.61370  Biso   1.000  C
  H97      1.0000 0.03690  0.50520  0.63780  Biso   1.000  H
  H98      1.0000 0.04290  0.46800  0.58760  Biso   1.000  H
  C114     1.0000 0.13310  0.45452  0.72200  Biso   1.000  C
  C115     1.0000 0.20410  0.44167  0.77170  Biso   1.000  C
  H99      1.0000 0.25700  0.44810  0.76520  Biso   1.000  H
  C116     1.0000 0.19710  0.41995  0.82960  Biso   1.000  C
  H100     1.0000 0.24560  0.41030  0.86200  Biso   1.000  H
  C117     1.0000 0.12080  0.41157  0.84240  Biso   1.000  C
  C118     1.0000 0.05130  0.42453  0.79190  Biso   1.000  C
  H101     1.0000 0.99840  0.41830  0.79880  Biso   1.000  H
  C119     1.0000 0.05650  0.44597  0.73260  Biso   1.000  C
  H102     1.0000 0.00800  0.45480  0.69920  Biso   1.000  H
  C120     1.0000 0.11330  0.38957  0.90720  Biso   1.000  C
  C121     1.0000 0.18440  0.50611  0.39610  Biso   1.000  C
  H103     1.0000 0.21960  0.52510  0.37830  Biso   1.000  H
  H104     1.0000 0.21800  0.48280  0.41490  Biso   1.000  H
  C122     1.0000 0.13170  0.47152  0.28490  Biso   1.000  C
  C123     1.0000 0.21040  0.46635  0.27520  Biso   1.000  C
  H105     1.0000 0.25600  0.47940  0.30580  Biso   1.000  H
  C124     1.0000 0.22190  0.44241  0.22130  Biso   1.000  C
  H106     1.0000 0.27580  0.43920  0.21450  Biso   1.000  H
  C125     1.0000 0.15620  0.42266  0.17620  Biso   1.000  C
  C126     1.0000 0.07750  0.43010  0.18510  Biso   1.000  C
  H107     1.0000 0.03100  0.41850  0.15280  Biso   1.000  H
  C127     1.0000 0.06600  0.45373  0.23920  Biso   1.000  C
  H108     1.0000 0.01200  0.45790  0.24520  Biso   1.000  H
  C128     1.0000 0.17080  0.39626  0.12040  Biso   1.000  C
  C129     1.0000 0.12120  0.62502  0.52600  Biso   1.000  C
  H109     1.0000 0.14000  0.63350  0.57700  Biso   1.000  H
  H110     1.0000 0.15620  0.63770  0.49770  Biso   1.000  H
  C130     1.0000 0.01560  0.67360  0.49440  Biso   1.000  C
  C131     1.0000 0.93270  0.68180  0.46410  Biso   1.000  C
  H111     1.0000 0.89580  0.66120  0.44450  Biso   1.000  H
  C132     1.0000 0.90460  0.71950  0.46270  Biso   1.000  C
  H112     1.0000 0.84740  0.72480  0.44540  Biso   1.000  H
  C133     1.0000 0.95910  0.75024  0.48640  Biso   1.000  C
  C134     1.0000 0.04160  0.74245  0.51140  Biso   1.000  C
  H113     1.0000 0.07910  0.76350  0.52660  Biso   1.000  H
  C135     1.0000 0.07160  0.70373  0.51490  Biso   1.000  C
  H114     1.0000 0.12900  0.69850  0.53090  Biso   1.000  H
  C136     1.0000 0.92880  0.79138  0.48460  Biso   1.000  C
  C137     1.0000 0.36610  0.30102  0.04940  Biso   1.000  C
  C138     1.0000 0.34390  0.26660  0.09050  Biso   1.000  C
  H115     1.0000 0.28960  0.27100  0.09980  Biso   1.000  H
  H116     1.0000 0.34250  0.24260  0.06200  Biso   1.000  H
  H117     1.0000 0.38520  0.26380  0.13660  Biso   1.000  H
  C139     1.0000 0.88280  0.34707  0.10080  Biso   1.000  C
  C140     1.0000 0.87290  0.33920  0.17480  Biso   1.000  C
  H118     1.0000 0.92430  0.34540  0.21040  Biso   1.000  H
  H119     1.0000 0.82820  0.35540  0.18380  Biso   1.000  H
  H120     1.0000 0.85960  0.31140  0.17900  Biso   1.000  H
  Mg9      1.0000 0.48930  0.16768  0.46828  Biso   1.000  Mg
  Mg10     1.0000 0.70597  0.17762  0.51772  Biso   1.000  Mg
  Mg11     1.0000 0.99551  0.12496  0.50653  Biso   1.000  Mg
  Mg12     1.0000 0.79524  0.65382  0.96137  Biso   1.000  Mg
  O45      1.0000 0.60251  0.02413  0.82788  Biso   1.000  O
  O46      1.0000 0.54283  0.13378  0.55417  Biso   1.000  O
  O47      1.0000 0.67829  0.14162  0.59364  Biso   1.000  O
  O48      1.0000 0.64312  0.03383  0.15817  Biso   1.000  O
  O49      1.0000 0.67823  0.14042  0.43452  Biso   1.000  O
  O50      1.0000 0.54104  0.13850  0.39671  Biso   1.000  O
  O51      1.0000 0.53846  0.88015  0.95209  Biso   1.000  O
  O52      1.0000 0.41313  0.70803  0.00841  Biso   1.000  O
  O53      1.0000 0.30960  0.73006  0.92383  Biso   1.000  O
  O54      1.0000 0.14615  0.02280  0.16632  Biso   1.000  O
  O55      1.0000 0.04366  0.11050  0.42207  Biso   1.000  O
  O56      1.0000 0.17725  0.12749  0.44328  Biso   1.000  O
  O57      1.0000 0.03640  0.86533  0.99720  Biso   1.000  O
  O58      1.0000 0.85300  0.70297  0.96320  Biso   1.000  O
  O59      1.0000 0.98110  0.68282  0.00436  Biso   1.000  O
  O60      1.0000 0.11473  0.00515  0.83784  Biso   1.000  O
  O61      1.0000 0.24223  0.11429  0.61923  Biso   1.000  O
  O62      1.0000 0.11155  0.11847  0.57511  Biso   1.000  O
  O63      1.0000 0.31260  0.17223  0.53045  Biso   1.000  O
  O64      1.0000 0.43291  0.19995  0.53351  Biso   1.000  O
  O65      1.0000 0.94989  0.13860  0.59524  Biso   1.000  O
  O66      1.0000 0.82364  0.15912  0.54754  Biso   1.000  O
  C141     1.0000 0.64950  0.99335  0.94180  Biso   1.000  C
  C142     1.0000 0.62530  0.01537  0.99570  Biso   1.000  C
  C143     1.0000 0.60140  0.99560  0.05122  Biso   1.000  C
  C144     1.0000 0.60360  0.95503  0.05510  Biso   1.000  C
  C145     1.0000 0.62500  0.93322  0.99970  Biso   1.000  C
  C146     1.0000 0.64590  0.95243  0.94260  Biso   1.000  C
  C147     1.0000 0.62480  0.05948  0.99390  Biso   1.000  C
  H121     1.0000 0.64310  0.06860  0.95180  Biso   1.000  H
  H122     1.0000 0.66210  0.06960  0.03810  Biso   1.000  H
  H123     1.0000 0.56880  0.06900  0.99080  Biso   1.000  H
  C148     1.0000 0.58560  0.93340  0.12030  Biso   1.000  C
  H124     1.0000 0.58990  0.90500  0.11370  Biso   1.000  H
  H125     1.0000 0.52980  0.93990  0.12410  Biso   1.000  H
  H126     1.0000 0.62570  0.94150  0.16450  Biso   1.000  H
  C149     1.0000 0.66470  0.92936  0.88110  Biso   1.000  C
  H127     1.0000 0.67810  0.94750  0.84580  Biso   1.000  H
  H128     1.0000 0.61640  0.91370  0.85770  Biso   1.000  H
  H129     1.0000 0.71160  0.91190  0.89980  Biso   1.000  H
  C150     1.0000 0.67560  0.01501  0.88200  Biso   1.000  C
  H130     1.0000 0.71260  0.99840  0.86150  Biso   1.000  H
  H131     1.0000 0.70540  0.03940  0.90100  Biso   1.000  H
  C151     1.0000 0.60950  0.04863  0.77310  Biso   1.000  C
  C152     1.0000 0.53750  0.05998  0.72580  Biso   1.000  C
  H132     1.0000 0.48660  0.05010  0.73200  Biso   1.000  H
  C153     1.0000 0.53710  0.08527  0.66960  Biso   1.000  C
  H133     1.0000 0.48630  0.09310  0.63830  Biso   1.000  H
  C154     1.0000 0.61090  0.09939  0.65860  Biso   1.000  C
  C155     1.0000 0.68380  0.08741  0.70570  Biso   1.000  C
  H134     1.0000 0.73470  0.09680  0.69890  Biso   1.000  H
  C156     1.0000 0.68440  0.06230  0.76210  Biso   1.000  C
  H135     1.0000 0.73510  0.05430  0.79330  Biso   1.000  H
  C157     1.0000 0.61100  0.12711  0.59790  Biso   1.000  C
  C158     1.0000 0.57120  0.01889  0.10610  Biso   1.000  C
  H136     1.0000 0.53820  0.00200  0.13050  Biso   1.000  H
  H137     1.0000 0.53610  0.04090  0.08240  Biso   1.000  H
  C159     1.0000 0.63080  0.05677  0.21250  Biso   1.000  C
  C160     1.0000 0.55420  0.06464  0.22560  Biso   1.000  C
  H138     1.0000 0.50570  0.05350  0.19570  Biso   1.000  H
  C161     1.0000 0.54920  0.08905  0.28300  Biso   1.000  C
  H139     1.0000 0.49660  0.09490  0.29080  Biso   1.000  H
  C162     1.0000 0.61790  0.10483  0.32820  Biso   1.000  C
  C163     1.0000 0.69380  0.09603  0.31510  Biso   1.000  C
  H140     1.0000 0.74240  0.10640  0.34630  Biso   1.000  H
  C164     1.0000 0.70070  0.07274  0.25810  Biso   1.000  C
  H141     1.0000 0.75340  0.06760  0.24990  Biso   1.000  H
  C165     1.0000 0.61160  0.12983  0.39100  Biso   1.000  C
  C166     1.0000 0.61790  0.88944  0.99900  Biso   1.000  C
  H142     1.0000 0.62170  0.87940  0.04830  Biso   1.000  H
  H143     1.0000 0.66250  0.87750  0.98050  Biso   1.000  H
  C167     1.0000 0.50610  0.84345  0.95740  Biso   1.000  C
  C168     1.0000 0.54140  0.81490  0.00690  Biso   1.000  C
  H144     1.0000 0.59310  0.81960  0.03990  Biso   1.000  H
  C169     1.0000 0.50150  0.77972  0.00810  Biso   1.000  C
  H145     1.0000 0.52550  0.76050  0.04300  Biso   1.000  H
  C170     1.0000 0.42710  0.77176  0.95970  Biso   1.000  C
  C171     1.0000 0.39300  0.80017  0.90880  Biso   1.000  C
  H146     1.0000 0.34240  0.79510  0.87450  Biso   1.000  H
  C172     1.0000 0.43210  0.83574  0.90780  Biso   1.000  C
  H147     1.0000 0.40810  0.85500  0.87300  Biso   1.000  H
  C173     1.0000 0.38110  0.73448  0.96350  Biso   1.000  C
  C174     1.0000 0.10280  0.98331  0.06260  Biso   1.000  C
  C175     1.0000 0.12710  0.00082  0.00460  Biso   1.000  C
  C176     1.0000 0.15180  0.97557  0.95490  Biso   1.000  C
  C177     1.0000 0.14550  0.93491  0.95980  Biso   1.000  C
  C178     1.0000 0.12490  0.91948  0.02010  Biso   1.000  C
  C179     1.0000 0.10380  0.94248  0.07230  Biso   1.000  C
  C180     1.0000 0.12780  0.04481  0.99510  Biso   1.000  C
  H148     1.0000 0.14660  0.05110  0.95170  Biso   1.000  H
  H149     1.0000 0.16530  0.05670  0.03740  Biso   1.000  H
  H150     1.0000 0.07210  0.05510  0.99000  Biso   1.000  H
  C181     1.0000 0.15830  0.90916  0.89820  Biso   1.000  C
  H151     1.0000 0.17240  0.92570  0.86100  Biso   1.000  H
  H152     1.0000 0.10750  0.89470  0.87720  Biso   1.000  H
  H153     1.0000 0.20320  0.89060  0.91680  Biso   1.000  H
  C182     1.0000 0.08430  0.92470  0.13770  Biso   1.000  C
  H154     1.0000 0.07080  0.94560  0.16810  Biso   1.000  H
  H155     1.0000 0.13220  0.91000  0.16500  Biso   1.000  H
  H156     1.0000 0.03710  0.90700  0.12270  Biso   1.000  H
  C183     1.0000 0.07370  0.00940  0.11370  Biso   1.000  C
  H157     1.0000 0.03690  0.99480  0.13780  Biso   1.000  H
  H158     1.0000 0.04290  0.03200  0.08760  Biso   1.000  H
  C184     1.0000 0.13310  0.04548  0.22200  Biso   1.000  C
  C185     1.0000 0.20410  0.05833  0.27170  Biso   1.000  C
  H159     1.0000 0.25700  0.05190  0.26520  Biso   1.000  H
  C186     1.0000 0.19710  0.08005  0.32960  Biso   1.000  C
  H160     1.0000 0.24560  0.08970  0.36200  Biso   1.000  H
  C187     1.0000 0.12080  0.08843  0.34240  Biso   1.000  C
  C188     1.0000 0.05130  0.07547  0.29190  Biso   1.000  C
  H161     1.0000 0.99840  0.08170  0.29880  Biso   1.000  H
  C189     1.0000 0.05650  0.05403  0.23260  Biso   1.000  C
  H162     1.0000 0.00800  0.04520  0.19920  Biso   1.000  H
  C190     1.0000 0.11330  0.11043  0.40720  Biso   1.000  C
  C191     1.0000 0.18440  0.99389  0.89610  Biso   1.000  C
  H163     1.0000 0.21960  0.97490  0.87830  Biso   1.000  H
  H164     1.0000 0.21800  0.01720  0.91490  Biso   1.000  H
  C192     1.0000 0.13170  0.02848  0.78490  Biso   1.000  C
  C193     1.0000 0.21040  0.03365  0.77520  Biso   1.000  C
  H165     1.0000 0.25600  0.02060  0.80580  Biso   1.000  H
  C194     1.0000 0.22190  0.05759  0.72130  Biso   1.000  C
  H166     1.0000 0.27580  0.06080  0.71450  Biso   1.000  H
  C195     1.0000 0.15620  0.07734  0.67620  Biso   1.000  C
  C196     1.0000 0.07750  0.06990  0.68510  Biso   1.000  C
  H167     1.0000 0.03100  0.08150  0.65280  Biso   1.000  H
  C197     1.0000 0.06600  0.04627  0.73920  Biso   1.000  C
  H168     1.0000 0.01200  0.04210  0.74520  Biso   1.000  H
  C198     1.0000 0.17080  0.10374  0.62040  Biso   1.000  C
  C199     1.0000 0.12120  0.87498  0.02600  Biso   1.000  C
  H169     1.0000 0.14000  0.86650  0.07700  Biso   1.000  H
  H170     1.0000 0.15620  0.86230  0.99770  Biso   1.000  H
  C200     1.0000 0.01560  0.82640  0.99440  Biso   1.000  C
  C201     1.0000 0.93270  0.81820  0.96410  Biso   1.000  C
  H171     1.0000 0.89580  0.83880  0.94450  Biso   1.000  H
  C202     1.0000 0.90460  0.78050  0.96270  Biso   1.000  C
  H172     1.0000 0.84740  0.77520  0.94540  Biso   1.000  H
  C203     1.0000 0.95910  0.74976  0.98640  Biso   1.000  C
  C204     1.0000 0.04160  0.75755  0.01140  Biso   1.000  C
  H173     1.0000 0.07910  0.73650  0.02660  Biso   1.000  H
  C205     1.0000 0.07160  0.79627  0.01490  Biso   1.000  C
  H174     1.0000 0.12900  0.80150  0.03090  Biso   1.000  H
  C206     1.0000 0.92880  0.70862  0.98460  Biso   1.000  C
  C207     1.0000 0.36610  0.19898  0.54940  Biso   1.000  C
  C208     1.0000 0.34390  0.23340  0.59050  Biso   1.000  C
  H175     1.0000 0.28960  0.22900  0.59980  Biso   1.000  H
  H176     1.0000 0.34250  0.25740  0.56200  Biso   1.000  H
  H177     1.0000 0.38520  0.23620  0.63660  Biso   1.000  H
  C209     1.0000 0.88280  0.15293  0.60080  Biso   1.000  C
  C210     1.0000 0.87290  0.16080  0.67480  Biso   1.000  C
  H178     1.0000 0.92430  0.15460  0.71040  Biso   1.000  H
  H179     1.0000 0.82820  0.14460  0.68380  Biso   1.000  H
  H180     1.0000 0.85960  0.18860  0.67900  Biso   1.000  H
  Mg13     1.0000 0.51070  0.66768  0.03172  Biso   1.000  Mg
  Mg14     1.0000 0.29403  0.67762  0.98228  Biso   1.000  Mg
  Mg15     1.0000 0.00449  0.62496  0.99347  Biso   1.000  Mg
  Mg16     1.0000 0.20476  0.15382  0.53863  Biso   1.000  Mg
  O67      1.0000 0.39749  0.52413  0.67212  Biso   1.000  O
  O68      1.0000 0.45717  0.63378  0.94583  Biso   1.000  O
  O69      1.0000 0.32171  0.64162  0.90636  Biso   1.000  O
  O70      1.0000 0.35688  0.53383  0.34183  Biso   1.000  O
  O71      1.0000 0.32177  0.64042  0.06548  Biso   1.000  O
  O72      1.0000 0.45896  0.63850  0.10329  Biso   1.000  O
  O73      1.0000 0.46154  0.38015  0.54791  Biso   1.000  O
  O74      1.0000 0.58687  0.20803  0.49159  Biso   1.000  O
  O75      1.0000 0.69040  0.23006  0.57617  Biso   1.000  O
  O76      1.0000 0.85385  0.52280  0.33368  Biso   1.000  O
  O77      1.0000 0.95634  0.61050  0.07793  Biso   1.000  O
  O78      1.0000 0.82275  0.62749  0.05672  Biso   1.000  O
  O79      1.0000 0.96360  0.36533  0.50280  Biso   1.000  O
  O80      1.0000 0.14700  0.20297  0.53680  Biso   1.000  O
  O81      1.0000 0.01890  0.18282  0.49564  Biso   1.000  O
  O82      1.0000 0.88527  0.50515  0.66216  Biso   1.000  O
  O83      1.0000 0.75777  0.61429  0.88077  Biso   1.000  O
  O84      1.0000 0.88845  0.61847  0.92489  Biso   1.000  O
  O85      1.0000 0.68740  0.67223  0.96955  Biso   1.000  O
  O86      1.0000 0.56709  0.69995  0.96649  Biso   1.000  O
  O87      1.0000 0.05011  0.63860  0.90476  Biso   1.000  O
  O88      1.0000 0.17636  0.65912  0.95246  Biso   1.000  O
  C211     1.0000 0.35050  0.49335  0.55820  Biso   1.000  C
  C212     1.0000 0.37470  0.51537  0.50430  Biso   1.000  C
  C213     1.0000 0.39860  0.49560  0.44878  Biso   1.000  C
  C214     1.0000 0.39640  0.45503  0.44490  Biso   1.000  C
  C215     1.0000 0.37500  0.43322  0.50030  Biso   1.000  C
  C216     1.0000 0.35410  0.45243  0.55740  Biso   1.000  C
  C217     1.0000 0.37520  0.55948  0.50610  Biso   1.000  C
  H181     1.0000 0.35690  0.56860  0.54820  Biso   1.000  H
  H182     1.0000 0.33790  0.56960  0.46190  Biso   1.000  H
  H183     1.0000 0.43120  0.56900  0.50920  Biso   1.000  H
  C218     1.0000 0.41440  0.43340  0.37970  Biso   1.000  C
  H184     1.0000 0.41010  0.40500  0.38630  Biso   1.000  H
  H185     1.0000 0.47020  0.43990  0.37590  Biso   1.000  H
  H186     1.0000 0.37430  0.44150  0.33550  Biso   1.000  H
  C219     1.0000 0.33530  0.42936  0.61890  Biso   1.000  C
  H187     1.0000 0.32190  0.44750  0.65420  Biso   1.000  H
  H188     1.0000 0.38360  0.41370  0.64230  Biso   1.000  H
  H189     1.0000 0.28840  0.41190  0.60020  Biso   1.000  H
  C220     1.0000 0.32440  0.51501  0.61800  Biso   1.000  C
  H190     1.0000 0.28740  0.49840  0.63850  Biso   1.000  H
  H191     1.0000 0.29460  0.53940  0.59900  Biso   1.000  H
  C221     1.0000 0.39050  0.54863  0.72690  Biso   1.000  C
  C222     1.0000 0.46250  0.55998  0.77420  Biso   1.000  C
  H192     1.0000 0.51340  0.55010  0.76800  Biso   1.000  H
  C223     1.0000 0.46290  0.58527  0.83040  Biso   1.000  C
  H193     1.0000 0.51370  0.59310  0.86170  Biso   1.000  H
  C224     1.0000 0.38910  0.59939  0.84140  Biso   1.000  C
  C225     1.0000 0.31620  0.58741  0.79430  Biso   1.000  C
  H194     1.0000 0.26530  0.59680  0.80110  Biso   1.000  H
  C226     1.0000 0.31560  0.56230  0.73790  Biso   1.000  C
  H195     1.0000 0.26490  0.55430  0.70670  Biso   1.000  H
  C227     1.0000 0.38900  0.62711  0.90210  Biso   1.000  C
  C228     1.0000 0.42880  0.51889  0.39390  Biso   1.000  C
  H196     1.0000 0.46180  0.50200  0.36950  Biso   1.000  H
  H197     1.0000 0.46390  0.54090  0.41760  Biso   1.000  H
  C229     1.0000 0.36920  0.55677  0.28750  Biso   1.000  C
  C230     1.0000 0.44580  0.56464  0.27440  Biso   1.000  C
  H198     1.0000 0.49430  0.55350  0.30430  Biso   1.000  H
  C231     1.0000 0.45080  0.58905  0.21700  Biso   1.000  C
  H199     1.0000 0.50340  0.59490  0.20920  Biso   1.000  H
  C232     1.0000 0.38210  0.60483  0.17180  Biso   1.000  C
  C233     1.0000 0.30620  0.59603  0.18490  Biso   1.000  C
  H200     1.0000 0.25760  0.60640  0.15370  Biso   1.000  H
  C234     1.0000 0.29930  0.57274  0.24190  Biso   1.000  C
  H201     1.0000 0.24660  0.56760  0.25010  Biso   1.000  H
  C235     1.0000 0.38840  0.62983  0.10900  Biso   1.000  C
  C236     1.0000 0.38210  0.38944  0.50100  Biso   1.000  C
  H202     1.0000 0.37830  0.37940  0.45170  Biso   1.000  H
  H203     1.0000 0.33750  0.37750  0.51950  Biso   1.000  H
  C237     1.0000 0.49390  0.34345  0.54260  Biso   1.000  C
  C238     1.0000 0.45860  0.31490  0.49310  Biso   1.000  C
  H204     1.0000 0.40690  0.31960  0.46010  Biso   1.000  H
  C239     1.0000 0.49850  0.27972  0.49190  Biso   1.000  C
  H205     1.0000 0.47450  0.26050  0.45700  Biso   1.000  H
  C240     1.0000 0.57290  0.27176  0.54030  Biso   1.000  C
  C241     1.0000 0.60700  0.30017  0.59120  Biso   1.000  C
  H206     1.0000 0.65760  0.29510  0.62550  Biso   1.000  H
  C242     1.0000 0.56790  0.33574  0.59220  Biso   1.000  C
  H207     1.0000 0.59190  0.35500  0.62700  Biso   1.000  H
  C243     1.0000 0.61890  0.23448  0.53650  Biso   1.000  C
  C244     1.0000 0.89720  0.48331  0.43740  Biso   1.000  C
  C245     1.0000 0.87290  0.50082  0.49540  Biso   1.000  C
  C246     1.0000 0.84820  0.47557  0.54510  Biso   1.000  C
  C247     1.0000 0.85450  0.43491  0.54020  Biso   1.000  C
  C248     1.0000 0.87510  0.41948  0.47990  Biso   1.000  C
  C249     1.0000 0.89620  0.44248  0.42770  Biso   1.000  C
  C250     1.0000 0.87220  0.54481  0.50490  Biso   1.000  C
  H208     1.0000 0.85340  0.55110  0.54830  Biso   1.000  H
  H209     1.0000 0.83470  0.55670  0.46260  Biso   1.000  H
  H210     1.0000 0.92790  0.55510  0.51000  Biso   1.000  H
  C251     1.0000 0.84170  0.40916  0.60180  Biso   1.000  C
  H211     1.0000 0.82760  0.42570  0.63900  Biso   1.000  H
  H212     1.0000 0.89250  0.39470  0.62280  Biso   1.000  H
  H213     1.0000 0.79680  0.39060  0.58320  Biso   1.000  H
  C252     1.0000 0.91570  0.42470  0.36230  Biso   1.000  C
  H214     1.0000 0.92920  0.44560  0.33190  Biso   1.000  H
  H215     1.0000 0.86780  0.41000  0.33500  Biso   1.000  H
  H216     1.0000 0.96290  0.40700  0.37730  Biso   1.000  H
  C253     1.0000 0.92630  0.50940  0.38630  Biso   1.000  C
  H217     1.0000 0.96310  0.49480  0.36220  Biso   1.000  H
  H218     1.0000 0.95710  0.53200  0.41240  Biso   1.000  H
  C254     1.0000 0.86690  0.54548  0.27800  Biso   1.000  C
  C255     1.0000 0.79590  0.55833  0.22830  Biso   1.000  C
  H219     1.0000 0.74300  0.55190  0.23480  Biso   1.000  H
  C256     1.0000 0.80290  0.58005  0.17040  Biso   1.000  C
  H220     1.0000 0.75440  0.58970  0.13800  Biso   1.000  H
  C257     1.0000 0.87920  0.58843  0.15760  Biso   1.000  C
  C258     1.0000 0.94870  0.57547  0.20810  Biso   1.000  C
  H221     1.0000 0.00160  0.58170  0.20120  Biso   1.000  H
  C259     1.0000 0.94350  0.55403  0.26740  Biso   1.000  C
  H222     1.0000 0.99200  0.54520  0.30080  Biso   1.000  H
  C260     1.0000 0.88670  0.61043  0.09280  Biso   1.000  C
  C261     1.0000 0.81560  0.49389  0.60390  Biso   1.000  C
  H223     1.0000 0.78040  0.47490  0.62170  Biso   1.000  H
  H224     1.0000 0.78200  0.51720  0.58510  Biso   1.000  H
  C262     1.0000 0.86830  0.52848  0.71510  Biso   1.000  C
  C263     1.0000 0.78960  0.53365  0.72480  Biso   1.000  C
  H225     1.0000 0.74400  0.52060  0.69420  Biso   1.000  H
  C264     1.0000 0.77810  0.55759  0.77870  Biso   1.000  C
  H226     1.0000 0.72420  0.56080  0.78550  Biso   1.000  H
  C265     1.0000 0.84380  0.57734  0.82380  Biso   1.000  C
  C266     1.0000 0.92250  0.56990  0.81490  Biso   1.000  C
  H227     1.0000 0.96900  0.58150  0.84720  Biso   1.000  H
  C267     1.0000 0.93400  0.54627  0.76080  Biso   1.000  C
  H228     1.0000 0.98800  0.54210  0.75480  Biso   1.000  H
  C268     1.0000 0.82920  0.60374  0.87960  Biso   1.000  C
  C269     1.0000 0.87880  0.37498  0.47400  Biso   1.000  C
  H229     1.0000 0.86000  0.36650  0.42300  Biso   1.000  H
  H230     1.0000 0.84380  0.36230  0.50230  Biso   1.000  H
  C270     1.0000 0.98440  0.32640  0.50560  Biso   1.000  C
  C271     1.0000 0.06730  0.31820  0.53590  Biso   1.000  C
  H231     1.0000 0.10420  0.33880  0.55550  Biso   1.000  H
  C272     1.0000 0.09540  0.28050  0.53730  Biso   1.000  C
  H232     1.0000 0.15260  0.27520  0.55460  Biso   1.000  H
  C273     1.0000 0.04090  0.24976  0.51360  Biso   1.000  C
  C274     1.0000 0.95840  0.25755  0.48860  Biso   1.000  C
  H233     1.0000 0.92090  0.23650  0.47340  Biso   1.000  H
  C275     1.0000 0.92840  0.29627  0.48510  Biso   1.000  C
  H234     1.0000 0.87100  0.30150  0.46910  Biso   1.000  H
  C276     1.0000 0.07120  0.20862  0.51540  Biso   1.000  C
  C277     1.0000 0.63390  0.69898  0.95060  Biso   1.000  C
  C278     1.0000 0.65610  0.73340  0.90950  Biso   1.000  C
  H235     1.0000 0.71040  0.72900  0.90020  Biso   1.000  H
  H236     1.0000 0.65750  0.75740  0.93800  Biso   1.000  H
  H237     1.0000 0.61480  0.73620  0.86340  Biso   1.000  H
  C279     1.0000 0.11720  0.65293  0.89920  Biso   1.000  C
  C280     1.0000 0.12710  0.66080  0.82520  Biso   1.000  C
  H238     1.0000 0.07570  0.65460  0.78960  Biso   1.000  H
  H239     1.0000 0.17180  0.64460  0.81620  Biso   1.000  H
  H240     1.0000 0.14040  0.68860  0.82100  Biso   1.000  H
