data_image0
_cell_length_a       19.519
_cell_length_b       19.943
_cell_length_c       32.106
_cell_angle_alpha    76.687
_cell_angle_beta     83.425
_cell_angle_gamma    61.034

_symmetry_space_group_name_H-M    "P 1"
_symmetry_int_tables_number       1

loop_
  _symmetry_equiv_pos_as_xyz
  'x, y, z'

loop_
  _atom_site_label
  _atom_site_occupancy
  _atom_site_fract_x
  _atom_site_fract_y
  _atom_site_fract_z
  _atom_site_thermal_displace_type
  _atom_site_B_iso_or_equiv
  _atom_site_type_symbol
  Ba1      1.0000 0.55791  0.74026  0.06966  Biso   1.000  Ba
  Ba2      1.0000 0.70829  0.68652  0.16930  Biso   1.000  Ba
  Ba3      1.0000 0.61014  0.66507  0.29629  Biso   1.000  Ba
  Ba4      1.0000 0.68978  0.71711  0.39634  Biso   1.000  Ba
  Ba5      1.0000 0.66409  0.62086  0.52296  Biso   1.000  Ba
  Ba6      1.0000 0.77694  0.61500  0.63039  Biso   1.000  Ba
  Ba7      1.0000 0.65523  0.60195  0.75231  Biso   1.000  Ba
  Ba8      1.0000 0.63878  0.72576  0.84305  Biso   1.000  Ba
  Ba9      1.0000 0.70043  0.61470  0.97645  Biso   1.000  Ba
  O1       1.0000 0.19351  0.94690  0.19868  Biso   1.000  O
  O2       1.0000 0.87898  0.24315  0.16029  Biso   1.000  O
  O3       1.0000 0.91084  0.88962  0.22039  Biso   1.000  O
  O4       1.0000 0.56247  0.74177  0.21672  Biso   1.000  O
  O5       1.0000 0.55167  0.77445  0.14682  Biso   1.000  O
  O6       1.0000 0.73271  0.69064  0.25095  Biso   1.000  O
  O7       1.0000 0.69527  0.73970  0.31053  Biso   1.000  O
  O8       1.0000 0.65333  0.58568  0.06087  Biso   1.000  O
  O9       1.0000 0.67394  0.60799  0.12182  Biso   1.000  O
  O10      1.0000 0.86632  0.22087  0.42923  Biso   1.000  O
  O11      1.0000 0.94217  0.86957  0.45562  Biso   1.000  O
  O12      1.0000 0.20400  0.97382  0.44636  Biso   1.000  O
  O13      1.0000 0.67660  0.59181  0.37424  Biso   1.000  O
  O14      1.0000 0.69886  0.57569  0.44288  Biso   1.000  O
  O15      1.0000 0.76435  0.67365  0.47345  Biso   1.000  O
  O16      1.0000 0.77088  0.66966  0.54245  Biso   1.000  O
  O17      1.0000 0.57380  0.74267  0.45389  Biso   1.000  O
  O18      1.0000 0.55180  0.78317  0.51448  Biso   1.000  O
  O19      1.0000 0.26345  0.83388  0.65467  Biso   1.000  O
  O20      1.0000 0.99618  0.78450  0.72064  Biso   1.000  O
  O21      1.0000 0.95391  0.14438  0.66857  Biso   1.000  O
  O22      1.0000 0.63353  0.65923  0.66871  Biso   1.000  O
  O23      1.0000 0.62199  0.65661  0.60103  Biso   1.000  O
  O24      1.0000 0.73008  0.68374  0.77330  Biso   1.000  O
  O25      1.0000 0.77374  0.64069  0.71268  Biso   1.000  O
  O26      1.0000 0.73220  0.46602  0.55000  Biso   1.000  O
  O27      1.0000 0.78258  0.50874  0.59008  Biso   1.000  O
  O28      1.0000 0.88734  0.21446  0.92191  Biso   1.000  O
  O29      1.0000 0.20094  0.95558  0.93362  Biso   1.000  O
  O30      1.0000 0.92295  0.86735  0.97440  Biso   1.000  O
  O31      1.0000 0.68297  0.57243  0.83824  Biso   1.000  O
  O32      1.0000 0.72828  0.58172  0.89521  Biso   1.000  O
  O33      1.0000 0.56600  0.71777  0.92066  Biso   1.000  O
  O34      1.0000 0.55151  0.73364  0.98732  Biso   1.000  O
  O35      1.0000 0.69353  0.75162  0.08379  Biso   1.000  O
  O36      1.0000 0.69750  0.71719  0.02224  Biso   1.000  O
  O37      1.0000 0.45530  0.68601  0.11795  Biso   1.000  O
  O38      1.0000 0.32640  0.74300  0.11794  Biso   1.000  O
  O39      1.0000 0.39010  0.79188  0.07057  Biso   1.000  O
  O40      1.0000 0.71650  0.56240  0.23048  Biso   1.000  O
  O41      1.0000 0.66810  0.51383  0.28607  Biso   1.000  O
  O42      1.0000 0.77720  0.43600  0.25558  Biso   1.000  O
  O43      1.0000 0.49720  0.83920  0.29417  Biso   1.000  O
  O44      1.0000 0.52240  0.88570  0.34471  Biso   1.000  O
  O45      1.0000 0.54030  0.76640  0.35314  Biso   1.000  O
  O46      1.0000 0.77780  0.49680  0.70046  Biso   1.000  O
  O47      1.0000 0.80000  0.46230  0.76680  Biso   1.000  O
  O48      1.0000 0.89190  0.39920  0.72974  Biso   1.000  O
  O49      1.0000 0.48200  0.79541  0.82083  Biso   1.000  O
  O50      1.0000 0.55890  0.75949  0.76568  Biso   1.000  O
  O51      1.0000 0.42960  0.83830  0.75792  Biso   1.000  O
  O52      1.0000 0.82940  0.63760  0.93098  Biso   1.000  O
  O53      1.0000 0.71540  0.73176  0.90925  Biso   1.000  O
  O54      1.0000 0.81020  0.70240  0.86657  Biso   1.000  O
  N1       1.0000 0.39100  0.73920  0.10062  Biso   1.000  N
  N2       1.0000 0.71810  0.50580  0.25740  Biso   1.000  N
  N3       1.0000 0.51020  0.83530  0.33387  Biso   1.000  N
  N4       1.0000 0.82400  0.45860  0.72780  Biso   1.000  N
  N5       1.0000 0.49000  0.79730  0.78145  Biso   1.000  N
  N6       1.0000 0.78660  0.69000  0.90362  Biso   1.000  N
  C1       1.0000 0.06180  0.99460  0.17693  Biso   1.000  C
  C2       1.0000 0.01400  0.07140  0.15819  Biso   1.000  C
  C3       1.0000 0.93670  0.10480  0.16413  Biso   1.000  C
  C4       1.0000 0.90190  0.06290  0.19118  Biso   1.000  C
  C5       1.0000 0.94820  0.98800  0.21251  Biso   1.000  C
  C6       1.0000 0.02910  0.95140  0.20413  Biso   1.000  C
  C7       1.0000 0.05010  0.12340  0.13307  Biso   1.000  C
  H1       1.0000 0.10700  0.09140  0.13110  Biso   1.000  H
  H2       1.0000 0.02790  0.14610  0.10420  Biso   1.000  H
  H3       1.0000 0.03820  0.16550  0.14800  Biso   1.000  H
  C8       1.0000 0.81340  0.10070  0.19943  Biso   1.000  C
  H4       1.0000 0.78810  0.15380  0.18210  Biso   1.000  H
  H5       1.0000 0.79230  0.06950  0.19170  Biso   1.000  H
  H6       1.0000 0.80310  0.10300  0.22980  Biso   1.000  H
  C9       1.0000 0.08170  0.86750  0.22513  Biso   1.000  C
  H7       1.0000 0.05010  0.84580  0.24300  Biso   1.000  H
  H8       1.0000 0.10880  0.83670  0.20300  Biso   1.000  H
  H9       1.0000 0.12030  0.86560  0.24300  Biso   1.000  H
  C10      1.0000 0.14640  0.95570  0.16495  Biso   1.000  C
  H10      1.0000 0.16140  0.90370  0.15910  Biso   1.000  H
  H11      1.0000 0.15560  0.98750  0.13850  Biso   1.000  H
  C11      1.0000 0.27130  0.90740  0.19356  Biso   1.000  C
  C12      1.0000 0.31630  0.87660  0.22949  Biso   1.000  C
  H12      1.0000 0.29200  0.88510  0.25650  Biso   1.000  H
  C13      1.0000 0.39680  0.83330  0.22695  Biso   1.000  C
  H13      1.0000 0.42630  0.80850  0.25270  Biso   1.000  H
  C14      1.0000 0.43650  0.82460  0.18761  Biso   1.000  C
  C15      1.0000 0.38940  0.86100  0.15209  Biso   1.000  C
  H14      1.0000 0.41380  0.85950  0.12470  Biso   1.000  H
  C16      1.0000 0.30900  0.89960  0.15384  Biso   1.000  C
  H15      1.0000 0.27920  0.92080  0.12830  Biso   1.000  H
  C17      1.0000 0.52100  0.77770  0.18349  Biso   1.000  C
  C18      1.0000 0.91470  0.94270  0.24321  Biso   1.000  C
  H16      1.0000 0.94860  0.91300  0.26870  Biso   1.000  H
  H17      1.0000 0.86180  0.97840  0.25260  Biso   1.000  H
  C19      1.0000 0.87160  0.84900  0.23730  Biso   1.000  C
  C20      1.0000 0.82060  0.86570  0.27319  Biso   1.000  C
  H18      1.0000 0.81750  0.90190  0.28900  Biso   1.000  H
  C21      1.0000 0.77560  0.82760  0.28447  Biso   1.000  C
  H19      1.0000 0.73760  0.84150  0.30660  Biso   1.000  H
  C22      1.0000 0.78510  0.77020  0.26403  Biso   1.000  C
  C23      1.0000 0.83710  0.75440  0.22935  Biso   1.000  C
  H20      1.0000 0.84210  0.71650  0.21430  Biso   1.000  H
  C24      1.0000 0.88110  0.79260  0.21662  Biso   1.000  C
  H21      1.0000 0.91760  0.77980  0.19370  Biso   1.000  H
  C25      1.0000 0.73490  0.72950  0.27598  Biso   1.000  C
  C26      1.0000 0.88450  0.18600  0.13787  Biso   1.000  C
  H22      1.0000 0.90750  0.19280  0.10910  Biso   1.000  H
  H23      1.0000 0.83180  0.19220  0.13450  Biso   1.000  H
  C27      1.0000 0.83530  0.31950  0.14148  Biso   1.000  C
  C28      1.0000 0.79440  0.34510  0.10299  Biso   1.000  C
  H24      1.0000 0.79810  0.30840  0.08740  Biso   1.000  H
  C29      1.0000 0.74820  0.42510  0.08782  Biso   1.000  C
  H25      1.0000 0.72130  0.44300  0.06140  Biso   1.000  H
  C30      1.0000 0.74150  0.47810  0.11088  Biso   1.000  C
  C31      1.0000 0.78280  0.45130  0.14968  Biso   1.000  C
  H26      1.0000 0.77850  0.48720  0.16610  Biso   1.000  H
  C32      1.0000 0.82890  0.37340  0.16308  Biso   1.000  C
  H27      1.0000 0.85790  0.35560  0.18870  Biso   1.000  H
  C33      1.0000 0.68680  0.56450  0.09653  Biso   1.000  C
  C34      1.0000 0.94610  0.09790  0.41195  Biso   1.000  C
  C35      1.0000 0.92000  0.04680  0.43630  Biso   1.000  C
  C36      1.0000 0.97310  0.97140  0.45641  Biso   1.000  C
  C37      1.0000 0.05010  0.94770  0.44987  Biso   1.000  C
  C38      1.0000 0.07900  0.99700  0.42564  Biso   1.000  C
  C39      1.0000 0.02420  0.07470  0.40716  Biso   1.000  C
  C40      1.0000 0.83090  0.07450  0.44093  Biso   1.000  C
  H28      1.0000 0.80200  0.12840  0.42500  Biso   1.000  H
  H29      1.0000 0.81820  0.04040  0.42950  Biso   1.000  H
  H30      1.0000 0.81610  0.07240  0.47120  Biso   1.000  H
  C41      1.0000 0.11180  0.86520  0.47137  Biso   1.000  C
  H31      1.0000 0.16440  0.85830  0.46300  Biso   1.000  H
  H32      1.0000 0.10620  0.85920  0.50250  Biso   1.000  H
  H33      1.0000 0.10410  0.82570  0.46220  Biso   1.000  H
  C42      1.0000 0.05240  0.13110  0.38521  Biso   1.000  C
  H34      1.0000 0.10980  0.10430  0.38470  Biso   1.000  H
  H35      1.0000 0.03260  0.15220  0.35580  Biso   1.000  H
  H36      1.0000 0.03340  0.17400  0.40060  Biso   1.000  H
  C43      1.0000 0.88530  0.18140  0.39434  Biso   1.000  C
  H37      1.0000 0.90700  0.20600  0.37000  Biso   1.000  H
  H38      1.0000 0.83830  0.18270  0.38460  Biso   1.000  H
  C44      1.0000 0.81870  0.30140  0.42190  Biso   1.000  C
  C45      1.0000 0.79090  0.34860  0.38324  Biso   1.000  C
  H39      1.0000 0.79930  0.32680  0.35860  Biso   1.000  H
  C46      1.0000 0.75030  0.42830  0.38023  Biso   1.000  C
  H40      1.0000 0.72910  0.46070  0.35330  Biso   1.000  H
  C47      1.0000 0.73920  0.46350  0.41470  Biso   1.000  C
  C48      1.0000 0.76860  0.41340  0.45452  Biso   1.000  C
  H41      1.0000 0.76160  0.43440  0.47930  Biso   1.000  H
  C49      1.0000 0.80760  0.33350  0.45717  Biso   1.000  C
  H42      1.0000 0.82720  0.30000  0.48410  Biso   1.000  H
  C50      1.0000 0.70230  0.54870  0.41069  Biso   1.000  C
  C51      1.0000 0.94660  0.91550  0.48324  Biso   1.000  C
  H43      1.0000 0.98420  0.88080  0.50670  Biso   1.000  H
  H44      1.0000 0.89460  0.94480  0.49600  Biso   1.000  H
  C52      1.0000 0.90790  0.82420  0.47046  Biso   1.000  C
  C53      1.0000 0.87770  0.81560  0.51115  Biso   1.000  C
  H45      1.0000 0.88040  0.84230  0.53140  Biso   1.000  H
  C54      1.0000 0.84240  0.76580  0.52231  Biso   1.000  C
  H46      1.0000 0.82400  0.75720  0.55070  Biso   1.000  H
  C55      1.0000 0.83450  0.72990  0.49269  Biso   1.000  C
  C56      1.0000 0.86550  0.74120  0.45187  Biso   1.000  C
  H47      1.0000 0.86170  0.71620  0.43100  Biso   1.000  H
  C57      1.0000 0.90060  0.78690  0.44139  Biso   1.000  C
  H48      1.0000 0.92090  0.79340  0.41330  Biso   1.000  H
  C58      1.0000 0.78600  0.68820  0.50381  Biso   1.000  C
  C59      1.0000 0.17050  0.96380  0.41147  Biso   1.000  C
  H49      1.0000 0.19470  0.90810  0.40950  Biso   1.000  H
  H50      1.0000 0.17650  0.99460  0.38370  Biso   1.000  H
  C60      1.0000 0.28590  0.92810  0.45046  Biso   1.000  C
  C61      1.0000 0.31680  0.93190  0.48612  Biso   1.000  C
  H51      1.0000 0.28290  0.96630  0.50420  Biso   1.000  H
  C62      1.0000 0.39780  0.88580  0.49634  Biso   1.000  C
  H52      1.0000 0.41900  0.88780  0.52090  Biso   1.000  H
  C63      1.0000 0.44410  0.83750  0.46796  Biso   1.000  C
  C64      1.0000 0.40980  0.84010  0.42922  Biso   1.000  C
  H53      1.0000 0.44320  0.81100  0.40880  Biso   1.000  H
  C65      1.0000 0.32750  0.88510  0.42092  Biso   1.000  C
  H54      1.0000 0.30420  0.88470  0.39670  Biso   1.000  H
  C66      1.0000 0.53190  0.78560  0.48044  Biso   1.000  C
  C67      1.0000 0.14530  0.89690  0.69381  Biso   1.000  C
  C68      1.0000 0.09600  0.97410  0.67271  Biso   1.000  C
  C69      1.0000 0.01730  0.00320  0.67617  Biso   1.000  C
  C70      1.0000 0.98390  0.95960  0.70139  Biso   1.000  C
  C71      1.0000 0.03120  0.88410  0.72097  Biso   1.000  C
  C72      1.0000 0.11400  0.84930  0.71573  Biso   1.000  C
  C73      1.0000 0.13370  0.02400  0.64699  Biso   1.000  C
  H55      1.0000 0.19080  0.99270  0.64830  Biso   1.000  H
  H56      1.0000 0.11670  0.04060  0.61710  Biso   1.000  H
  H57      1.0000 0.11720  0.07020  0.65930  Biso   1.000  H
  C74      1.0000 0.89620  0.99560  0.70786  Biso   1.000  C
  H58      1.0000 0.87120  0.04960  0.69170  Biso   1.000  H
  H59      1.0000 0.87650  0.96530  0.69780  Biso   1.000  H
  H60      1.0000 0.88390  0.99520  0.73840  Biso   1.000  H
  C75      1.0000 0.16520  0.76430  0.73276  Biso   1.000  C
  H61      1.0000 0.13290  0.74050  0.74720  Biso   1.000  H
  H62      1.0000 0.19400  0.73850  0.70910  Biso   1.000  H
  H63      1.0000 0.20250  0.75810  0.75320  Biso   1.000  H
  C76      1.0000 0.23220  0.86480  0.69278  Biso   1.000  C
  H64      1.0000 0.24540  0.90670  0.69330  Biso   1.000  H
  H65      1.0000 0.25570  0.82290  0.71830  Biso   1.000  H
  C77      1.0000 0.34390  0.79470  0.65205  Biso   1.000  C
  C78      1.0000 0.39330  0.78970  0.68217  Biso   1.000  C
  H66      1.0000 0.37230  0.81300  0.70650  Biso   1.000  H
  C79      1.0000 0.47320  0.75010  0.67593  Biso   1.000  C
  H67      1.0000 0.50700  0.74480  0.69690  Biso   1.000  H
  C80      1.0000 0.50560  0.71810  0.64044  Biso   1.000  C
  C81      1.0000 0.45540  0.72950  0.60972  Biso   1.000  C
  H68      1.0000 0.47650  0.71160  0.58390  Biso   1.000  H
  C82      1.0000 0.37630  0.76580  0.61527  Biso   1.000  C
  H69      1.0000 0.34320  0.77140  0.59380  Biso   1.000  H
  C83      1.0000 0.59150  0.67480  0.63690  Biso   1.000  C
  C84      1.0000 0.99870  0.83160  0.74708  Biso   1.000  C
  H70      1.0000 0.03250  0.79790  0.77220  Biso   1.000  H
  H71      1.0000 0.94540  0.86390  0.75750  Biso   1.000  H
  C85      1.0000 0.94400  0.75550  0.72944  Biso   1.000  C
  C86      1.0000 0.94240  0.71660  0.69970  Biso   1.000  C
  H72      1.0000 0.97810  0.70890  0.67630  Biso   1.000  H
  C87      1.0000 0.88890  0.68870  0.70383  Biso   1.000  C
  H73      1.0000 0.88850  0.66110  0.68350  Biso   1.000  H
  C88      1.0000 0.83580  0.70100  0.73770  Biso   1.000  C
  C89      1.0000 0.83980  0.73810  0.76730  Biso   1.000  C
  H74      1.0000 0.80460  0.74500  0.79090  Biso   1.000  H
  C90      1.0000 0.89360  0.76620  0.76437  Biso   1.000  C
  H75      1.0000 0.89570  0.79170  0.78550  Biso   1.000  H
  C91      1.0000 0.77640  0.67260  0.74140  Biso   1.000  C
  C92      1.0000 0.96800  0.08140  0.64805  Biso   1.000  C
  H76      1.0000 0.99510  0.08610  0.62040  Biso   1.000  H
  H77      1.0000 0.91730  0.08530  0.64220  Biso   1.000  H
  C93      1.0000 0.91140  0.21840  0.64607  Biso   1.000  C
  C94      1.0000 0.90700  0.27750  0.66214  Biso   1.000  C
  H78      1.0000 0.93250  0.26640  0.68820  Biso   1.000  H
  C95      1.0000 0.86490  0.35460  0.64030  Biso   1.000  C
  H79      1.0000 0.86240  0.39610  0.65130  Biso   1.000  H
  C96      1.0000 0.82650  0.37110  0.60237  Biso   1.000  C
  C97      1.0000 0.82110  0.31330  0.58922  Biso   1.000  C
  H80      1.0000 0.78800  0.32600  0.56600  Biso   1.000  H
  C98      1.0000 0.86580  0.23320  0.61074  Biso   1.000  C
  H81      1.0000 0.86460  0.19190  0.60150  Biso   1.000  H
  C99      1.0000 0.78160  0.45330  0.57886  Biso   1.000  C
  C100     1.0000 0.94140  0.08270  0.91572  Biso   1.000  C
  C101     1.0000 0.01810  0.05540  0.90621  Biso   1.000  C
  C102     1.0000 0.07200  0.97930  0.92214  Biso   1.000  C
  C103     1.0000 0.04780  0.93100  0.95178  Biso   1.000  C
  C104     1.0000 0.96910  0.96000  0.96302  Biso   1.000  C
  C105     1.0000 0.91420  0.03410  0.94443  Biso   1.000  C
  C106     1.0000 0.04600  0.11280  0.87946  Biso   1.000  C
  H82      1.0000 0.10280  0.08470  0.87510  Biso   1.000  H
  H83      1.0000 0.01980  0.13520  0.85160  Biso   1.000  H
  H84      1.0000 0.03320  0.15480  0.89460  Biso   1.000  H
  C107     1.0000 0.10800  0.84710  0.97252  Biso   1.000  C
  H85      1.0000 0.16030  0.83620  0.96110  Biso   1.000  H
  H86      1.0000 0.10790  0.84230  0.00360  Biso   1.000  H
  H87      1.0000 0.09400  0.80960  0.96600  Biso   1.000  H
  C108     1.0000 0.82670  0.06140  0.95497  Biso   1.000  C
  H88      1.0000 0.79540  0.11510  0.93930  Biso   1.000  H
  H89      1.0000 0.81080  0.02680  0.94650  Biso   1.000  H
  H90      1.0000 0.81820  0.05980  0.98580  Biso   1.000  H
  C109     1.0000 0.88210  0.16590  0.89609  Biso   1.000  C
  H91      1.0000 0.89530  0.18040  0.86580  Biso   1.000  H
  H92      1.0000 0.82870  0.17150  0.89750  Biso   1.000  H
  C110     1.0000 0.84690  0.29420  0.90730  Biso   1.000  C
  C111     1.0000 0.79530  0.32940  0.87324  Biso   1.000  C
  H93      1.0000 0.78600  0.29910  0.85800  Biso   1.000  H
  C112     1.0000 0.75840  0.40910  0.86227  Biso   1.000  C
  H94      1.0000 0.72330  0.43380  0.83870  Biso   1.000  H
  C113     1.0000 0.76930  0.45460  0.88323  Biso   1.000  C
  C114     1.0000 0.81770  0.41930  0.91820  Biso   1.000  C
  H95      1.0000 0.82280  0.45090  0.93450  Biso   1.000  H
  C115     1.0000 0.85930  0.33890  0.93027  Biso   1.000  C
  H96      1.0000 0.89510  0.31470  0.95340  Biso   1.000  H
  C116     1.0000 0.72380  0.54310  0.87187  Biso   1.000  C
  C117     1.0000 0.15420  0.94730  0.90579  Biso   1.000  C
  H97      1.0000 0.17530  0.89150  0.90490  Biso   1.000  H
  H98      1.0000 0.15550  0.97610  0.87640  Biso   1.000  H
  C118     1.0000 0.28040  0.90610  0.93435  Biso   1.000  C
  C119     1.0000 0.32290  0.90890  0.96518  Biso   1.000  C
  H99      1.0000 0.29700  0.94660  0.98280  Biso   1.000  H
  C120     1.0000 0.39900  0.85990  0.97047  Biso   1.000  C
  H100     1.0000 0.42580  0.86140  0.99290  Biso   1.000  H
  C121     1.0000 0.44140  0.80530  0.94333  Biso   1.000  C
  C122     1.0000 0.39950  0.80570  0.91123  Biso   1.000  C
  H101     1.0000 0.42600  0.77140  0.89180  Biso   1.000  H
  C123     1.0000 0.31930  0.85530  0.90680  Biso   1.000  C
  H102     1.0000 0.29140  0.85420  0.88480  Biso   1.000  H
  C124     1.0000 0.52440  0.74910  0.95020  Biso   1.000  C
  C125     1.0000 0.94400  0.90990  0.99657  Biso   1.000  C
  H103     1.0000 0.98740  0.87320  0.01680  Biso   1.000  H
  H104     1.0000 0.89870  0.94300  0.01290  Biso   1.000  H
  C126     1.0000 0.87630  0.83570  0.99440  Biso   1.000  C
  C127     1.0000 0.85030  0.83970  0.03696  Biso   1.000  C
  H105     1.0000 0.86590  0.86300  0.05400  Biso   1.000  H
  C128     1.0000 0.79980  0.80720  0.05306  Biso   1.000  C
  H106     1.0000 0.78200  0.80810  0.08180  Biso   1.000  H
  C129     1.0000 0.77580  0.77500  0.02896  Biso   1.000  C
  C130     1.0000 0.80240  0.77340  0.98714  Biso   1.000  C
  H107     1.0000 0.78650  0.75040  0.97000  Biso   1.000  H
  C131     1.0000 0.85140  0.80430  0.96985  Biso   1.000  C
  H108     1.0000 0.86780  0.80370  0.94090  Biso   1.000  H
  C132     1.0000 0.71970  0.74450  0.04662  Biso   1.000  C
  Ba10     1.0000 0.44209  0.25974  0.93034  Biso   1.000  Ba
  Ba11     1.0000 0.29171  0.31348  0.83070  Biso   1.000  Ba
  Ba12     1.0000 0.38986  0.33493  0.70371  Biso   1.000  Ba
  Ba13     1.0000 0.31022  0.28289  0.60366  Biso   1.000  Ba
  Ba14     1.0000 0.33591  0.37914  0.47704  Biso   1.000  Ba
  Ba15     1.0000 0.22306  0.38500  0.36961  Biso   1.000  Ba
  Ba16     1.0000 0.34477  0.39805  0.24769  Biso   1.000  Ba
  Ba17     1.0000 0.36122  0.27424  0.15695  Biso   1.000  Ba
  Ba18     1.0000 0.29957  0.38530  0.02355  Biso   1.000  Ba
  O55      1.0000 0.80649  0.05310  0.80132  Biso   1.000  O
  O56      1.0000 0.12102  0.75685  0.83971  Biso   1.000  O
  O57      1.0000 0.08916  0.11038  0.77961  Biso   1.000  O
  O58      1.0000 0.43753  0.25823  0.78328  Biso   1.000  O
  O59      1.0000 0.44833  0.22555  0.85318  Biso   1.000  O
  O60      1.0000 0.26729  0.30936  0.74905  Biso   1.000  O
  O61      1.0000 0.30473  0.26030  0.68947  Biso   1.000  O
  O62      1.0000 0.34667  0.41432  0.93913  Biso   1.000  O
  O63      1.0000 0.32606  0.39201  0.87818  Biso   1.000  O
  O64      1.0000 0.13368  0.77913  0.57077  Biso   1.000  O
  O65      1.0000 0.05783  0.13043  0.54438  Biso   1.000  O
  O66      1.0000 0.79600  0.02618  0.55364  Biso   1.000  O
  O67      1.0000 0.32340  0.40819  0.62576  Biso   1.000  O
  O68      1.0000 0.30114  0.42431  0.55712  Biso   1.000  O
  O69      1.0000 0.23565  0.32635  0.52655  Biso   1.000  O
  O70      1.0000 0.22912  0.33034  0.45755  Biso   1.000  O
  O71      1.0000 0.42620  0.25733  0.54611  Biso   1.000  O
  O72      1.0000 0.44820  0.21683  0.48552  Biso   1.000  O
  O73      1.0000 0.73655  0.16612  0.34533  Biso   1.000  O
  O74      1.0000 0.00382  0.21550  0.27936  Biso   1.000  O
  O75      1.0000 0.04609  0.85562  0.33143  Biso   1.000  O
  O76      1.0000 0.36647  0.34077  0.33129  Biso   1.000  O
  O77      1.0000 0.37801  0.34339  0.39897  Biso   1.000  O
  O78      1.0000 0.26992  0.31626  0.22670  Biso   1.000  O
  O79      1.0000 0.22626  0.35931  0.28732  Biso   1.000  O
  O80      1.0000 0.26780  0.53398  0.45000  Biso   1.000  O
  O81      1.0000 0.21742  0.49126  0.40992  Biso   1.000  O
  O82      1.0000 0.11266  0.78554  0.07809  Biso   1.000  O
  O83      1.0000 0.79906  0.04442  0.06638  Biso   1.000  O
  O84      1.0000 0.07705  0.13265  0.02560  Biso   1.000  O
  O85      1.0000 0.31703  0.42757  0.16176  Biso   1.000  O
  O86      1.0000 0.27172  0.41828  0.10479  Biso   1.000  O
  O87      1.0000 0.43400  0.28223  0.07934  Biso   1.000  O
  O88      1.0000 0.44849  0.26636  0.01268  Biso   1.000  O
  O89      1.0000 0.30647  0.24838  0.91621  Biso   1.000  O
  O90      1.0000 0.30250  0.28281  0.97776  Biso   1.000  O
  O91      1.0000 0.54470  0.31399  0.88205  Biso   1.000  O
  O92      1.0000 0.67360  0.25700  0.88206  Biso   1.000  O
  O93      1.0000 0.60990  0.20812  0.92943  Biso   1.000  O
  O94      1.0000 0.28350  0.43760  0.76952  Biso   1.000  O
  O95      1.0000 0.33190  0.48617  0.71393  Biso   1.000  O
  O96      1.0000 0.22280  0.56400  0.74442  Biso   1.000  O
  O97      1.0000 0.50280  0.16080  0.70583  Biso   1.000  O
  O98      1.0000 0.47760  0.11430  0.65529  Biso   1.000  O
  O99      1.0000 0.45970  0.23360  0.64686  Biso   1.000  O
  O100     1.0000 0.22220  0.50320  0.29954  Biso   1.000  O
  O101     1.0000 0.20000  0.53770  0.23320  Biso   1.000  O
  O102     1.0000 0.10810  0.60080  0.27026  Biso   1.000  O
  O103     1.0000 0.51800  0.20459  0.17917  Biso   1.000  O
  O104     1.0000 0.44110  0.24051  0.23432  Biso   1.000  O
  O105     1.0000 0.57040  0.16170  0.24208  Biso   1.000  O
  O106     1.0000 0.17060  0.36240  0.06902  Biso   1.000  O
  O107     1.0000 0.28460  0.26824  0.09075  Biso   1.000  O
  O108     1.0000 0.18980  0.29760  0.13343  Biso   1.000  O
  N7       1.0000 0.60900  0.26080  0.89938  Biso   1.000  N
  N8       1.0000 0.28190  0.49420  0.74260  Biso   1.000  N
  N9       1.0000 0.48980  0.16470  0.66613  Biso   1.000  N
  N10      1.0000 0.17600  0.54140  0.27220  Biso   1.000  N
  N11      1.0000 0.51000  0.20270  0.21855  Biso   1.000  N
  N12      1.0000 0.21340  0.31000  0.09638  Biso   1.000  N
  C133     1.0000 0.93820  0.00540  0.82307  Biso   1.000  C
  C134     1.0000 0.98600  0.92860  0.84181  Biso   1.000  C
  C135     1.0000 0.06330  0.89520  0.83587  Biso   1.000  C
  C136     1.0000 0.09810  0.93710  0.80882  Biso   1.000  C
  C137     1.0000 0.05180  0.01200  0.78749  Biso   1.000  C
  C138     1.0000 0.97090  0.04860  0.79587  Biso   1.000  C
  C139     1.0000 0.94990  0.87660  0.86693  Biso   1.000  C
  H109     1.0000 0.89300  0.90860  0.86890  Biso   1.000  H
  H110     1.0000 0.97210  0.85390  0.89580  Biso   1.000  H
  H111     1.0000 0.96180  0.83450  0.85200  Biso   1.000  H
  C140     1.0000 0.18660  0.89930  0.80057  Biso   1.000  C
  H112     1.0000 0.21190  0.84620  0.81790  Biso   1.000  H
  H113     1.0000 0.20770  0.93050  0.80830  Biso   1.000  H
  H114     1.0000 0.19690  0.89700  0.77020  Biso   1.000  H
  C141     1.0000 0.91830  0.13250  0.77487  Biso   1.000  C
  H115     1.0000 0.94990  0.15420  0.75700  Biso   1.000  H
  H116     1.0000 0.89120  0.16330  0.79700  Biso   1.000  H
  H117     1.0000 0.87970  0.13440  0.75700  Biso   1.000  H
  C142     1.0000 0.85360  0.04430  0.83505  Biso   1.000  C
  H118     1.0000 0.83860  0.09630  0.84090  Biso   1.000  H
  H119     1.0000 0.84440  0.01250  0.86150  Biso   1.000  H
  C143     1.0000 0.72870  0.09260  0.80644  Biso   1.000  C
  C144     1.0000 0.68370  0.12340  0.77051  Biso   1.000  C
  H120     1.0000 0.70800  0.11490  0.74350  Biso   1.000  H
  C145     1.0000 0.60320  0.16670  0.77305  Biso   1.000  C
  H121     1.0000 0.57370  0.19150  0.74730  Biso   1.000  H
  C146     1.0000 0.56350  0.17540  0.81239  Biso   1.000  C
  C147     1.0000 0.61060  0.13900  0.84791  Biso   1.000  C
  H122     1.0000 0.58620  0.14050  0.87530  Biso   1.000  H
  C148     1.0000 0.69100  0.10040  0.84616  Biso   1.000  C
  H123     1.0000 0.72080  0.07920  0.87170  Biso   1.000  H
  C149     1.0000 0.47900  0.22230  0.81651  Biso   1.000  C
  C150     1.0000 0.08530  0.05730  0.75679  Biso   1.000  C
  H124     1.0000 0.05140  0.08700  0.73130  Biso   1.000  H
  H125     1.0000 0.13820  0.02160  0.74740  Biso   1.000  H
  C151     1.0000 0.12840  0.15100  0.76270  Biso   1.000  C
  C152     1.0000 0.17940  0.13430  0.72681  Biso   1.000  C
  H126     1.0000 0.18250  0.09810  0.71100  Biso   1.000  H
  C153     1.0000 0.22440  0.17240  0.71553  Biso   1.000  C
  H127     1.0000 0.26240  0.15850  0.69340  Biso   1.000  H
  C154     1.0000 0.21490  0.22980  0.73597  Biso   1.000  C
  C155     1.0000 0.16290  0.24560  0.77065  Biso   1.000  C
  H128     1.0000 0.15790  0.28350  0.78570  Biso   1.000  H
  C156     1.0000 0.11890  0.20740  0.78338  Biso   1.000  C
  H129     1.0000 0.08240  0.22020  0.80630  Biso   1.000  H
  C157     1.0000 0.26510  0.27050  0.72402  Biso   1.000  C
  C158     1.0000 0.11550  0.81400  0.86213  Biso   1.000  C
  H130     1.0000 0.09250  0.80720  0.89090  Biso   1.000  H
  H131     1.0000 0.16820  0.80780  0.86550  Biso   1.000  H
  C159     1.0000 0.16470  0.68050  0.85852  Biso   1.000  C
  C160     1.0000 0.20560  0.65490  0.89701  Biso   1.000  C
  H132     1.0000 0.20190  0.69160  0.91260  Biso   1.000  H
  C161     1.0000 0.25180  0.57490  0.91218  Biso   1.000  C
  H133     1.0000 0.27870  0.55700  0.93860  Biso   1.000  H
  C162     1.0000 0.25850  0.52190  0.88912  Biso   1.000  C
  C163     1.0000 0.21720  0.54870  0.85032  Biso   1.000  C
  H134     1.0000 0.22150  0.51280  0.83390  Biso   1.000  H
  C164     1.0000 0.17110  0.62660  0.83692  Biso   1.000  C
  H135     1.0000 0.14210  0.64440  0.81130  Biso   1.000  H
  C165     1.0000 0.31320  0.43550  0.90347  Biso   1.000  C
  C166     1.0000 0.05390  0.90210  0.58805  Biso   1.000  C
  C167     1.0000 0.08000  0.95320  0.56370  Biso   1.000  C
  C168     1.0000 0.02690  0.02860  0.54359  Biso   1.000  C
  C169     1.0000 0.94990  0.05230  0.55013  Biso   1.000  C
  C170     1.0000 0.92100  0.00300  0.57436  Biso   1.000  C
  C171     1.0000 0.97580  0.92530  0.59284  Biso   1.000  C
  C172     1.0000 0.16910  0.92550  0.55907  Biso   1.000  C
  H136     1.0000 0.19800  0.87160  0.57500  Biso   1.000  H
  H137     1.0000 0.18180  0.95960  0.57050  Biso   1.000  H
  H138     1.0000 0.18390  0.92760  0.52880  Biso   1.000  H
  C173     1.0000 0.88820  0.13480  0.52863  Biso   1.000  C
  H139     1.0000 0.83560  0.14170  0.53700  Biso   1.000  H
  H140     1.0000 0.89380  0.14080  0.49750  Biso   1.000  H
  H141     1.0000 0.89590  0.17430  0.53780  Biso   1.000  H
  C174     1.0000 0.94760  0.86890  0.61479  Biso   1.000  C
  H142     1.0000 0.89020  0.89570  0.61530  Biso   1.000  H
  H143     1.0000 0.96740  0.84780  0.64420  Biso   1.000  H
  H144     1.0000 0.96660  0.82600  0.59940  Biso   1.000  H
  C175     1.0000 0.11470  0.81860  0.60566  Biso   1.000  C
  H145     1.0000 0.09300  0.79400  0.63000  Biso   1.000  H
  H146     1.0000 0.16170  0.81730  0.61540  Biso   1.000  H
  C176     1.0000 0.18130  0.69860  0.57810  Biso   1.000  C
  C177     1.0000 0.20910  0.65140  0.61676  Biso   1.000  C
  H147     1.0000 0.20070  0.67320  0.64140  Biso   1.000  H
  C178     1.0000 0.24970  0.57170  0.61977  Biso   1.000  C
  H148     1.0000 0.27090  0.53930  0.64670  Biso   1.000  H
  C179     1.0000 0.26080  0.53650  0.58530  Biso   1.000  C
  C180     1.0000 0.23140  0.58660  0.54548  Biso   1.000  C
  H149     1.0000 0.23840  0.56560  0.52070  Biso   1.000  H
  C181     1.0000 0.19240  0.66650  0.54283  Biso   1.000  C
  H150     1.0000 0.17280  0.70000  0.51590  Biso   1.000  H
  C182     1.0000 0.29770  0.45130  0.58931  Biso   1.000  C
  C183     1.0000 0.05340  0.08450  0.51676  Biso   1.000  C
  H151     1.0000 0.01580  0.11920  0.49330  Biso   1.000  H
  H152     1.0000 0.10540  0.05520  0.50400  Biso   1.000  H
  C184     1.0000 0.09210  0.17580  0.52954  Biso   1.000  C
  C185     1.0000 0.12230  0.18440  0.48885  Biso   1.000  C
  H153     1.0000 0.11960  0.15770  0.46860  Biso   1.000  H
  C186     1.0000 0.15760  0.23420  0.47769  Biso   1.000  C
  H154     1.0000 0.17600  0.24280  0.44930  Biso   1.000  H
  C187     1.0000 0.16550  0.27010  0.50731  Biso   1.000  C
  C188     1.0000 0.13450  0.25880  0.54813  Biso   1.000  C
  H155     1.0000 0.13830  0.28380  0.56900  Biso   1.000  H
  C189     1.0000 0.09940  0.21310  0.55861  Biso   1.000  C
  H156     1.0000 0.07910  0.20660  0.58670  Biso   1.000  H
  C190     1.0000 0.21400  0.31180  0.49619  Biso   1.000  C
  C191     1.0000 0.82950  0.03620  0.58853  Biso   1.000  C
  H157     1.0000 0.80530  0.09190  0.59050  Biso   1.000  H
  H158     1.0000 0.82350  0.00540  0.61630  Biso   1.000  H
  C192     1.0000 0.71410  0.07190  0.54954  Biso   1.000  C
  C193     1.0000 0.68320  0.06810  0.51388  Biso   1.000  C
  H159     1.0000 0.71710  0.03370  0.49580  Biso   1.000  H
  C194     1.0000 0.60220  0.11420  0.50366  Biso   1.000  C
  H160     1.0000 0.58100  0.11220  0.47910  Biso   1.000  H
  C195     1.0000 0.55590  0.16250  0.53204  Biso   1.000  C
  C196     1.0000 0.59020  0.15990  0.57078  Biso   1.000  C
  H161     1.0000 0.55680  0.18900  0.59120  Biso   1.000  H
  C197     1.0000 0.67250  0.11490  0.57908  Biso   1.000  C
  H162     1.0000 0.69580  0.11530  0.60330  Biso   1.000  H
  C198     1.0000 0.46810  0.21440  0.51956  Biso   1.000  C
  C199     1.0000 0.85470  0.10310  0.30619  Biso   1.000  C
  C200     1.0000 0.90400  0.02590  0.32729  Biso   1.000  C
  C201     1.0000 0.98270  0.99680  0.32383  Biso   1.000  C
  C202     1.0000 0.01610  0.04040  0.29861  Biso   1.000  C
  C203     1.0000 0.96880  0.11590  0.27903  Biso   1.000  C
  C204     1.0000 0.88600  0.15070  0.28427  Biso   1.000  C
  C205     1.0000 0.86630  0.97600  0.35301  Biso   1.000  C
  H163     1.0000 0.80920  0.00730  0.35170  Biso   1.000  H
  H164     1.0000 0.88330  0.95940  0.38290  Biso   1.000  H
  H165     1.0000 0.88280  0.92980  0.34070  Biso   1.000  H
  C206     1.0000 0.10380  0.00440  0.29214  Biso   1.000  C
  H166     1.0000 0.12880  0.95040  0.30830  Biso   1.000  H
  H167     1.0000 0.12350  0.03470  0.30220  Biso   1.000  H
  H168     1.0000 0.11610  0.00480  0.26160  Biso   1.000  H
  C207     1.0000 0.83480  0.23570  0.26724  Biso   1.000  C
  H169     1.0000 0.86710  0.25950  0.25280  Biso   1.000  H
  H170     1.0000 0.80600  0.26150  0.29090  Biso   1.000  H
  H171     1.0000 0.79750  0.24190  0.24680  Biso   1.000  H
  C208     1.0000 0.76780  0.13520  0.30722  Biso   1.000  C
  H172     1.0000 0.75460  0.09330  0.30670  Biso   1.000  H
  H173     1.0000 0.74430  0.17710  0.28170  Biso   1.000  H
  C209     1.0000 0.65610  0.20530  0.34795  Biso   1.000  C
  C210     1.0000 0.60670  0.21030  0.31783  Biso   1.000  C
  H174     1.0000 0.62770  0.18700  0.29350  Biso   1.000  H
  C211     1.0000 0.52680  0.24990  0.32407  Biso   1.000  C
  H175     1.0000 0.49300  0.25520  0.30310  Biso   1.000  H
  C212     1.0000 0.49440  0.28190  0.35956  Biso   1.000  C
  C213     1.0000 0.54460  0.27050  0.39028  Biso   1.000  C
  H176     1.0000 0.52350  0.28840  0.41610  Biso   1.000  H
  C214     1.0000 0.62370  0.23420  0.38473  Biso   1.000  C
  H177     1.0000 0.65680  0.22860  0.40620  Biso   1.000  H
  C215     1.0000 0.40850  0.32520  0.36310  Biso   1.000  C
  C216     1.0000 0.00130  0.16840  0.25292  Biso   1.000  C
  H178     1.0000 0.96750  0.20210  0.22780  Biso   1.000  H
  H179     1.0000 0.05460  0.13610  0.24250  Biso   1.000  H
  C217     1.0000 0.05600  0.24450  0.27056  Biso   1.000  C
  C218     1.0000 0.05760  0.28340  0.30030  Biso   1.000  C
  H180     1.0000 0.02190  0.29110  0.32370  Biso   1.000  H
  C219     1.0000 0.11110  0.31130  0.29617  Biso   1.000  C
  H181     1.0000 0.11150  0.33890  0.31650  Biso   1.000  H
  C220     1.0000 0.16420  0.29900  0.26230  Biso   1.000  C
  C221     1.0000 0.16020  0.26190  0.23270  Biso   1.000  C
  H182     1.0000 0.19540  0.25500  0.20910  Biso   1.000  H
  C222     1.0000 0.10640  0.23380  0.23563  Biso   1.000  C
  H183     1.0000 0.10430  0.20830  0.21450  Biso   1.000  H
  C223     1.0000 0.22360  0.32740  0.25860  Biso   1.000  C
  C224     1.0000 0.03200  0.91860  0.35195  Biso   1.000  C
  H184     1.0000 0.00490  0.91390  0.37960  Biso   1.000  H
  H185     1.0000 0.08270  0.91470  0.35780  Biso   1.000  H
  C225     1.0000 0.08860  0.78160  0.35393  Biso   1.000  C
  C226     1.0000 0.09300  0.72250  0.33786  Biso   1.000  C
  H186     1.0000 0.06750  0.73360  0.31180  Biso   1.000  H
  C227     1.0000 0.13510  0.64540  0.35970  Biso   1.000  C
  H187     1.0000 0.13760  0.60390  0.34870  Biso   1.000  H
  C228     1.0000 0.17350  0.62890  0.39763  Biso   1.000  C
  C229     1.0000 0.17890  0.68670  0.41078  Biso   1.000  C
  H188     1.0000 0.21200  0.67400  0.43400  Biso   1.000  H
  C230     1.0000 0.13420  0.76680  0.38926  Biso   1.000  C
  H189     1.0000 0.13540  0.80810  0.39850  Biso   1.000  H
  C231     1.0000 0.21840  0.54670  0.42114  Biso   1.000  C
  C232     1.0000 0.05860  0.91730  0.08428  Biso   1.000  C
  C233     1.0000 0.98190  0.94460  0.09379  Biso   1.000  C
  C234     1.0000 0.92800  0.02070  0.07786  Biso   1.000  C
  C235     1.0000 0.95220  0.06900  0.04822  Biso   1.000  C
  C236     1.0000 0.03090  0.04000  0.03698  Biso   1.000  C
  C237     1.0000 0.08580  0.96590  0.05557  Biso   1.000  C
  C238     1.0000 0.95400  0.88720  0.12054  Biso   1.000  C
  H190     1.0000 0.89720  0.91530  0.12490  Biso   1.000  H
  H191     1.0000 0.98020  0.86480  0.14840  Biso   1.000  H
  H192     1.0000 0.96680  0.84520  0.10540  Biso   1.000  H
  C239     1.0000 0.89200  0.15290  0.02748  Biso   1.000  C
  H193     1.0000 0.83970  0.16380  0.03890  Biso   1.000  H
  H194     1.0000 0.89210  0.15770  0.99640  Biso   1.000  H
  H195     1.0000 0.90600  0.19040  0.03400  Biso   1.000  H
  C240     1.0000 0.17330  0.93860  0.04503  Biso   1.000  C
  H196     1.0000 0.20460  0.88490  0.06070  Biso   1.000  H
  H197     1.0000 0.18920  0.97320  0.05350  Biso   1.000  H
  H198     1.0000 0.18180  0.94020  0.01420  Biso   1.000  H
  C241     1.0000 0.11790  0.83410  0.10391  Biso   1.000  C
  H199     1.0000 0.10470  0.81960  0.13420  Biso   1.000  H
  H200     1.0000 0.17130  0.82850  0.10250  Biso   1.000  H
  C242     1.0000 0.15310  0.70580  0.09270  Biso   1.000  C
  C243     1.0000 0.20470  0.67060  0.12676  Biso   1.000  C
  H201     1.0000 0.21400  0.70090  0.14200  Biso   1.000  H
  C244     1.0000 0.24160  0.59090  0.13773  Biso   1.000  C
  H202     1.0000 0.27670  0.56620  0.16130  Biso   1.000  H
  C245     1.0000 0.23070  0.54540  0.11677  Biso   1.000  C
  C246     1.0000 0.18230  0.58070  0.08180  Biso   1.000  C
  H203     1.0000 0.17720  0.54910  0.06550  Biso   1.000  H
  C247     1.0000 0.14070  0.66110  0.06973  Biso   1.000  C
  H204     1.0000 0.10490  0.68530  0.04660  Biso   1.000  H
  C248     1.0000 0.27620  0.45690  0.12813  Biso   1.000  C
  C249     1.0000 0.84580  0.05270  0.09421  Biso   1.000  C
  H205     1.0000 0.82470  0.10850  0.09510  Biso   1.000  H
  H206     1.0000 0.84450  0.02390  0.12360  Biso   1.000  H
  C250     1.0000 0.71960  0.09390  0.06565  Biso   1.000  C
  C251     1.0000 0.67710  0.09110  0.03482  Biso   1.000  C
  H207     1.0000 0.70300  0.05340  0.01720  Biso   1.000  H
  C252     1.0000 0.60100  0.14010  0.02953  Biso   1.000  C
  H208     1.0000 0.57420  0.13860  0.00710  Biso   1.000  H
  C253     1.0000 0.55860  0.19470  0.05667  Biso   1.000  C
  C254     1.0000 0.60050  0.19430  0.08877  Biso   1.000  C
  H209     1.0000 0.57400  0.22860  0.10820  Biso   1.000  H
  C255     1.0000 0.68070  0.14470  0.09320  Biso   1.000  C
  H210     1.0000 0.70860  0.14580  0.11520  Biso   1.000  H
  C256     1.0000 0.47560  0.25090  0.04980  Biso   1.000  C
  C257     1.0000 0.05600  0.09010  0.00343  Biso   1.000  C
  H211     1.0000 0.01260  0.12680  0.98320  Biso   1.000  H
  H212     1.0000 0.10130  0.05700  0.98710  Biso   1.000  H
  C258     1.0000 0.12370  0.16430  0.00560  Biso   1.000  C
  C259     1.0000 0.14970  0.16030  0.96304  Biso   1.000  C
  H213     1.0000 0.13410  0.13700  0.94600  Biso   1.000  H
  C260     1.0000 0.20020  0.19280  0.94694  Biso   1.000  C
  H214     1.0000 0.21800  0.19190  0.91820  Biso   1.000  H
  C261     1.0000 0.22420  0.22500  0.97104  Biso   1.000  C
  C262     1.0000 0.19760  0.22660  0.01286  Biso   1.000  C
  H215     1.0000 0.21350  0.24960  0.03000  Biso   1.000  H
  C263     1.0000 0.14860  0.19570  0.03015  Biso   1.000  C
  H216     1.0000 0.13220  0.19630  0.05910  Biso   1.000  H
  C264     1.0000 0.28030  0.25550  0.95338  Biso   1.000  C
