data_image0
_cell_length_a       15.547
_cell_length_b       20.203
_cell_length_c       20.451
_cell_angle_alpha    118.19
_cell_angle_beta     95.92
_cell_angle_gamma    103.52

_symmetry_space_group_name_H-M    "P 1"
_symmetry_int_tables_number       1

loop_
  _symmetry_equiv_pos_as_xyz
  'x, y, z'

loop_
  _atom_site_label
  _atom_site_occupancy
  _atom_site_fract_x
  _atom_site_fract_y
  _atom_site_fract_z
  _atom_site_thermal_displace_type
  _atom_site_B_iso_or_equiv
  _atom_site_type_symbol
  Ca1      1.0000 0.14348  0.12290  0.75551  Biso   1.000  Ca
  Ca2      1.0000 0.90988  0.18249  0.80093  Biso   1.000  Ca
  Ca3      1.0000 0.32898  0.17463  0.91040  Biso   1.000  Ca
  Ca4      1.0000 0.52844  0.14350  0.84886  Biso   1.000  Ca
  O1       1.0000 0.70330  0.69470  0.63460  Biso   1.000  O
  O2       1.0000 0.89850  0.05340  0.72720  Biso   1.000  O
  O3       1.0000 0.01910  0.01040  0.71460  Biso   1.000  O
  O4       1.0000 0.58430  0.33520  0.33370  Biso   1.000  O
  O5       1.0000 0.60490  0.17040  0.98360  Biso   1.000  O
  O6       1.0000 0.47960  0.20300  0.97230  Biso   1.000  O
  O7       1.0000 0.48150  0.38560  0.64060  Biso   1.000  O
  O8       1.0000 0.28870  0.22440  0.81540  Biso   1.000  O
  O9       1.0000 0.42970  0.21770  0.84270  Biso   1.000  O
  O10      1.0000 0.09630  0.36480  0.51040  Biso   1.000  O
  O11      1.0000 0.96770  0.22690  0.72400  Biso   1.000  O
  O12      1.0000 0.08960  0.18750  0.70170  Biso   1.000  O
  O13      1.0000 0.10350  0.35670  0.22610  Biso   1.000  O
  O14      1.0000 0.06010  0.20190  0.86110  Biso   1.000  O
  O15      1.0000 0.17200  0.16420  0.89420  Biso   1.000  O
  O16      1.0000 0.18630  0.69960  0.53060  Biso   1.000  O
  O17      1.0000 0.24300  0.05720  0.78440  Biso   1.000  O
  O18      1.0000 0.37820  0.05110  0.82280  Biso   1.000  O
  O19      1.0000 0.84770  0.14110  0.88580  Biso   1.000  O
  O20      1.0000 0.65270  0.25260  0.87490  Biso   1.000  O
  C1       1.0000 0.66540  0.54940  0.57150  Biso   1.000  C
  C2       1.0000 0.62790  0.50630  0.49220  Biso   1.000  C
  C3       1.0000 0.56870  0.42690  0.45800  Biso   1.000  C
  C4       1.0000 0.55020  0.39090  0.50070  Biso   1.000  C
  C5       1.0000 0.58830  0.43530  0.58170  Biso   1.000  C
  C6       1.0000 0.63990  0.51500  0.61650  Biso   1.000  C
  C7       1.0000 0.66800  0.56640  0.70480  Biso   1.000  C
  H1       1.0000 0.70460  0.62050  0.72060  Biso   1.000  H
  H2       1.0000 0.70410  0.54370  0.72560  Biso   1.000  H
  H3       1.0000 0.61310  0.56770  0.72440  Biso   1.000  H
  C8       1.0000 0.65290  0.54590  0.44560  Biso   1.000  C
  H4       1.0000 0.62200  0.50850  0.39140  Biso   1.000  H
  H5       1.0000 0.71920  0.56140  0.45180  Biso   1.000  H
  H6       1.0000 0.63350  0.59300  0.46390  Biso   1.000  H
  C9       1.0000 0.49450  0.30190  0.46140  Biso   1.000  C
  H7       1.0000 0.48690  0.28750  0.50050  Biso   1.000  H
  H8       1.0000 0.52700  0.27000  0.42710  Biso   1.000  H
  H9       1.0000 0.43440  0.29170  0.43180  Biso   1.000  H
  C10      1.0000 0.74130  0.62830  0.60830  Biso   1.000  C
  H10      1.0000 0.78360  0.63520  0.65240  Biso   1.000  H
  H11      1.0000 0.77650  0.62870  0.57070  Biso   1.000  H
  C11      1.0000 0.76310  0.76600  0.65120  Biso   1.000  C
  C12      1.0000 0.73230  0.83010  0.68430  Biso   1.000  C
  H12      1.0000 0.67380  0.82290  0.69490  Biso   1.000  H
  C13      1.0000 0.78580  0.90630  0.70290  Biso   1.000  C
  H13      1.0000 0.76130  0.94890  0.72170  Biso   1.000  H
  C14      1.0000 0.87780  0.91950  0.69340  Biso   1.000  C
  C15      1.0000 0.90780  0.85350  0.66230  Biso   1.000  C
  H14      1.0000 0.96750  0.86030  0.65420  Biso   1.000  H
  C16      1.0000 0.85310  0.77780  0.64240  Biso   1.000  C
  H15      1.0000 0.87660  0.73470  0.62320  Biso   1.000  H
  C17      1.0000 0.93500  0.00120  0.71600  Biso   1.000  C
  C18      1.0000 0.52690  0.38050  0.37170  Biso   1.000  C
  H16      1.0000 0.46460  0.34440  0.35970  Biso   1.000  H
  H17      1.0000 0.52240  0.41760  0.35380  Biso   1.000  H
  C19      1.0000 0.56650  0.30000  0.25490  Biso   1.000  C
  C20      1.0000 0.62680  0.26090  0.21950  Biso   1.000  C
  H18      1.0000 0.67270  0.25590  0.24970  Biso   1.000  H
  C21      1.0000 0.62160  0.22980  0.14320  Biso   1.000  C
  H19      1.0000 0.66480  0.20510  0.12180  Biso   1.000  H
  C22      1.0000 0.55440  0.23370  0.09600  Biso   1.000  C
  C23      1.0000 0.49010  0.27040  0.13190  Biso   1.000  C
  H20      1.0000 0.44180  0.27300  0.10180  Biso   1.000  H
  C24      1.0000 0.49760  0.30240  0.21090  Biso   1.000  C
  H21      1.0000 0.45400  0.32570  0.23340  Biso   1.000  H
  C25      1.0000 0.54200  0.19830  0.01190  Biso   1.000  C
  C26      1.0000 0.57500  0.39640  0.63030  Biso   1.000  C
  H22      1.0000 0.58520  0.34440  0.60440  Biso   1.000  H
  H23      1.0000 0.61970  0.43040  0.68080  Biso   1.000  H
  C27      1.0000 0.45970  0.34750  0.68080  Biso   1.000  C
  C28      1.0000 0.51910  0.32050  0.71000  Biso   1.000  C
  H24      1.0000 0.57820  0.32460  0.70060  Biso   1.000  H
  C29      1.0000 0.48960  0.28660  0.75450  Biso   1.000  C
  H25      1.0000 0.53070  0.27180  0.77840  Biso   1.000  H
  C30      1.0000 0.40090  0.27540  0.76260  Biso   1.000  C
  C31      1.0000 0.34060  0.29760  0.72970  Biso   1.000  C
  H26      1.0000 0.28000  0.29020  0.73590  Biso   1.000  H
  C32      1.0000 0.37060  0.33150  0.68650  Biso   1.000  C
  H27      1.0000 0.32820  0.34370  0.66060  Biso   1.000  H
  C33      1.0000 0.37130  0.23540  0.80980  Biso   1.000  C
  C34      1.0000 0.07600  0.44550  0.45740  Biso   1.000  C
  C35      1.0000 0.04880  0.40980  0.37860  Biso   1.000  C
  C36      1.0000 0.08110  0.45200  0.34100  Biso   1.000  C
  C37      1.0000 0.14620  0.53050  0.38590  Biso   1.000  C
  C38      1.0000 0.17660  0.56450  0.46480  Biso   1.000  C
  C39      1.0000 0.14220  0.52230  0.50160  Biso   1.000  C
  C40      1.0000 0.98190  0.32360  0.32890  Biso   1.000  C
  H28      1.0000 0.97110  0.30780  0.27470  Biso   1.000  H
  H29      1.0000 0.92380  0.32080  0.34380  Biso   1.000  H
  H30      1.0000 0.00850  0.28770  0.33680  Biso   1.000  H
  C41      1.0000 0.17600  0.57430  0.34320  Biso   1.000  C
  H31      1.0000 0.21980  0.62710  0.37970  Biso   1.000  H
  H32      1.0000 0.12240  0.57980  0.31900  Biso   1.000  H
  H33      1.0000 0.20470  0.54400  0.30380  Biso   1.000  H
  C42      1.0000 0.17620  0.56170  0.58820  Biso   1.000  C
  H34      1.0000 0.22180  0.61380  0.60860  Biso   1.000  H
  H35      1.0000 0.20400  0.52840  0.59980  Biso   1.000  H
  H36      1.0000 0.12480  0.56810  0.61190  Biso   1.000  H
  C43      1.0000 0.03410  0.40560  0.49920  Biso   1.000  C
  H37      1.0000 0.02830  0.44560  0.54920  Biso   1.000  H
  H38      1.0000 0.97270  0.36700  0.46840  Biso   1.000  H
  C44      1.0000 0.07620  0.33190  0.55650  Biso   1.000  C
  C45      1.0000 0.00600  0.33730  0.59170  Biso   1.000  C
  H39      1.0000 0.96600  0.36430  0.58590  Biso   1.000  H
  C46      1.0000 0.99380  0.30210  0.63690  Biso   1.000  C
  H40      1.0000 0.94670  0.30810  0.66320  Biso   1.000  H
  C47      1.0000 0.04700  0.25990  0.64450  Biso   1.000  C
  C48      1.0000 0.11880  0.25310  0.60560  Biso   1.000  C
  H41      1.0000 0.15690  0.22410  0.61000  Biso   1.000  H
  C49      1.0000 0.13370  0.28850  0.56140  Biso   1.000  C
  H42      1.0000 0.18110  0.28350  0.53540  Biso   1.000  H
  C50      1.0000 0.03350  0.22100  0.69350  Biso   1.000  C
  C51      1.0000 0.05190  0.41090  0.25490  Biso   1.000  C
  H43      1.0000 0.98550  0.38160  0.23610  Biso   1.000  H
  H44      1.0000 0.06550  0.45000  0.23800  Biso   1.000  H
  C52      1.0000 0.10000  0.32030  0.14810  Biso   1.000  C
  C53      1.0000 0.15410  0.26990  0.12380  Biso   1.000  C
  H45      1.0000 0.18770  0.26260  0.15990  Biso   1.000  H
  C54      1.0000 0.15870  0.23140  0.04910  Biso   1.000  C
  H46      1.0000 0.19600  0.19830  0.03400  Biso   1.000  H
  C55      1.0000 0.10580  0.24110  0.99130  Biso   1.000  C
  C56      1.0000 0.05430  0.29100  0.01640  Biso   1.000  C
  H47      1.0000 0.02160  0.29990  0.98100  Biso   1.000  H
  C57      1.0000 0.04870  0.33030  0.09510  Biso   1.000  C
  H48      1.0000 0.01050  0.36260  0.11070  Biso   1.000  H
  C58      1.0000 0.11190  0.20120  0.91010  Biso   1.000  C
  C59      1.0000 0.24330  0.64750  0.51060  Biso   1.000  C
  H49      1.0000 0.28150  0.65580  0.55740  Biso   1.000  H
  H50      1.0000 0.28370  0.65780  0.47980  Biso   1.000  H
  C60      1.0000 0.21990  0.77680  0.59170  Biso   1.000  C
  C61      1.0000 0.16040  0.82100  0.60230  Biso   1.000  C
  H51      1.0000 0.10240  0.79730  0.56690  Biso   1.000  H
  C62      1.0000 0.18280  0.89820  0.66250  Biso   1.000  C
  H52      1.0000 0.14000  0.92620  0.67070  Biso   1.000  H
  C63      1.0000 0.27220  0.93400  0.71160  Biso   1.000  C
  C64      1.0000 0.33540  0.89350  0.69980  Biso   1.000  C
  H53      1.0000 0.39560  0.91930  0.73220  Biso   1.000  H
  C65      1.0000 0.30950  0.81320  0.63910  Biso   1.000  C
  H54      1.0000 0.35180  0.78470  0.63060  Biso   1.000  H
  C66      1.0000 0.29920  0.01990  0.77660  Biso   1.000  C
  H55      1.0000 0.80400  0.13730  0.90730  Biso   1.000  H
  H56      1.0000 0.85190  0.18470  0.88350  Biso   1.000  H
  H57      1.0000 0.68480  0.30450  0.89990  Biso   1.000  H
  Ca5      1.0000 0.85652  0.87710  0.24449  Biso   1.000  Ca
  Ca6      1.0000 0.09012  0.81751  0.19907  Biso   1.000  Ca
  Ca7      1.0000 0.67102  0.82537  0.08960  Biso   1.000  Ca
  Ca8      1.0000 0.47156  0.85650  0.15114  Biso   1.000  Ca
  O21      1.0000 0.29670  0.30530  0.36540  Biso   1.000  O
  O22      1.0000 0.10150  0.94660  0.27280  Biso   1.000  O
  O23      1.0000 0.98090  0.98960  0.28540  Biso   1.000  O
  O24      1.0000 0.41570  0.66480  0.66630  Biso   1.000  O
  O25      1.0000 0.39510  0.82960  0.01640  Biso   1.000  O
  O26      1.0000 0.52040  0.79700  0.02770  Biso   1.000  O
  O27      1.0000 0.51850  0.61440  0.35940  Biso   1.000  O
  O28      1.0000 0.71130  0.77560  0.18460  Biso   1.000  O
  O29      1.0000 0.57030  0.78230  0.15730  Biso   1.000  O
  O30      1.0000 0.90370  0.63520  0.48960  Biso   1.000  O
  O31      1.0000 0.03230  0.77310  0.27600  Biso   1.000  O
  O32      1.0000 0.91040  0.81250  0.29830  Biso   1.000  O
  O33      1.0000 0.89650  0.64330  0.77390  Biso   1.000  O
  O34      1.0000 0.93990  0.79810  0.13890  Biso   1.000  O
  O35      1.0000 0.82800  0.83580  0.10580  Biso   1.000  O
  O36      1.0000 0.81370  0.30040  0.46940  Biso   1.000  O
  O37      1.0000 0.75700  0.94280  0.21560  Biso   1.000  O
  O38      1.0000 0.62180  0.94890  0.17720  Biso   1.000  O
  O39      1.0000 0.15230  0.85890  0.11420  Biso   1.000  O
  O40      1.0000 0.34730  0.74740  0.12510  Biso   1.000  O
  C67      1.0000 0.33460  0.45060  0.42850  Biso   1.000  C
  C68      1.0000 0.37210  0.49370  0.50780  Biso   1.000  C
  C69      1.0000 0.43130  0.57310  0.54200  Biso   1.000  C
  C70      1.0000 0.44980  0.60910  0.49930  Biso   1.000  C
  C71      1.0000 0.41170  0.56470  0.41830  Biso   1.000  C
  C72      1.0000 0.36010  0.48500  0.38350  Biso   1.000  C
  C73      1.0000 0.33200  0.43360  0.29520  Biso   1.000  C
  H58      1.0000 0.29540  0.37950  0.27940  Biso   1.000  H
  H59      1.0000 0.29590  0.45630  0.27440  Biso   1.000  H
  H60      1.0000 0.38690  0.43230  0.27560  Biso   1.000  H
  C74      1.0000 0.34710  0.45410  0.55440  Biso   1.000  C
  H61      1.0000 0.37800  0.49150  0.60860  Biso   1.000  H
  H62      1.0000 0.28080  0.43860  0.54820  Biso   1.000  H
  H63      1.0000 0.36650  0.40700  0.53610  Biso   1.000  H
  C75      1.0000 0.50550  0.69810  0.53860  Biso   1.000  C
  H64      1.0000 0.51310  0.71250  0.49950  Biso   1.000  H
  H65      1.0000 0.47300  0.73000  0.57290  Biso   1.000  H
  H66      1.0000 0.56560  0.70830  0.56820  Biso   1.000  H
  C76      1.0000 0.25870  0.37170  0.39170  Biso   1.000  C
  H67      1.0000 0.21640  0.36480  0.34760  Biso   1.000  H
  H68      1.0000 0.22350  0.37130  0.42930  Biso   1.000  H
  C77      1.0000 0.23690  0.23400  0.34880  Biso   1.000  C
  C78      1.0000 0.26770  0.16990  0.31570  Biso   1.000  C
  H69      1.0000 0.32620  0.17710  0.30510  Biso   1.000  H
  C79      1.0000 0.21420  0.09370  0.29710  Biso   1.000  C
  H70      1.0000 0.23870  0.05110  0.27830  Biso   1.000  H
  C80      1.0000 0.12220  0.08050  0.30660  Biso   1.000  C
  C81      1.0000 0.09220  0.14650  0.33770  Biso   1.000  C
  H71      1.0000 0.03250  0.13970  0.34580  Biso   1.000  H
  C82      1.0000 0.14690  0.22220  0.35760  Biso   1.000  C
  H72      1.0000 0.12340  0.26530  0.37680  Biso   1.000  H
  C83      1.0000 0.06500  0.99880  0.28400  Biso   1.000  C
  C84      1.0000 0.47310  0.61950  0.62830  Biso   1.000  C
  H73      1.0000 0.53540  0.65560  0.64030  Biso   1.000  H
  H74      1.0000 0.47760  0.58240  0.64620  Biso   1.000  H
  C85      1.0000 0.43350  0.70000  0.74510  Biso   1.000  C
  C86      1.0000 0.37320  0.73910  0.78050  Biso   1.000  C
  H75      1.0000 0.32730  0.74410  0.75030  Biso   1.000  H
  C87      1.0000 0.37840  0.77020  0.85680  Biso   1.000  C
  H76      1.0000 0.33520  0.79490  0.87820  Biso   1.000  H
  C88      1.0000 0.44560  0.76630  0.90400  Biso   1.000  C
  C89      1.0000 0.50990  0.72960  0.86810  Biso   1.000  C
  H77      1.0000 0.55820  0.72700  0.89820  Biso   1.000  H
  C90      1.0000 0.50240  0.69760  0.78910  Biso   1.000  C
  H78      1.0000 0.54600  0.67430  0.76660  Biso   1.000  H
  C91      1.0000 0.45800  0.80170  0.98810  Biso   1.000  C
  C92      1.0000 0.42500  0.60360  0.36970  Biso   1.000  C
  H79      1.0000 0.41480  0.65560  0.39560  Biso   1.000  H
  H80      1.0000 0.38030  0.56960  0.31920  Biso   1.000  H
  C93      1.0000 0.54030  0.65250  0.31920  Biso   1.000  C
  C94      1.0000 0.48090  0.67950  0.29000  Biso   1.000  C
  H81      1.0000 0.42180  0.67540  0.29940  Biso   1.000  H
  C95      1.0000 0.51040  0.71340  0.24550  Biso   1.000  C
  H82      1.0000 0.46930  0.72820  0.22160  Biso   1.000  H
  C96      1.0000 0.59910  0.72460  0.23740  Biso   1.000  C
  C97      1.0000 0.65940  0.70240  0.27030  Biso   1.000  C
  H83      1.0000 0.72000  0.70980  0.26410  Biso   1.000  H
  C98      1.0000 0.62940  0.66850  0.31350  Biso   1.000  C
  H84      1.0000 0.67180  0.65630  0.33940  Biso   1.000  H
  C99      1.0000 0.62870  0.76460  0.19020  Biso   1.000  C
  C100     1.0000 0.92400  0.55450  0.54260  Biso   1.000  C
  C101     1.0000 0.95120  0.59020  0.62140  Biso   1.000  C
  C102     1.0000 0.91890  0.54800  0.65900  Biso   1.000  C
  C103     1.0000 0.85380  0.46950  0.61410  Biso   1.000  C
  C104     1.0000 0.82340  0.43550  0.53520  Biso   1.000  C
  C105     1.0000 0.85780  0.47770  0.49840  Biso   1.000  C
  C106     1.0000 0.01810  0.67640  0.67110  Biso   1.000  C
  H85      1.0000 0.02890  0.69220  0.72530  Biso   1.000  H
  H86      1.0000 0.07620  0.67920  0.65620  Biso   1.000  H
  H87      1.0000 0.99150  0.71230  0.66320  Biso   1.000  H
  C107     1.0000 0.82400  0.42570  0.65680  Biso   1.000  C
  H88      1.0000 0.78020  0.37290  0.62030  Biso   1.000  H
  H89      1.0000 0.87760  0.42020  0.68100  Biso   1.000  H
  H90      1.0000 0.79530  0.45600  0.69620  Biso   1.000  H
  C108     1.0000 0.82380  0.43830  0.41180  Biso   1.000  C
  H91      1.0000 0.77820  0.38620  0.39140  Biso   1.000  H
  H92      1.0000 0.79600  0.47160  0.40020  Biso   1.000  H
  H93      1.0000 0.87520  0.43190  0.38810  Biso   1.000  H
  C109     1.0000 0.96590  0.59440  0.50080  Biso   1.000  C
  H94      1.0000 0.97170  0.55440  0.45080  Biso   1.000  H
  H95      1.0000 0.02730  0.63300  0.53160  Biso   1.000  H
  C110     1.0000 0.92380  0.66810  0.44350  Biso   1.000  C
  C111     1.0000 0.99400  0.66270  0.40830  Biso   1.000  C
  H96      1.0000 0.03400  0.63570  0.41410  Biso   1.000  H
  C112     1.0000 0.00620  0.69790  0.36310  Biso   1.000  C
  H97      1.0000 0.05330  0.69190  0.33680  Biso   1.000  H
  C113     1.0000 0.95300  0.74010  0.35550  Biso   1.000  C
  C114     1.0000 0.88120  0.74690  0.39440  Biso   1.000  C
  H98      1.0000 0.84310  0.77590  0.39000  Biso   1.000  H
  C115     1.0000 0.86630  0.71150  0.43860  Biso   1.000  C
  H99      1.0000 0.81890  0.71650  0.46460  Biso   1.000  H
  C116     1.0000 0.96650  0.77900  0.30650  Biso   1.000  C
  C117     1.0000 0.94810  0.58910  0.74510  Biso   1.000  C
  H100     1.0000 0.01450  0.61840  0.76390  Biso   1.000  H
  H101     1.0000 0.93450  0.55000  0.76200  Biso   1.000  H
  C118     1.0000 0.90000  0.67970  0.85190  Biso   1.000  C
  C119     1.0000 0.84590  0.73010  0.87620  Biso   1.000  C
  H102     1.0000 0.81230  0.73740  0.84010  Biso   1.000  H
  C120     1.0000 0.84130  0.76860  0.95090  Biso   1.000  C
  H103     1.0000 0.80400  0.80170  0.96600  Biso   1.000  H
  C121     1.0000 0.89420  0.75890  0.00870  Biso   1.000  C
  C122     1.0000 0.94570  0.70900  0.98360  Biso   1.000  C
  H104     1.0000 0.97840  0.70010  0.01900  Biso   1.000  H
  C123     1.0000 0.95130  0.66970  0.90490  Biso   1.000  C
  H105     1.0000 0.98950  0.63740  0.88930  Biso   1.000  H
  C124     1.0000 0.88810  0.79880  0.08990  Biso   1.000  C
  C125     1.0000 0.75670  0.35250  0.48940  Biso   1.000  C
  H106     1.0000 0.71850  0.34420  0.44260  Biso   1.000  H
  H107     1.0000 0.71630  0.34220  0.52020  Biso   1.000  H
  C126     1.0000 0.78010  0.22320  0.40830  Biso   1.000  C
  C127     1.0000 0.83960  0.17900  0.39770  Biso   1.000  C
  H108     1.0000 0.89760  0.20270  0.43310  Biso   1.000  H
  C128     1.0000 0.81720  0.10180  0.33750  Biso   1.000  C
  H109     1.0000 0.86000  0.07380  0.32930  Biso   1.000  H
  C129     1.0000 0.72780  0.06600  0.28840  Biso   1.000  C
  C130     1.0000 0.66460  0.10650  0.30020  Biso   1.000  C
  H110     1.0000 0.60440  0.08070  0.26780  Biso   1.000  H
  C131     1.0000 0.69050  0.18680  0.36090  Biso   1.000  C
  H111     1.0000 0.64820  0.21530  0.36940  Biso   1.000  H
  C132     1.0000 0.70080  0.98010  0.22340  Biso   1.000  C
  H112     1.0000 0.19600  0.86270  0.09270  Biso   1.000  H
  H113     1.0000 0.14810  0.81530  0.11650  Biso   1.000  H
  H114     1.0000 0.31520  0.69550  0.10010  Biso   1.000  H
