data_OBODEQ_clean
_audit_creation_date              2014-07-02
_audit_creation_method            'Materials Studio'
_symmetry_space_group_name_H-M    'P1'
_symmetry_Int_Tables_number       1
_symmetry_cell_setting            triclinic
loop_
_symmetry_equiv_pos_as_xyz
  x,y,z
_cell_length_a                    10.3800
_cell_length_b                    10.7520
_cell_length_c                    16.0250
_cell_angle_alpha                 90.0000
_cell_angle_beta                  106.4190
_cell_angle_gamma                 90.0000
loop_
_atom_site_label
_atom_site_type_symbol
_atom_site_fract_x
_atom_site_fract_y
_atom_site_fract_z
_atom_site_U_iso_or_equiv
_atom_site_adp_type
_atom_site_occupancy
Nd1    Nd    0.63446   0.87069   0.97227   0.01267  Uiso   1.00
Nd2    Nd    0.86554   0.37069   0.52773   0.01267  Uiso   1.00
Nd3    Nd    0.36554   0.12931   0.02773   0.01267  Uiso   1.00
Nd4    Nd    0.13446   0.62931   0.47227   0.01267  Uiso   1.00
H1     H     0.09160   0.90130   0.92810   0.01267  Uiso   1.00
H2     H     0.22280   0.72650   0.74600   0.01267  Uiso   1.00
H3     H     0.84210   0.68770   0.75060   0.01267  Uiso   1.00
H4     H     0.40840   0.40130   0.57190   0.01267  Uiso   1.00
H5     H     0.27720   0.22650   0.75400   0.01267  Uiso   1.00
H6     H     0.65790   0.18770   0.74940   0.01267  Uiso   1.00
H7     H     0.90840   0.09870   0.07190   0.01267  Uiso   1.00
H8     H     0.77720   0.27350   0.25400   0.01267  Uiso   1.00
H9     H     0.15790   0.31230   0.24940   0.01267  Uiso   1.00
H10    H     0.59160   0.59870   0.42810   0.01267  Uiso   1.00
H11    H     0.72280   0.77350   0.24600   0.01267  Uiso   1.00
H12    H     0.34210   0.81230   0.25060   0.01267  Uiso   1.00
C1     C     0.83380   0.83610   0.88090   0.01267  Uiso   1.00
C2     C     0.94860   0.80170   0.84380   0.01267  Uiso   1.00
C3     C     0.07600   0.84830   0.88050   0.01267  Uiso   1.00
C4     C     0.18210   0.81630   0.84650   0.01267  Uiso   1.00
C5     C     0.15450   0.74400   0.77140   0.01267  Uiso   1.00
C6     C     0.02620   0.69760   0.73390   0.01267  Uiso   1.00
C7     C     0.92630   0.72360   0.77280   0.01267  Uiso   1.00
C8     C     0.32360   0.85640   0.89100   0.01267  Uiso   1.00
C9     C     0.99570   0.62780   0.64830   0.01267  Uiso   1.00
C10    C     0.66620   0.33610   0.61910   0.01267  Uiso   1.00
C11    C     0.55140   0.30170   0.65620   0.01267  Uiso   1.00
C12    C     0.42400   0.34830   0.61950   0.01267  Uiso   1.00
C13    C     0.31790   0.31630   0.65350   0.01267  Uiso   1.00
C14    C     0.34550   0.24400   0.72860   0.01267  Uiso   1.00
C15    C     0.47380   0.19760   0.76610   0.01267  Uiso   1.00
C16    C     0.57370   0.22360   0.72720   0.01267  Uiso   1.00
C17    C     0.17640   0.35640   0.60900   0.01267  Uiso   1.00
C18    C     0.50430   0.12780   0.85170   0.01267  Uiso   1.00
C19    C     0.16620   0.16390   0.11910   0.01267  Uiso   1.00
C20    C     0.05140   0.19830   0.15620   0.01267  Uiso   1.00
C21    C     0.92400   0.15170   0.11950   0.01267  Uiso   1.00
C22    C     0.81790   0.18370   0.15350   0.01267  Uiso   1.00
C23    C     0.84550   0.25600   0.22860   0.01267  Uiso   1.00
C24    C     0.97380   0.30240   0.26610   0.01267  Uiso   1.00
C25    C     0.07370   0.27640   0.22720   0.01267  Uiso   1.00
C26    C     0.67640   0.14360   0.10900   0.01267  Uiso   1.00
C27    C     0.00430   0.37220   0.35170   0.01267  Uiso   1.00
C28    C     0.33380   0.66390   0.38090   0.01267  Uiso   1.00
C29    C     0.44860   0.69830   0.34380   0.01267  Uiso   1.00
C30    C     0.57600   0.65170   0.38050   0.01267  Uiso   1.00
C31    C     0.68210   0.68370   0.34650   0.01267  Uiso   1.00
C32    C     0.65450   0.75600   0.27140   0.01267  Uiso   1.00
C33    C     0.52620   0.80240   0.23390   0.01267  Uiso   1.00
C34    C     0.42630   0.77640   0.27280   0.01267  Uiso   1.00
C35    C     0.82360   0.64360   0.39100   0.01267  Uiso   1.00
C36    C     0.49570   0.87220   0.14830   0.01267  Uiso   1.00
O1     O     0.85540   0.91240   0.94290   0.01267  Uiso   1.00
O2     O     0.72160   0.78610   0.84920   0.01267  Uiso   1.00
O3     O     0.34300   0.94140   0.94680   0.01267  Uiso   1.00
O4     O     0.41780   0.80190   0.87210   0.01267  Uiso   1.00
O5     O     0.91990   0.53500   0.63810   0.01267  Uiso   1.00
O6     O     0.04720   0.67290   0.59300   0.01267  Uiso   1.00
O7     O     0.64460   0.41240   0.55710   0.01267  Uiso   1.00
O8     O     0.77840   0.28610   0.65080   0.01267  Uiso   1.00
O9     O     0.15700   0.44140   0.55320   0.01267  Uiso   1.00
O10    O     0.08220   0.30190   0.62790   0.01267  Uiso   1.00
O11    O     0.58010   0.03500   0.86190   0.01267  Uiso   1.00
O12    O     0.45280   0.17290   0.90700   0.01267  Uiso   1.00
O13    O     0.14460   0.08760   0.05710   0.01267  Uiso   1.00
O14    O     0.27840   0.21390   0.15080   0.01267  Uiso   1.00
O15    O     0.65700   0.05860   0.05320   0.01267  Uiso   1.00
O16    O     0.58220   0.19810   0.12790   0.01267  Uiso   1.00
O17    O     0.08010   0.46500   0.36190   0.01267  Uiso   1.00
O18    O     0.95280   0.32710   0.40700   0.01267  Uiso   1.00
O19    O     0.35540   0.58760   0.44290   0.01267  Uiso   1.00
O20    O     0.22160   0.71390   0.34920   0.01267  Uiso   1.00
O21    O     0.84300   0.55860   0.44680   0.01267  Uiso   1.00
O22    O     0.91780   0.69810   0.37210   0.01267  Uiso   1.00
O23    O     0.41990   0.96500   0.13810   0.01267  Uiso   1.00
O24    O     0.54720   0.82710   0.09300   0.01267  Uiso   1.00
