data_image0
_cell_length_a       16.4071
_cell_length_b       11.8075
_cell_length_c       15.2832
_cell_angle_alpha    90
_cell_angle_beta     90
_cell_angle_gamma    90

_symmetry_space_group_name_H-M    "P 1"
_symmetry_int_tables_number       1

loop_
  _symmetry_equiv_pos_as_xyz
  'x, y, z'

loop_
  _atom_site_label
  _atom_site_occupancy
  _atom_site_fract_x
  _atom_site_fract_y
  _atom_site_fract_z
  _atom_site_thermal_displace_type
  _atom_site_B_iso_or_equiv
  _atom_site_type_symbol
  Zn1      1.0000 0.09964  0.59755  0.17098  Biso   1.000  Zn
  O1       1.0000 0.08580  0.34350  0.20800  Biso   1.000  O
  O2       1.0000 0.14840  0.49640  0.25650  Biso   1.000  O
  O3       1.0000 0.30960  0.48020  0.52670  Biso   1.000  O
  O4       1.0000 0.32510  0.32150  0.59370  Biso   1.000  O
  O5       1.0000 0.14540  0.04740  0.43870  Biso   1.000  O
  O6       1.0000 0.06590  0.72250  0.25030  Biso   1.000  O
  C1       1.0000 0.16030  0.33070  0.33680  Biso   1.000  C
  C2       1.0000 0.21310  0.38110  0.40030  Biso   1.000  C
  H1       1.0000 0.22770  0.45670  0.39400  Biso   1.000  H
  C3       1.0000 0.24260  0.32120  0.47000  Biso   1.000  C
  C4       1.0000 0.21630  0.20850  0.48140  Biso   1.000  C
  H2       1.0000 0.23420  0.16780  0.52980  Biso   1.000  H
  C5       1.0000 0.16570  0.15870  0.42340  Biso   1.000  C
  C6       1.0000 0.13890  0.21700  0.34950  Biso   1.000  C
  H3       1.0000 0.10660  0.18020  0.30830  Biso   1.000  H
  C7       1.0000 0.12940  0.39630  0.26370  Biso   1.000  C
  C8       1.0000 0.29810  0.37700  0.53330  Biso   1.000  C
  C9       1.0000 0.07100  0.00690  0.41060  Biso   1.000  C
  C10      1.0000 0.07310  0.91170  0.35590  Biso   1.000  C
  H4       1.0000 0.12250  0.88130  0.33740  Biso   1.000  H
  Zn2      1.0000 0.40036  0.40245  0.67098  Biso   1.000  Zn
  O7       1.0000 0.41420  0.65650  0.70800  Biso   1.000  O
  O8       1.0000 0.35160  0.50360  0.75650  Biso   1.000  O
  O9       1.0000 0.19040  0.51980  0.02670  Biso   1.000  O
  O10      1.0000 0.17490  0.67850  0.09370  Biso   1.000  O
  O11      1.0000 0.35460  0.95260  0.93870  Biso   1.000  O
  O12      1.0000 0.43410  0.27750  0.75030  Biso   1.000  O
  C11      1.0000 0.33970  0.66930  0.83680  Biso   1.000  C
  C12      1.0000 0.28690  0.61890  0.90030  Biso   1.000  C
  H5       1.0000 0.27230  0.54330  0.89400  Biso   1.000  H
  C13      1.0000 0.25740  0.67880  0.97000  Biso   1.000  C
  C14      1.0000 0.28370  0.79150  0.98140  Biso   1.000  C
  H6       1.0000 0.26580  0.83220  0.02980  Biso   1.000  H
  C15      1.0000 0.33430  0.84130  0.92340  Biso   1.000  C
  C16      1.0000 0.36110  0.78300  0.84950  Biso   1.000  C
  H7       1.0000 0.39340  0.81980  0.80830  Biso   1.000  H
  C17      1.0000 0.37060  0.60370  0.76370  Biso   1.000  C
  C18      1.0000 0.20190  0.62300  0.03330  Biso   1.000  C
  C19      1.0000 0.42900  0.99310  0.91060  Biso   1.000  C
  C20      1.0000 0.42690  0.08830  0.85590  Biso   1.000  C
  H8       1.0000 0.37750  0.11870  0.83740  Biso   1.000  H
  Zn3      1.0000 0.59964  0.40245  0.67098  Biso   1.000  Zn
  O13      1.0000 0.58580  0.65650  0.70800  Biso   1.000  O
  O14      1.0000 0.64840  0.50360  0.75650  Biso   1.000  O
  O15      1.0000 0.80960  0.51980  0.02670  Biso   1.000  O
  O16      1.0000 0.82510  0.67850  0.09370  Biso   1.000  O
  O17      1.0000 0.64540  0.95260  0.93870  Biso   1.000  O
  O18      1.0000 0.56590  0.27750  0.75030  Biso   1.000  O
  C21      1.0000 0.66030  0.66930  0.83680  Biso   1.000  C
  C22      1.0000 0.71310  0.61890  0.90030  Biso   1.000  C
  H9       1.0000 0.72770  0.54330  0.89400  Biso   1.000  H
  C23      1.0000 0.74260  0.67880  0.97000  Biso   1.000  C
  C24      1.0000 0.71630  0.79150  0.98140  Biso   1.000  C
  H10      1.0000 0.73420  0.83220  0.02980  Biso   1.000  H
  C25      1.0000 0.66570  0.84130  0.92340  Biso   1.000  C
  C26      1.0000 0.63890  0.78300  0.84950  Biso   1.000  C
  H11      1.0000 0.60660  0.81980  0.80830  Biso   1.000  H
  C27      1.0000 0.62940  0.60370  0.76370  Biso   1.000  C
  C28      1.0000 0.79810  0.62300  0.03330  Biso   1.000  C
  C29      1.0000 0.57100  0.99310  0.91060  Biso   1.000  C
  C30      1.0000 0.57310  0.08830  0.85590  Biso   1.000  C
  H12      1.0000 0.62250  0.11870  0.83740  Biso   1.000  H
  Zn4      1.0000 0.90036  0.59755  0.17098  Biso   1.000  Zn
  O19      1.0000 0.91420  0.34350  0.20800  Biso   1.000  O
  O20      1.0000 0.85160  0.49640  0.25650  Biso   1.000  O
  O21      1.0000 0.69040  0.48020  0.52670  Biso   1.000  O
  O22      1.0000 0.67490  0.32150  0.59370  Biso   1.000  O
  O23      1.0000 0.85460  0.04740  0.43870  Biso   1.000  O
  O24      1.0000 0.93410  0.72250  0.25030  Biso   1.000  O
  C31      1.0000 0.83970  0.33070  0.33680  Biso   1.000  C
  C32      1.0000 0.78690  0.38110  0.40030  Biso   1.000  C
  H13      1.0000 0.77230  0.45670  0.39400  Biso   1.000  H
  C33      1.0000 0.75740  0.32120  0.47000  Biso   1.000  C
  C34      1.0000 0.78370  0.20850  0.48140  Biso   1.000  C
  H14      1.0000 0.76580  0.16780  0.52980  Biso   1.000  H
  C35      1.0000 0.83430  0.15870  0.42340  Biso   1.000  C
  C36      1.0000 0.86110  0.21700  0.34950  Biso   1.000  C
  H15      1.0000 0.89340  0.18020  0.30830  Biso   1.000  H
  C37      1.0000 0.87060  0.39630  0.26370  Biso   1.000  C
  C38      1.0000 0.70190  0.37700  0.53330  Biso   1.000  C
  C39      1.0000 0.92900  0.00690  0.41060  Biso   1.000  C
  C40      1.0000 0.92690  0.91170  0.35590  Biso   1.000  C
  H16      1.0000 0.87750  0.88130  0.33740  Biso   1.000  H
  Zn5      1.0000 0.00000  0.35077  0.11828  Biso   1.000  Zn
  O25      1.0000 0.00000  0.53630  0.11400  Biso   1.000  O
  H17      1.0000 0.00000  0.56020  0.05250  Biso   1.000  H
  C41      1.0000 0.00000  0.05270  0.43650  Biso   1.000  C
  H18      1.0000 0.00000  0.11630  0.47250  Biso   1.000  H
  C42      1.0000 0.00000  0.86430  0.33030  Biso   1.000  C
  C43      1.0000 0.00000  0.75840  0.27230  Biso   1.000  C
  Zn6      1.0000 0.50000  0.64923  0.61828  Biso   1.000  Zn
  O26      1.0000 0.50000  0.46370  0.61400  Biso   1.000  O
  H19      1.0000 0.50000  0.43980  0.55250  Biso   1.000  H
  C44      1.0000 0.50000  0.94730  0.93650  Biso   1.000  C
  H20      1.0000 0.50000  0.88370  0.97250  Biso   1.000  H
  C45      1.0000 0.50000  0.13570  0.83030  Biso   1.000  C
  C46      1.0000 0.50000  0.24160  0.77230  Biso   1.000  C
