data_OBUBOC_clean5b
_audit_creation_date              2014-07-02
_audit_creation_method            'Materials Studio'
_symmetry_space_group_name_H-M    'P1'
_symmetry_Int_Tables_number       1
_symmetry_cell_setting            triclinic
loop_
_symmetry_equiv_pos_as_xyz
  x,y,z
_cell_length_a                    13.8110
_cell_length_b                    15.4980
_cell_length_c                    15.4980
_cell_angle_alpha                 120.0000
_cell_angle_beta                  90.0000
_cell_angle_gamma                 90.0000
loop_
_atom_site_label
_atom_site_type_symbol
_atom_site_fract_x
_atom_site_fract_y
_atom_site_fract_z
_atom_site_U_iso_or_equiv
_atom_site_adp_type
_atom_site_occupancy
Ce1    Ce    0.46549   0.66667   0.33334   0.01267  Uiso   1.00
Ce2    Ce    0.03451   0.66667   0.33334   0.01267  Uiso   1.00
Ce3    Ce    0.53451   0.33333   0.66666   0.01267  Uiso   1.00
Ce4    Ce    0.96549   0.33333   0.66666   0.01267  Uiso   1.00
Cu1    Cu    0.25000   0.47396   0.49880   0.01267  Uiso   1.00
Cu2    Cu    0.25000   0.02484   0.52604   0.01267  Uiso   1.00
Cu3    Cu    0.25000   0.50120   0.97516   0.01267  Uiso   1.00
Cu4    Cu    0.75000   0.97516   0.50120   0.01267  Uiso   1.00
Cu5    Cu    0.75000   0.49880   0.47396   0.01267  Uiso   1.00
Cu6    Cu    0.75000   0.52604   0.02484   0.01267  Uiso   1.00
H1     H     0.50440   0.38490   0.28610   0.01267  Uiso   1.00
H2     H     0.41200   0.35650   0.21800   0.01267  Uiso   1.00
H3     H     0.49030   0.39140   0.08920   0.01267  Uiso   1.00
H4     H     0.57330   0.37260   0.14720   0.01267  Uiso   1.00
H5     H     0.50440   0.90120   0.61510   0.01267  Uiso   1.00
H6     H     0.41200   0.86150   0.64350   0.01267  Uiso   1.00
H7     H     0.49030   0.69780   0.60860   0.01267  Uiso   1.00
H8     H     0.57330   0.77460   0.62740   0.01267  Uiso   1.00
H9     H     0.50440   0.71390   0.09880   0.01267  Uiso   1.00
H10    H     0.41200   0.78200   0.13850   0.01267  Uiso   1.00
H11    H     0.49030   0.91080   0.30220   0.01267  Uiso   1.00
H12    H     0.57330   0.85280   0.22540   0.01267  Uiso   1.00
H13    H     0.99560   0.38490   0.28610   0.01267  Uiso   1.00
H14    H     0.08800   0.35650   0.21800   0.01267  Uiso   1.00
H15    H     0.00970   0.39140   0.08920   0.01267  Uiso   1.00
H16    H     0.92670   0.37260   0.14720   0.01267  Uiso   1.00
H17    H     0.99560   0.90120   0.61510   0.01267  Uiso   1.00
H18    H     0.08800   0.86150   0.64350   0.01267  Uiso   1.00
H19    H     0.00970   0.69780   0.60860   0.01267  Uiso   1.00
H20    H     0.92670   0.77460   0.62740   0.01267  Uiso   1.00
H21    H     0.99560   0.71390   0.09880   0.01267  Uiso   1.00
H22    H     0.08800   0.78200   0.13850   0.01267  Uiso   1.00
H23    H     0.00970   0.91080   0.30220   0.01267  Uiso   1.00
H24    H     0.92670   0.85280   0.22540   0.01267  Uiso   1.00
H25    H     0.49560   0.09880   0.71390   0.01267  Uiso   1.00
H26    H     0.58800   0.13850   0.78200   0.01267  Uiso   1.00
H27    H     0.50970   0.30220   0.91080   0.01267  Uiso   1.00
H28    H     0.42670   0.22540   0.85280   0.01267  Uiso   1.00
H29    H     0.49560   0.28610   0.38490   0.01267  Uiso   1.00
H30    H     0.58800   0.21800   0.35650   0.01267  Uiso   1.00
H31    H     0.50970   0.08920   0.39140   0.01267  Uiso   1.00
H32    H     0.42670   0.14720   0.37260   0.01267  Uiso   1.00
H33    H     0.49560   0.61510   0.90120   0.01267  Uiso   1.00
H34    H     0.58800   0.64350   0.86150   0.01267  Uiso   1.00
H35    H     0.50970   0.60860   0.69780   0.01267  Uiso   1.00
H36    H     0.42670   0.62740   0.77460   0.01267  Uiso   1.00
H37    H     0.00440   0.09880   0.71390   0.01267  Uiso   1.00
H38    H     0.91200   0.13850   0.78200   0.01267  Uiso   1.00
H39    H     0.99030   0.30220   0.91080   0.01267  Uiso   1.00
H40    H     0.07330   0.22540   0.85280   0.01267  Uiso   1.00
H41    H     0.00440   0.28610   0.38490   0.01267  Uiso   1.00
H42    H     0.91200   0.21800   0.35650   0.01267  Uiso   1.00
H43    H     0.99030   0.08920   0.39140   0.01267  Uiso   1.00
H44    H     0.07330   0.14720   0.37260   0.01267  Uiso   1.00
H45    H     0.00440   0.61510   0.90120   0.01267  Uiso   1.00
H46    H     0.91200   0.64350   0.86150   0.01267  Uiso   1.00
H47    H     0.99030   0.60860   0.69780   0.01267  Uiso   1.00
H48    H     0.07330   0.62740   0.77460   0.01267  Uiso   1.00
C1     C     0.44880   0.41170   0.26910   0.01267  Uiso   1.00
C2     C     0.38550   0.47200   0.36150   0.01267  Uiso   1.00
C3     C     0.53360   0.42360   0.14590   0.01267  Uiso   1.00
C4     C     0.59790   0.49720   0.13520   0.01267  Uiso   1.00
C5     C     0.44880   0.85740   0.58830   0.01267  Uiso   1.00
C6     C     0.38550   0.88950   0.52800   0.01267  Uiso   1.00
C7     C     0.53360   0.72230   0.57640   0.01267  Uiso   1.00
C8     C     0.59790   0.63800   0.50280   0.01267  Uiso   1.00
C9     C     0.44880   0.73090   0.14260   0.01267  Uiso   1.00
C10    C     0.38550   0.63850   0.11050   0.01267  Uiso   1.00
C11    C     0.53360   0.85410   0.27770   0.01267  Uiso   1.00
C12    C     0.59790   0.86480   0.36200   0.01267  Uiso   1.00
C13    C     0.05120   0.41170   0.26910   0.01267  Uiso   1.00
C14    C     0.11450   0.47200   0.36150   0.01267  Uiso   1.00
C15    C     0.96640   0.42360   0.14590   0.01267  Uiso   1.00
C16    C     0.90210   0.49720   0.13520   0.01267  Uiso   1.00
C17    C     0.05120   0.85740   0.58830   0.01267  Uiso   1.00
C18    C     0.11450   0.88950   0.52800   0.01267  Uiso   1.00
C19    C     0.96640   0.72230   0.57640   0.01267  Uiso   1.00
C20    C     0.90210   0.63800   0.50280   0.01267  Uiso   1.00
C21    C     0.05120   0.73090   0.14260   0.01267  Uiso   1.00
C22    C     0.11450   0.63850   0.11050   0.01267  Uiso   1.00
C23    C     0.96640   0.85410   0.27770   0.01267  Uiso   1.00
C24    C     0.90210   0.86480   0.36200   0.01267  Uiso   1.00
C25    C     0.55120   0.14260   0.73090   0.01267  Uiso   1.00
C26    C     0.61450   0.11050   0.63850   0.01267  Uiso   1.00
C27    C     0.46640   0.27770   0.85410   0.01267  Uiso   1.00
C28    C     0.40210   0.36200   0.86480   0.01267  Uiso   1.00
C29    C     0.55120   0.26910   0.41170   0.01267  Uiso   1.00
C30    C     0.61450   0.36150   0.47200   0.01267  Uiso   1.00
C31    C     0.46640   0.14590   0.42360   0.01267  Uiso   1.00
C32    C     0.40210   0.13520   0.49720   0.01267  Uiso   1.00
C33    C     0.55120   0.58830   0.85740   0.01267  Uiso   1.00
C34    C     0.61450   0.52800   0.88950   0.01267  Uiso   1.00
C35    C     0.46640   0.57640   0.72230   0.01267  Uiso   1.00
C36    C     0.40210   0.50280   0.63800   0.01267  Uiso   1.00
C37    C     0.94880   0.14260   0.73090   0.01267  Uiso   1.00
C38    C     0.88550   0.11050   0.63850   0.01267  Uiso   1.00
C39    C     0.03360   0.27770   0.85410   0.01267  Uiso   1.00
C40    C     0.09790   0.36200   0.86480   0.01267  Uiso   1.00
C41    C     0.94880   0.26910   0.41170   0.01267  Uiso   1.00
C42    C     0.88550   0.36150   0.47200   0.01267  Uiso   1.00
C43    C     0.03360   0.14590   0.42360   0.01267  Uiso   1.00
C44    C     0.09790   0.13520   0.49720   0.01267  Uiso   1.00
C45    C     0.94880   0.58830   0.85740   0.01267  Uiso   1.00
C46    C     0.88550   0.52800   0.88950   0.01267  Uiso   1.00
C47    C     0.03360   0.57640   0.72230   0.01267  Uiso   1.00
C48    C     0.09790   0.50280   0.63800   0.01267  Uiso   1.00
O1     O     0.47920   0.47310   0.23430   0.01267  Uiso   1.00
O2     O     0.37820   0.56410   0.39540   0.01267  Uiso   1.00
O3     O     0.34800   0.42270   0.39530   0.01267  Uiso   1.00
O4     O     0.59510   0.58610   0.20190   0.01267  Uiso   1.00
O5     O     0.65170   0.45920   0.06040   0.01267  Uiso   1.00
O6     O     0.47920   0.76120   0.52690   0.01267  Uiso   1.00
O7     O     0.37820   0.83130   0.43590   0.01267  Uiso   1.00
O8     O     0.34800   0.97260   0.57730   0.01267  Uiso   1.00
O9     O     0.59510   0.61580   0.41390   0.01267  Uiso   1.00
O10    O     0.65170   0.60120   0.54080   0.01267  Uiso   1.00
O11    O     0.47920   0.76570   0.23880   0.01267  Uiso   1.00
O12    O     0.37820   0.60460   0.16870   0.01267  Uiso   1.00
O13    O     0.34800   0.60470   0.02740   0.01267  Uiso   1.00
O14    O     0.59510   0.79810   0.38420   0.01267  Uiso   1.00
O15    O     0.65170   0.93960   0.39880   0.01267  Uiso   1.00
O16    O     0.02080   0.47310   0.23430   0.01267  Uiso   1.00
O17    O     0.12180   0.56410   0.39540   0.01267  Uiso   1.00
O18    O     0.15200   0.42270   0.39530   0.01267  Uiso   1.00
O19    O     0.90490   0.58610   0.20190   0.01267  Uiso   1.00
O20    O     0.84830   0.45920   0.06040   0.01267  Uiso   1.00
O21    O     0.02080   0.76120   0.52690   0.01267  Uiso   1.00
O22    O     0.12180   0.83130   0.43590   0.01267  Uiso   1.00
O23    O     0.15200   0.97260   0.57730   0.01267  Uiso   1.00
O24    O     0.90490   0.61580   0.41390   0.01267  Uiso   1.00
O25    O     0.84830   0.60120   0.54080   0.01267  Uiso   1.00
O26    O     0.02080   0.76570   0.23880   0.01267  Uiso   1.00
O27    O     0.12180   0.60460   0.16870   0.01267  Uiso   1.00
O28    O     0.15200   0.60470   0.02740   0.01267  Uiso   1.00
O29    O     0.90490   0.79810   0.38420   0.01267  Uiso   1.00
O30    O     0.84830   0.93960   0.39880   0.01267  Uiso   1.00
O31    O     0.52080   0.23880   0.76570   0.01267  Uiso   1.00
O32    O     0.62180   0.16870   0.60460   0.01267  Uiso   1.00
O33    O     0.65200   0.02740   0.60470   0.01267  Uiso   1.00
O34    O     0.40490   0.38420   0.79810   0.01267  Uiso   1.00
O35    O     0.34830   0.39880   0.93960   0.01267  Uiso   1.00
O36    O     0.52080   0.23430   0.47310   0.01267  Uiso   1.00
O37    O     0.62180   0.39540   0.56410   0.01267  Uiso   1.00
O38    O     0.65200   0.39530   0.42270   0.01267  Uiso   1.00
O39    O     0.40490   0.20190   0.58610   0.01267  Uiso   1.00
O40    O     0.34830   0.06040   0.45920   0.01267  Uiso   1.00
O41    O     0.52080   0.52690   0.76120   0.01267  Uiso   1.00
O42    O     0.62180   0.43590   0.83130   0.01267  Uiso   1.00
O43    O     0.65200   0.57730   0.97260   0.01267  Uiso   1.00
O44    O     0.40490   0.41390   0.61580   0.01267  Uiso   1.00
O45    O     0.34830   0.54080   0.60120   0.01267  Uiso   1.00
O46    O     0.97920   0.23880   0.76570   0.01267  Uiso   1.00
O47    O     0.87820   0.16870   0.60460   0.01267  Uiso   1.00
O48    O     0.84800   0.02740   0.60470   0.01267  Uiso   1.00
O49    O     0.09510   0.38420   0.79810   0.01267  Uiso   1.00
O50    O     0.15170   0.39880   0.93960   0.01267  Uiso   1.00
O51    O     0.97920   0.23430   0.47310   0.01267  Uiso   1.00
O52    O     0.87820   0.39540   0.56410   0.01267  Uiso   1.00
O53    O     0.84800   0.39530   0.42270   0.01267  Uiso   1.00
O54    O     0.09510   0.20190   0.58610   0.01267  Uiso   1.00
O55    O     0.15170   0.06040   0.45920   0.01267  Uiso   1.00
O56    O     0.97920   0.52690   0.76120   0.01267  Uiso   1.00
O57    O     0.87820   0.43590   0.83130   0.01267  Uiso   1.00
O58    O     0.84800   0.57730   0.97260   0.01267  Uiso   1.00
O59    O     0.09510   0.41390   0.61580   0.01267  Uiso   1.00
O60    O     0.15170   0.54080   0.60120   0.01267  Uiso   1.00
