data_image0
_cell_length_a       21.187
_cell_length_b       21.187
_cell_length_c       21.9
_cell_angle_alpha    90
_cell_angle_beta     90
_cell_angle_gamma    120

_symmetry_space_group_name_H-M    "P 1"
_symmetry_int_tables_number       1

loop_
  _symmetry_equiv_pos_as_xyz
  'x, y, z'

loop_
  _atom_site_label
  _atom_site_occupancy
  _atom_site_fract_x
  _atom_site_fract_y
  _atom_site_fract_z
  _atom_site_thermal_displace_type
  _atom_site_B_iso_or_equiv
  _atom_site_type_symbol
  Cu1      1.0000 0.46954  0.53956  0.00938  Biso   1.000  Cu
  C1       1.0000 0.40550  0.40270  0.06821  Biso   1.000  C
  C2       1.0000 0.34920  0.34290  0.10711  Biso   1.000  C
  C3       1.0000 0.31320  0.35800  0.15293  Biso   1.000  C
  H1       1.0000 0.32340  0.40550  0.15970  Biso   1.000  H
  C4       1.0000 0.26220  0.30150  0.18829  Biso   1.000  C
  C5       1.0000 0.24510  0.23110  0.17650  Biso   1.000  C
  H2       1.0000 0.20940  0.19340  0.19960  Biso   1.000  H
  C6       1.0000 0.27990  0.21510  0.13091  Biso   1.000  C
  C7       1.0000 0.33300  0.27190  0.09693  Biso   1.000  C
  H3       1.0000 0.35810  0.26220  0.06690  Biso   1.000  H
  C8       1.0000 0.29650  0.11940  0.07910  Biso   1.000  C
  C9       1.0000 0.25550  0.03870  0.08330  Biso   1.000  C
  C10      1.0000 0.26850  0.99070  0.05220  Biso   1.000  C
  H4       1.0000 0.30590  0.00650  0.02370  Biso   1.000  H
  C11      1.0000 0.22410  0.91790  0.06470  Biso   1.000  C
  H5       1.0000 0.23110  0.88370  0.04390  Biso   1.000  H
  C12      1.0000 0.17020  0.89500  0.10690  Biso   1.000  C
  H6       1.0000 0.14150  0.84540  0.11500  Biso   1.000  H
  C13      1.0000 0.15720  0.94410  0.13820  Biso   1.000  C
  H7       1.0000 0.12010  0.92840  0.16690  Biso   1.000  H
  C14      1.0000 0.20140  0.01730  0.12540  Biso   1.000  C
  C15      1.0000 0.20230  0.08080  0.15200  Biso   1.000  C
  H8       1.0000 0.15610  0.07880  0.14570  Biso   1.000  H
  H9       1.0000 0.21210  0.08360  0.19550  Biso   1.000  H
  C16      1.0000 0.22770  0.31650  0.24147  Biso   1.000  C
  N1       1.0000 0.26011  0.14207  0.12055  Biso   1.000  N
  O1       1.0000 0.45055  0.38973  0.04255  Biso   1.000  O
  O2       1.0000 0.24721  0.38122  0.25328  Biso   1.000  O
  O3       1.0000 0.40133  0.45866  0.06189  Biso   1.000  O
  O4       1.0000 0.18067  0.26144  0.27088  Biso   1.000  O
  O5       1.0000 0.34970  0.15680  0.05084  Biso   1.000  O
  H10      1.0000 0.34700  0.13870  0.09100  Biso   1.000  H
  H11      1.0000 0.29490  0.13530  0.03800  Biso   1.000  H
  O6       1.0000 0.17040  0.08100  0.19050  Biso   1.000  O
  Cu2      1.0000 0.13621  0.87289  0.34271  Biso   1.000  Cu
  C17      1.0000 0.07217  0.73603  0.40154  Biso   1.000  C
  C18      1.0000 0.01587  0.67623  0.44044  Biso   1.000  C
  C19      1.0000 0.97987  0.69133  0.48626  Biso   1.000  C
  H12      1.0000 0.99007  0.73883  0.49303  Biso   1.000  H
  C20      1.0000 0.92887  0.63483  0.52162  Biso   1.000  C
  C21      1.0000 0.91177  0.56443  0.50983  Biso   1.000  C
  H13      1.0000 0.87607  0.52673  0.53293  Biso   1.000  H
  C22      1.0000 0.94657  0.54843  0.46424  Biso   1.000  C
  C23      1.0000 0.99967  0.60523  0.43026  Biso   1.000  C
  H14      1.0000 0.02477  0.59553  0.40023  Biso   1.000  H
  C24      1.0000 0.96317  0.45273  0.41243  Biso   1.000  C
  C25      1.0000 0.92217  0.37203  0.41663  Biso   1.000  C
  C26      1.0000 0.93517  0.32403  0.38553  Biso   1.000  C
  H15      1.0000 0.97257  0.33983  0.35703  Biso   1.000  H
  C27      1.0000 0.89077  0.25123  0.39803  Biso   1.000  C
  H16      1.0000 0.89777  0.21703  0.37723  Biso   1.000  H
  C28      1.0000 0.83687  0.22833  0.44023  Biso   1.000  C
  H17      1.0000 0.80817  0.17873  0.44833  Biso   1.000  H
  C29      1.0000 0.82387  0.27743  0.47153  Biso   1.000  C
  H18      1.0000 0.78677  0.26173  0.50023  Biso   1.000  H
  C30      1.0000 0.86807  0.35063  0.45873  Biso   1.000  C
  C31      1.0000 0.86897  0.41413  0.48533  Biso   1.000  C
  H19      1.0000 0.82277  0.41213  0.47903  Biso   1.000  H
  H20      1.0000 0.87877  0.41693  0.52883  Biso   1.000  H
  C32      1.0000 0.89437  0.64983  0.57480  Biso   1.000  C
  N2       1.0000 0.92678  0.47540  0.45388  Biso   1.000  N
  O7       1.0000 0.11722  0.72306  0.37588  Biso   1.000  O
  O8       1.0000 0.91388  0.71455  0.58661  Biso   1.000  O
  O9       1.0000 0.06800  0.79199  0.39522  Biso   1.000  O
  O10      1.0000 0.84734  0.59477  0.60421  Biso   1.000  O
  O11      1.0000 0.01637  0.49013  0.38417  Biso   1.000  O
  H21      1.0000 0.01367  0.47203  0.42433  Biso   1.000  H
  H22      1.0000 0.96157  0.46863  0.37133  Biso   1.000  H
  O12      1.0000 0.83707  0.41433  0.52383  Biso   1.000  O
  Cu3      1.0000 0.80287  0.20623  0.67605  Biso   1.000  Cu
  C33      1.0000 0.73883  0.06937  0.73488  Biso   1.000  C
  C34      1.0000 0.68253  0.00957  0.77378  Biso   1.000  C
  C35      1.0000 0.64653  0.02467  0.81960  Biso   1.000  C
  H23      1.0000 0.65673  0.07217  0.82637  Biso   1.000  H
  C36      1.0000 0.59553  0.96817  0.85496  Biso   1.000  C
  C37      1.0000 0.57843  0.89777  0.84317  Biso   1.000  C
  H24      1.0000 0.54273  0.86007  0.86627  Biso   1.000  H
  C38      1.0000 0.61323  0.88177  0.79758  Biso   1.000  C
  C39      1.0000 0.66633  0.93857  0.76360  Biso   1.000  C
  H25      1.0000 0.69143  0.92887  0.73357  Biso   1.000  H
  C40      1.0000 0.62983  0.78607  0.74577  Biso   1.000  C
  C41      1.0000 0.58883  0.70537  0.74997  Biso   1.000  C
  C42      1.0000 0.60183  0.65737  0.71887  Biso   1.000  C
  H26      1.0000 0.63923  0.67317  0.69037  Biso   1.000  H
  C43      1.0000 0.55743  0.58457  0.73137  Biso   1.000  C
  H27      1.0000 0.56443  0.55037  0.71057  Biso   1.000  H
  C44      1.0000 0.50353  0.56167  0.77357  Biso   1.000  C
  H28      1.0000 0.47483  0.51207  0.78167  Biso   1.000  H
  C45      1.0000 0.49053  0.61077  0.80487  Biso   1.000  C
  H29      1.0000 0.45343  0.59507  0.83357  Biso   1.000  H
  C46      1.0000 0.53473  0.68397  0.79207  Biso   1.000  C
  C47      1.0000 0.53563  0.74747  0.81867  Biso   1.000  C
  H30      1.0000 0.48943  0.74547  0.81237  Biso   1.000  H
  H31      1.0000 0.54543  0.75027  0.86217  Biso   1.000  H
  C48      1.0000 0.56103  0.98317  0.90814  Biso   1.000  C
  N3       1.0000 0.59344  0.80874  0.78722  Biso   1.000  N
  O13      1.0000 0.78388  0.05640  0.70922  Biso   1.000  O
  O14      1.0000 0.58054  0.04789  0.91995  Biso   1.000  O
  O15      1.0000 0.73466  0.12533  0.72856  Biso   1.000  O
  O16      1.0000 0.51400  0.92811  0.93755  Biso   1.000  O
  O17      1.0000 0.68303  0.82347  0.71751  Biso   1.000  O
  H32      1.0000 0.68033  0.80537  0.75767  Biso   1.000  H
  H33      1.0000 0.62823  0.80197  0.70467  Biso   1.000  H
  O18      1.0000 0.50373  0.74767  0.85717  Biso   1.000  O
  Cu4      1.0000 0.46044  0.92998  0.00938  Biso   1.000  Cu
  C49      1.0000 0.59730  0.00280  0.06821  Biso   1.000  C
  C50      1.0000 0.65710  0.00630  0.10711  Biso   1.000  C
  C51      1.0000 0.64200  0.95520  0.15293  Biso   1.000  C
  H34      1.0000 0.59450  0.91790  0.15970  Biso   1.000  H
  C52      1.0000 0.69850  0.96070  0.18829  Biso   1.000  C
  C53      1.0000 0.76890  0.01400  0.17650  Biso   1.000  C
  H35      1.0000 0.80660  0.01600  0.19960  Biso   1.000  H
  C54      1.0000 0.78490  0.06480  0.13091  Biso   1.000  C
  C55      1.0000 0.72810  0.06110  0.09693  Biso   1.000  C
  H36      1.0000 0.73780  0.09590  0.06690  Biso   1.000  H
  C56      1.0000 0.88060  0.17710  0.07910  Biso   1.000  C
  C57      1.0000 0.96130  0.21680  0.08330  Biso   1.000  C
  C58      1.0000 0.00930  0.27780  0.05220  Biso   1.000  C
  H37      1.0000 0.99350  0.29940  0.02370  Biso   1.000  H
  C59      1.0000 0.08210  0.30620  0.06470  Biso   1.000  C
  H38      1.0000 0.11630  0.34740  0.04390  Biso   1.000  H
  C60      1.0000 0.10500  0.27520  0.10690  Biso   1.000  C
  H39      1.0000 0.15460  0.29610  0.11500  Biso   1.000  H
  C61      1.0000 0.05590  0.21310  0.13820  Biso   1.000  C
  H40      1.0000 0.07160  0.19170  0.16690  Biso   1.000  H
  C62      1.0000 0.98270  0.18410  0.12540  Biso   1.000  C
  C63      1.0000 0.91920  0.12150  0.15200  Biso   1.000  C
  H41      1.0000 0.92120  0.07730  0.14570  Biso   1.000  H
  H42      1.0000 0.91640  0.12850  0.19550  Biso   1.000  H
  C64      1.0000 0.68350  0.91120  0.24147  Biso   1.000  C
  N4       1.0000 0.85793  0.11804  0.12055  Biso   1.000  N
  O19      1.0000 0.61027  0.06082  0.04255  Biso   1.000  O
  O20      1.0000 0.61878  0.86599  0.25328  Biso   1.000  O
  O21      1.0000 0.54134  0.94267  0.06189  Biso   1.000  O
  O22      1.0000 0.73856  0.91923  0.27088  Biso   1.000  O
  O23      1.0000 0.84320  0.19290  0.05084  Biso   1.000  O
  H43      1.0000 0.86130  0.20830  0.09100  Biso   1.000  H
  H44      1.0000 0.86470  0.15960  0.03800  Biso   1.000  H
  O24      1.0000 0.91900  0.08940  0.19050  Biso   1.000  O
  Cu5      1.0000 0.12711  0.26331  0.34271  Biso   1.000  Cu
  C65      1.0000 0.26397  0.33613  0.40154  Biso   1.000  C
  C66      1.0000 0.32377  0.33963  0.44044  Biso   1.000  C
  C67      1.0000 0.30867  0.28853  0.48626  Biso   1.000  C
  H45      1.0000 0.26117  0.25123  0.49303  Biso   1.000  H
  C68      1.0000 0.36517  0.29403  0.52162  Biso   1.000  C
  C69      1.0000 0.43557  0.34733  0.50983  Biso   1.000  C
  H46      1.0000 0.47327  0.34933  0.53293  Biso   1.000  H
  C70      1.0000 0.45157  0.39813  0.46424  Biso   1.000  C
  C71      1.0000 0.39477  0.39443  0.43026  Biso   1.000  C
  H47      1.0000 0.40447  0.42923  0.40023  Biso   1.000  H
  C72      1.0000 0.54727  0.51043  0.41243  Biso   1.000  C
  C73      1.0000 0.62797  0.55013  0.41663  Biso   1.000  C
  C74      1.0000 0.67597  0.61113  0.38553  Biso   1.000  C
  H48      1.0000 0.66017  0.63273  0.35703  Biso   1.000  H
  C75      1.0000 0.74877  0.63953  0.39803  Biso   1.000  C
  H49      1.0000 0.78297  0.68073  0.37723  Biso   1.000  H
  C76      1.0000 0.77167  0.60853  0.44023  Biso   1.000  C
  H50      1.0000 0.82127  0.62943  0.44833  Biso   1.000  H
  C77      1.0000 0.72257  0.54643  0.47153  Biso   1.000  C
  H51      1.0000 0.73827  0.52503  0.50023  Biso   1.000  H
  C78      1.0000 0.64937  0.51743  0.45873  Biso   1.000  C
  C79      1.0000 0.58587  0.45483  0.48533  Biso   1.000  C
  H52      1.0000 0.58787  0.41063  0.47903  Biso   1.000  H
  H53      1.0000 0.58307  0.46183  0.52883  Biso   1.000  H
  C80      1.0000 0.35017  0.24453  0.57480  Biso   1.000  C
  N5       1.0000 0.52460  0.45137  0.45388  Biso   1.000  N
  O25      1.0000 0.27694  0.39415  0.37588  Biso   1.000  O
  O26      1.0000 0.28545  0.19932  0.58661  Biso   1.000  O
  O27      1.0000 0.20801  0.27600  0.39522  Biso   1.000  O
  O28      1.0000 0.40523  0.25256  0.60421  Biso   1.000  O
  O29      1.0000 0.50987  0.52623  0.38417  Biso   1.000  O
  H54      1.0000 0.52797  0.54163  0.42433  Biso   1.000  H
  H55      1.0000 0.53137  0.49293  0.37133  Biso   1.000  H
  O30      1.0000 0.58567  0.42273  0.52383  Biso   1.000  O
  Cu6      1.0000 0.79377  0.59665  0.67605  Biso   1.000  Cu
  C81      1.0000 0.93063  0.66947  0.73488  Biso   1.000  C
  C82      1.0000 0.99043  0.67297  0.77378  Biso   1.000  C
  C83      1.0000 0.97533  0.62187  0.81960  Biso   1.000  C
  H56      1.0000 0.92783  0.58457  0.82637  Biso   1.000  H
  C84      1.0000 0.03183  0.62737  0.85496  Biso   1.000  C
  C85      1.0000 0.10223  0.68067  0.84317  Biso   1.000  C
  H57      1.0000 0.13993  0.68267  0.86627  Biso   1.000  H
  C86      1.0000 0.11823  0.73147  0.79758  Biso   1.000  C
  C87      1.0000 0.06143  0.72777  0.76360  Biso   1.000  C
  H58      1.0000 0.07113  0.76257  0.73357  Biso   1.000  H
  C88      1.0000 0.21393  0.84377  0.74577  Biso   1.000  C
  C89      1.0000 0.29463  0.88347  0.74997  Biso   1.000  C
  C90      1.0000 0.34263  0.94447  0.71887  Biso   1.000  C
  H59      1.0000 0.32683  0.96607  0.69037  Biso   1.000  H
  C91      1.0000 0.41543  0.97287  0.73137  Biso   1.000  C
  H60      1.0000 0.44963  0.01407  0.71057  Biso   1.000  H
  C92      1.0000 0.43833  0.94187  0.77357  Biso   1.000  C
  H61      1.0000 0.48793  0.96277  0.78167  Biso   1.000  H
  C93      1.0000 0.38923  0.87977  0.80487  Biso   1.000  C
  H62      1.0000 0.40493  0.85837  0.83357  Biso   1.000  H
  C94      1.0000 0.31603  0.85077  0.79207  Biso   1.000  C
  C95      1.0000 0.25253  0.78817  0.81867  Biso   1.000  C
  H63      1.0000 0.25453  0.74397  0.81237  Biso   1.000  H
  H64      1.0000 0.24973  0.79517  0.86217  Biso   1.000  H
  C96      1.0000 0.01683  0.57787  0.90814  Biso   1.000  C
  N6       1.0000 0.19126  0.78471  0.78722  Biso   1.000  N
  O31      1.0000 0.94360  0.72749  0.70922  Biso   1.000  O
  O32      1.0000 0.95211  0.53266  0.91995  Biso   1.000  O
  O33      1.0000 0.87467  0.60934  0.72856  Biso   1.000  O
  O34      1.0000 0.07189  0.58590  0.93755  Biso   1.000  O
  O35      1.0000 0.17653  0.85957  0.71751  Biso   1.000  O
  H65      1.0000 0.19463  0.87497  0.75767  Biso   1.000  H
  H66      1.0000 0.19803  0.82627  0.70467  Biso   1.000  H
  O36      1.0000 0.25233  0.75607  0.85717  Biso   1.000  O
  Cu7      1.0000 0.07002  0.53046  0.00938  Biso   1.000  Cu
  C97      1.0000 0.99720  0.59450  0.06821  Biso   1.000  C
  C98      1.0000 0.99370  0.65080  0.10711  Biso   1.000  C
  C99      1.0000 0.04480  0.68680  0.15293  Biso   1.000  C
  H67      1.0000 0.08210  0.67660  0.15970  Biso   1.000  H
  C100     1.0000 0.03930  0.73780  0.18829  Biso   1.000  C
  C101     1.0000 0.98600  0.75490  0.17650  Biso   1.000  C
  H68      1.0000 0.98400  0.79060  0.19960  Biso   1.000  H
  C102     1.0000 0.93520  0.72010  0.13091  Biso   1.000  C
  C103     1.0000 0.93890  0.66700  0.09693  Biso   1.000  C
  H69      1.0000 0.90410  0.64190  0.06690  Biso   1.000  H
  C104     1.0000 0.82290  0.70350  0.07910  Biso   1.000  C
  C105     1.0000 0.78320  0.74450  0.08330  Biso   1.000  C
  C106     1.0000 0.72220  0.73150  0.05220  Biso   1.000  C
  H70      1.0000 0.70060  0.69410  0.02370  Biso   1.000  H
  C107     1.0000 0.69380  0.77590  0.06470  Biso   1.000  C
  H71      1.0000 0.65260  0.76890  0.04390  Biso   1.000  H
  C108     1.0000 0.72480  0.82980  0.10690  Biso   1.000  C
  H72      1.0000 0.70390  0.85850  0.11500  Biso   1.000  H
  C109     1.0000 0.78690  0.84280  0.13820  Biso   1.000  C
  H73      1.0000 0.80830  0.87990  0.16690  Biso   1.000  H
  C110     1.0000 0.81590  0.79860  0.12540  Biso   1.000  C
  C111     1.0000 0.87850  0.79770  0.15200  Biso   1.000  C
  H74      1.0000 0.92270  0.84390  0.14570  Biso   1.000  H
  H75      1.0000 0.87150  0.78790  0.19550  Biso   1.000  H
  C112     1.0000 0.08880  0.77230  0.24147  Biso   1.000  C
  N7       1.0000 0.88196  0.73989  0.12055  Biso   1.000  N
  O37      1.0000 0.93918  0.54945  0.04255  Biso   1.000  O
  O38      1.0000 0.13401  0.75279  0.25328  Biso   1.000  O
  O39      1.0000 0.05733  0.59867  0.06189  Biso   1.000  O
  O40      1.0000 0.08077  0.81933  0.27088  Biso   1.000  O
  O41      1.0000 0.80710  0.65030  0.05084  Biso   1.000  O
  H76      1.0000 0.79170  0.65300  0.09100  Biso   1.000  H
  H77      1.0000 0.84040  0.70510  0.03800  Biso   1.000  H
  O42      1.0000 0.91060  0.82960  0.19050  Biso   1.000  O
  Cu8      1.0000 0.73669  0.86379  0.34271  Biso   1.000  Cu
  C113     1.0000 0.66387  0.92783  0.40154  Biso   1.000  C
  C114     1.0000 0.66037  0.98413  0.44044  Biso   1.000  C
  C115     1.0000 0.71147  0.02013  0.48626  Biso   1.000  C
  H78      1.0000 0.74877  0.00993  0.49303  Biso   1.000  H
  C116     1.0000 0.70597  0.07113  0.52162  Biso   1.000  C
  C117     1.0000 0.65267  0.08823  0.50983  Biso   1.000  C
  H79      1.0000 0.65067  0.12393  0.53293  Biso   1.000  H
  C118     1.0000 0.60187  0.05343  0.46424  Biso   1.000  C
  C119     1.0000 0.60557  0.00033  0.43026  Biso   1.000  C
  H80      1.0000 0.57077  0.97523  0.40023  Biso   1.000  H
  C120     1.0000 0.48957  0.03683  0.41243  Biso   1.000  C
  C121     1.0000 0.44987  0.07783  0.41663  Biso   1.000  C
  C122     1.0000 0.38887  0.06483  0.38553  Biso   1.000  C
  H81      1.0000 0.36727  0.02743  0.35703  Biso   1.000  H
  C123     1.0000 0.36047  0.10923  0.39803  Biso   1.000  C
  H82      1.0000 0.31927  0.10223  0.37723  Biso   1.000  H
  C124     1.0000 0.39147  0.16313  0.44023  Biso   1.000  C
  H83      1.0000 0.37057  0.19183  0.44833  Biso   1.000  H
  C125     1.0000 0.45357  0.17613  0.47153  Biso   1.000  C
  H84      1.0000 0.47497  0.21323  0.50023  Biso   1.000  H
  C126     1.0000 0.48257  0.13193  0.45873  Biso   1.000  C
  C127     1.0000 0.54517  0.13103  0.48533  Biso   1.000  C
  H85      1.0000 0.58937  0.17723  0.47903  Biso   1.000  H
  H86      1.0000 0.53817  0.12123  0.52883  Biso   1.000  H
  C128     1.0000 0.75547  0.10563  0.57480  Biso   1.000  C
  N8       1.0000 0.54863  0.07322  0.45388  Biso   1.000  N
  O43      1.0000 0.60585  0.88278  0.37588  Biso   1.000  O
  O44      1.0000 0.80068  0.08612  0.58661  Biso   1.000  O
  O45      1.0000 0.72400  0.93200  0.39522  Biso   1.000  O
  O46      1.0000 0.74744  0.15266  0.60421  Biso   1.000  O
  O47      1.0000 0.47377  0.98363  0.38417  Biso   1.000  O
  H87      1.0000 0.45837  0.98633  0.42433  Biso   1.000  H
  H88      1.0000 0.50707  0.03843  0.37133  Biso   1.000  H
  O48      1.0000 0.57727  0.16293  0.52383  Biso   1.000  O
  Cu9      1.0000 0.40335  0.19713  0.67605  Biso   1.000  Cu
  C129     1.0000 0.33053  0.26117  0.73488  Biso   1.000  C
  C130     1.0000 0.32703  0.31747  0.77378  Biso   1.000  C
  C131     1.0000 0.37813  0.35347  0.81960  Biso   1.000  C
  H89      1.0000 0.41543  0.34327  0.82637  Biso   1.000  H
  C132     1.0000 0.37263  0.40447  0.85496  Biso   1.000  C
  C133     1.0000 0.31933  0.42157  0.84317  Biso   1.000  C
  H90      1.0000 0.31733  0.45727  0.86627  Biso   1.000  H
  C134     1.0000 0.26853  0.38677  0.79758  Biso   1.000  C
  C135     1.0000 0.27223  0.33367  0.76360  Biso   1.000  C
  H91      1.0000 0.23743  0.30857  0.73357  Biso   1.000  H
  C136     1.0000 0.15623  0.37017  0.74577  Biso   1.000  C
  C137     1.0000 0.11653  0.41117  0.74997  Biso   1.000  C
  C138     1.0000 0.05553  0.39817  0.71887  Biso   1.000  C
  H92      1.0000 0.03393  0.36077  0.69037  Biso   1.000  H
  C139     1.0000 0.02713  0.44257  0.73137  Biso   1.000  C
  H93      1.0000 0.98593  0.43557  0.71057  Biso   1.000  H
  C140     1.0000 0.05813  0.49647  0.77357  Biso   1.000  C
  H94      1.0000 0.03723  0.52517  0.78167  Biso   1.000  H
  C141     1.0000 0.12023  0.50947  0.80487  Biso   1.000  C
  H95      1.0000 0.14163  0.54657  0.83357  Biso   1.000  H
  C142     1.0000 0.14923  0.46527  0.79207  Biso   1.000  C
  C143     1.0000 0.21183  0.46437  0.81867  Biso   1.000  C
  H96      1.0000 0.25603  0.51057  0.81237  Biso   1.000  H
  H97      1.0000 0.20483  0.45457  0.86217  Biso   1.000  H
  C144     1.0000 0.42213  0.43897  0.90814  Biso   1.000  C
  N9       1.0000 0.21529  0.40656  0.78722  Biso   1.000  N
  O49      1.0000 0.27251  0.21612  0.70922  Biso   1.000  O
  O50      1.0000 0.46734  0.41946  0.91995  Biso   1.000  O
  O51      1.0000 0.39066  0.26534  0.72856  Biso   1.000  O
  O52      1.0000 0.41410  0.48600  0.93755  Biso   1.000  O
  O53      1.0000 0.14043  0.31697  0.71751  Biso   1.000  O
  H98      1.0000 0.12503  0.31967  0.75767  Biso   1.000  H
  H99      1.0000 0.17373  0.37177  0.70467  Biso   1.000  H
  O54      1.0000 0.24393  0.49627  0.85717  Biso   1.000  O
  Cu10     1.0000 0.53046  0.46044  0.99062  Biso   1.000  Cu
  C145     1.0000 0.59450  0.59730  0.93179  Biso   1.000  C
  C146     1.0000 0.65080  0.65710  0.89289  Biso   1.000  C
  C147     1.0000 0.68680  0.64200  0.84707  Biso   1.000  C
  H100     1.0000 0.67660  0.59450  0.84030  Biso   1.000  H
  C148     1.0000 0.73780  0.69850  0.81171  Biso   1.000  C
  C149     1.0000 0.75490  0.76890  0.82350  Biso   1.000  C
  H101     1.0000 0.79060  0.80660  0.80040  Biso   1.000  H
  C150     1.0000 0.72010  0.78490  0.86909  Biso   1.000  C
  C151     1.0000 0.66700  0.72810  0.90307  Biso   1.000  C
  H102     1.0000 0.64190  0.73780  0.93310  Biso   1.000  H
  C152     1.0000 0.70350  0.88060  0.92090  Biso   1.000  C
  C153     1.0000 0.74450  0.96130  0.91670  Biso   1.000  C
  C154     1.0000 0.73150  0.00930  0.94780  Biso   1.000  C
  H103     1.0000 0.69410  0.99350  0.97630  Biso   1.000  H
  C155     1.0000 0.77590  0.08210  0.93530  Biso   1.000  C
  H104     1.0000 0.76890  0.11630  0.95610  Biso   1.000  H
  C156     1.0000 0.82980  0.10500  0.89310  Biso   1.000  C
  H105     1.0000 0.85850  0.15460  0.88500  Biso   1.000  H
  C157     1.0000 0.84280  0.05590  0.86180  Biso   1.000  C
  H106     1.0000 0.87990  0.07160  0.83310  Biso   1.000  H
  C158     1.0000 0.79860  0.98270  0.87460  Biso   1.000  C
  C159     1.0000 0.79770  0.91920  0.84800  Biso   1.000  C
  H107     1.0000 0.84390  0.92120  0.85430  Biso   1.000  H
  H108     1.0000 0.78790  0.91640  0.80450  Biso   1.000  H
  C160     1.0000 0.77230  0.68350  0.75853  Biso   1.000  C
  N10      1.0000 0.73989  0.85793  0.87945  Biso   1.000  N
  O55      1.0000 0.54945  0.61027  0.95745  Biso   1.000  O
  O56      1.0000 0.75279  0.61878  0.74672  Biso   1.000  O
  O57      1.0000 0.59867  0.54134  0.93811  Biso   1.000  O
  O58      1.0000 0.81933  0.73856  0.72912  Biso   1.000  O
  O59      1.0000 0.65030  0.84320  0.94916  Biso   1.000  O
  H109     1.0000 0.65300  0.86130  0.90900  Biso   1.000  H
  H110     1.0000 0.70510  0.86470  0.96200  Biso   1.000  H
  O60      1.0000 0.82960  0.91900  0.80950  Biso   1.000  O
  Cu11     1.0000 0.19713  0.79377  0.32395  Biso   1.000  Cu
  C161     1.0000 0.26117  0.93063  0.26512  Biso   1.000  C
  C162     1.0000 0.31747  0.99043  0.22622  Biso   1.000  C
  C163     1.0000 0.35347  0.97533  0.18040  Biso   1.000  C
  H111     1.0000 0.34327  0.92783  0.17363  Biso   1.000  H
  C164     1.0000 0.40447  0.03183  0.14504  Biso   1.000  C
  C165     1.0000 0.42157  0.10223  0.15683  Biso   1.000  C
  H112     1.0000 0.45727  0.13993  0.13373  Biso   1.000  H
  C166     1.0000 0.38677  0.11823  0.20242  Biso   1.000  C
  C167     1.0000 0.33367  0.06143  0.23640  Biso   1.000  C
  H113     1.0000 0.30857  0.07113  0.26643  Biso   1.000  H
  C168     1.0000 0.37017  0.21393  0.25423  Biso   1.000  C
  C169     1.0000 0.41117  0.29463  0.25003  Biso   1.000  C
  C170     1.0000 0.39817  0.34263  0.28113  Biso   1.000  C
  H114     1.0000 0.36077  0.32683  0.30963  Biso   1.000  H
  C171     1.0000 0.44257  0.41543  0.26863  Biso   1.000  C
  H115     1.0000 0.43557  0.44963  0.28943  Biso   1.000  H
  C172     1.0000 0.49647  0.43833  0.22643  Biso   1.000  C
  H116     1.0000 0.52517  0.48793  0.21833  Biso   1.000  H
  C173     1.0000 0.50947  0.38923  0.19513  Biso   1.000  C
  H117     1.0000 0.54657  0.40493  0.16643  Biso   1.000  H
  C174     1.0000 0.46527  0.31603  0.20793  Biso   1.000  C
  C175     1.0000 0.46437  0.25253  0.18133  Biso   1.000  C
  H118     1.0000 0.51057  0.25453  0.18763  Biso   1.000  H
  H119     1.0000 0.45457  0.24973  0.13783  Biso   1.000  H
  C176     1.0000 0.43897  0.01683  0.09186  Biso   1.000  C
  N11      1.0000 0.40656  0.19126  0.21278  Biso   1.000  N
  O61      1.0000 0.21612  0.94360  0.29078  Biso   1.000  O
  O62      1.0000 0.41946  0.95211  0.08005  Biso   1.000  O
  O63      1.0000 0.26534  0.87467  0.27144  Biso   1.000  O
  O64      1.0000 0.48600  0.07189  0.06245  Biso   1.000  O
  O65      1.0000 0.31697  0.17653  0.28249  Biso   1.000  O
  H120     1.0000 0.31967  0.19463  0.24233  Biso   1.000  H
  H121     1.0000 0.37177  0.19803  0.29533  Biso   1.000  H
  O66      1.0000 0.49627  0.25233  0.14283  Biso   1.000  O
  Cu12     1.0000 0.86379  0.12711  0.65729  Biso   1.000  Cu
  C177     1.0000 0.92783  0.26397  0.59846  Biso   1.000  C
  C178     1.0000 0.98413  0.32377  0.55956  Biso   1.000  C
  C179     1.0000 0.02013  0.30867  0.51374  Biso   1.000  C
  H122     1.0000 0.00993  0.26117  0.50697  Biso   1.000  H
  C180     1.0000 0.07113  0.36517  0.47838  Biso   1.000  C
  C181     1.0000 0.08823  0.43557  0.49017  Biso   1.000  C
  H123     1.0000 0.12393  0.47327  0.46707  Biso   1.000  H
  C182     1.0000 0.05343  0.45157  0.53576  Biso   1.000  C
  C183     1.0000 0.00033  0.39477  0.56974  Biso   1.000  C
  H124     1.0000 0.97523  0.40447  0.59977  Biso   1.000  H
  C184     1.0000 0.03683  0.54727  0.58757  Biso   1.000  C
  C185     1.0000 0.07783  0.62797  0.58337  Biso   1.000  C
  C186     1.0000 0.06483  0.67597  0.61447  Biso   1.000  C
  H125     1.0000 0.02743  0.66017  0.64297  Biso   1.000  H
  C187     1.0000 0.10923  0.74877  0.60197  Biso   1.000  C
  H126     1.0000 0.10223  0.78297  0.62277  Biso   1.000  H
  C188     1.0000 0.16313  0.77167  0.55977  Biso   1.000  C
  H127     1.0000 0.19183  0.82127  0.55167  Biso   1.000  H
  C189     1.0000 0.17613  0.72257  0.52847  Biso   1.000  C
  H128     1.0000 0.21323  0.73827  0.49977  Biso   1.000  H
  C190     1.0000 0.13193  0.64937  0.54127  Biso   1.000  C
  C191     1.0000 0.13103  0.58587  0.51467  Biso   1.000  C
  H129     1.0000 0.17723  0.58787  0.52097  Biso   1.000  H
  H130     1.0000 0.12123  0.58307  0.47117  Biso   1.000  H
  C192     1.0000 0.10563  0.35017  0.42520  Biso   1.000  C
  N12      1.0000 0.07322  0.52460  0.54612  Biso   1.000  N
  O67      1.0000 0.88278  0.27694  0.62412  Biso   1.000  O
  O68      1.0000 0.08612  0.28545  0.41339  Biso   1.000  O
  O69      1.0000 0.93200  0.20801  0.60478  Biso   1.000  O
  O70      1.0000 0.15266  0.40523  0.39579  Biso   1.000  O
  O71      1.0000 0.98363  0.50987  0.61583  Biso   1.000  O
  H131     1.0000 0.98633  0.52797  0.57567  Biso   1.000  H
  H132     1.0000 0.03843  0.53137  0.62867  Biso   1.000  H
  O72      1.0000 0.16293  0.58567  0.47617  Biso   1.000  O
  Cu13     1.0000 0.53956  0.07002  0.99062  Biso   1.000  Cu
  C193     1.0000 0.40270  0.99720  0.93179  Biso   1.000  C
  C194     1.0000 0.34290  0.99370  0.89289  Biso   1.000  C
  C195     1.0000 0.35800  0.04480  0.84707  Biso   1.000  C
  H133     1.0000 0.40550  0.08210  0.84030  Biso   1.000  H
  C196     1.0000 0.30150  0.03930  0.81171  Biso   1.000  C
  C197     1.0000 0.23110  0.98600  0.82350  Biso   1.000  C
  H134     1.0000 0.19340  0.98400  0.80040  Biso   1.000  H
  C198     1.0000 0.21510  0.93520  0.86909  Biso   1.000  C
  C199     1.0000 0.27190  0.93890  0.90307  Biso   1.000  C
  H135     1.0000 0.26220  0.90410  0.93310  Biso   1.000  H
  C200     1.0000 0.11940  0.82290  0.92090  Biso   1.000  C
  C201     1.0000 0.03870  0.78320  0.91670  Biso   1.000  C
  C202     1.0000 0.99070  0.72220  0.94780  Biso   1.000  C
  H136     1.0000 0.00650  0.70060  0.97630  Biso   1.000  H
  C203     1.0000 0.91790  0.69380  0.93530  Biso   1.000  C
  H137     1.0000 0.88370  0.65260  0.95610  Biso   1.000  H
  C204     1.0000 0.89500  0.72480  0.89310  Biso   1.000  C
  H138     1.0000 0.84540  0.70390  0.88500  Biso   1.000  H
  C205     1.0000 0.94410  0.78690  0.86180  Biso   1.000  C
  H139     1.0000 0.92840  0.80830  0.83310  Biso   1.000  H
  C206     1.0000 0.01730  0.81590  0.87460  Biso   1.000  C
  C207     1.0000 0.08080  0.87850  0.84800  Biso   1.000  C
  H140     1.0000 0.07880  0.92270  0.85430  Biso   1.000  H
  H141     1.0000 0.08360  0.87150  0.80450  Biso   1.000  H
  C208     1.0000 0.31650  0.08880  0.75853  Biso   1.000  C
  N13      1.0000 0.14207  0.88196  0.87945  Biso   1.000  N
  O73      1.0000 0.38973  0.93918  0.95745  Biso   1.000  O
  O74      1.0000 0.38122  0.13401  0.74672  Biso   1.000  O
  O75      1.0000 0.45866  0.05733  0.93811  Biso   1.000  O
  O76      1.0000 0.26144  0.08077  0.72912  Biso   1.000  O
  O77      1.0000 0.15680  0.80710  0.94916  Biso   1.000  O
  H142     1.0000 0.13870  0.79170  0.90900  Biso   1.000  H
  H143     1.0000 0.13530  0.84040  0.96200  Biso   1.000  H
  O78      1.0000 0.08100  0.91060  0.80950  Biso   1.000  O
  Cu14     1.0000 0.20623  0.40335  0.32395  Biso   1.000  Cu
  C209     1.0000 0.06937  0.33053  0.26512  Biso   1.000  C
  C210     1.0000 0.00957  0.32703  0.22622  Biso   1.000  C
  C211     1.0000 0.02467  0.37813  0.18040  Biso   1.000  C
  H144     1.0000 0.07217  0.41543  0.17363  Biso   1.000  H
  C212     1.0000 0.96817  0.37263  0.14504  Biso   1.000  C
  C213     1.0000 0.89777  0.31933  0.15683  Biso   1.000  C
  H145     1.0000 0.86007  0.31733  0.13373  Biso   1.000  H
  C214     1.0000 0.88177  0.26853  0.20242  Biso   1.000  C
  C215     1.0000 0.93857  0.27223  0.23640  Biso   1.000  C
  H146     1.0000 0.92887  0.23743  0.26643  Biso   1.000  H
  C216     1.0000 0.78607  0.15623  0.25423  Biso   1.000  C
  C217     1.0000 0.70537  0.11653  0.25003  Biso   1.000  C
  C218     1.0000 0.65737  0.05553  0.28113  Biso   1.000  C
  H147     1.0000 0.67317  0.03393  0.30963  Biso   1.000  H
  C219     1.0000 0.58457  0.02713  0.26863  Biso   1.000  C
  H148     1.0000 0.55037  0.98593  0.28943  Biso   1.000  H
  C220     1.0000 0.56167  0.05813  0.22643  Biso   1.000  C
  H149     1.0000 0.51207  0.03723  0.21833  Biso   1.000  H
  C221     1.0000 0.61077  0.12023  0.19513  Biso   1.000  C
  H150     1.0000 0.59507  0.14163  0.16643  Biso   1.000  H
  C222     1.0000 0.68397  0.14923  0.20793  Biso   1.000  C
  C223     1.0000 0.74747  0.21183  0.18133  Biso   1.000  C
  H151     1.0000 0.74547  0.25603  0.18763  Biso   1.000  H
  H152     1.0000 0.75027  0.20483  0.13783  Biso   1.000  H
  C224     1.0000 0.98317  0.42213  0.09186  Biso   1.000  C
  N14      1.0000 0.80874  0.21529  0.21278  Biso   1.000  N
  O79      1.0000 0.05640  0.27251  0.29078  Biso   1.000  O
  O80      1.0000 0.04789  0.46734  0.08005  Biso   1.000  O
  O81      1.0000 0.12533  0.39066  0.27144  Biso   1.000  O
  O82      1.0000 0.92811  0.41410  0.06245  Biso   1.000  O
  O83      1.0000 0.82347  0.14043  0.28249  Biso   1.000  O
  H153     1.0000 0.80537  0.12503  0.24233  Biso   1.000  H
  H154     1.0000 0.80197  0.17373  0.29533  Biso   1.000  H
  O84      1.0000 0.74767  0.24393  0.14283  Biso   1.000  O
  Cu15     1.0000 0.87289  0.73669  0.65729  Biso   1.000  Cu
  C225     1.0000 0.73603  0.66387  0.59846  Biso   1.000  C
  C226     1.0000 0.67623  0.66037  0.55956  Biso   1.000  C
  C227     1.0000 0.69133  0.71147  0.51374  Biso   1.000  C
  H155     1.0000 0.73883  0.74877  0.50697  Biso   1.000  H
  C228     1.0000 0.63483  0.70597  0.47838  Biso   1.000  C
  C229     1.0000 0.56443  0.65267  0.49017  Biso   1.000  C
  H156     1.0000 0.52673  0.65067  0.46707  Biso   1.000  H
  C230     1.0000 0.54843  0.60187  0.53576  Biso   1.000  C
  C231     1.0000 0.60523  0.60557  0.56974  Biso   1.000  C
  H157     1.0000 0.59553  0.57077  0.59977  Biso   1.000  H
  C232     1.0000 0.45273  0.48957  0.58757  Biso   1.000  C
  C233     1.0000 0.37203  0.44987  0.58337  Biso   1.000  C
  C234     1.0000 0.32403  0.38887  0.61447  Biso   1.000  C
  H158     1.0000 0.33983  0.36727  0.64297  Biso   1.000  H
  C235     1.0000 0.25123  0.36047  0.60197  Biso   1.000  C
  H159     1.0000 0.21703  0.31927  0.62277  Biso   1.000  H
  C236     1.0000 0.22833  0.39147  0.55977  Biso   1.000  C
  H160     1.0000 0.17873  0.37057  0.55167  Biso   1.000  H
  C237     1.0000 0.27743  0.45357  0.52847  Biso   1.000  C
  H161     1.0000 0.26173  0.47497  0.49977  Biso   1.000  H
  C238     1.0000 0.35063  0.48257  0.54127  Biso   1.000  C
  C239     1.0000 0.41413  0.54517  0.51467  Biso   1.000  C
  H162     1.0000 0.41213  0.58937  0.52097  Biso   1.000  H
  H163     1.0000 0.41693  0.53817  0.47117  Biso   1.000  H
  C240     1.0000 0.64983  0.75547  0.42520  Biso   1.000  C
  N15      1.0000 0.47540  0.54863  0.54612  Biso   1.000  N
  O85      1.0000 0.72306  0.60585  0.62412  Biso   1.000  O
  O86      1.0000 0.71455  0.80068  0.41339  Biso   1.000  O
  O87      1.0000 0.79199  0.72400  0.60478  Biso   1.000  O
  O88      1.0000 0.59477  0.74744  0.39579  Biso   1.000  O
  O89      1.0000 0.49013  0.47377  0.61583  Biso   1.000  O
  H164     1.0000 0.47203  0.45837  0.57567  Biso   1.000  H
  H165     1.0000 0.46863  0.50707  0.62867  Biso   1.000  H
  O90      1.0000 0.41433  0.57727  0.47617  Biso   1.000  O
  Cu16     1.0000 0.92998  0.46954  0.99062  Biso   1.000  Cu
  C241     1.0000 0.00280  0.40550  0.93179  Biso   1.000  C
  C242     1.0000 0.00630  0.34920  0.89289  Biso   1.000  C
  C243     1.0000 0.95520  0.31320  0.84707  Biso   1.000  C
  H166     1.0000 0.91790  0.32340  0.84030  Biso   1.000  H
  C244     1.0000 0.96070  0.26220  0.81171  Biso   1.000  C
  C245     1.0000 0.01400  0.24510  0.82350  Biso   1.000  C
  H167     1.0000 0.01600  0.20940  0.80040  Biso   1.000  H
  C246     1.0000 0.06480  0.27990  0.86909  Biso   1.000  C
  C247     1.0000 0.06110  0.33300  0.90307  Biso   1.000  C
  H168     1.0000 0.09590  0.35810  0.93310  Biso   1.000  H
  C248     1.0000 0.17710  0.29650  0.92090  Biso   1.000  C
  C249     1.0000 0.21680  0.25550  0.91670  Biso   1.000  C
  C250     1.0000 0.27780  0.26850  0.94780  Biso   1.000  C
  H169     1.0000 0.29940  0.30590  0.97630  Biso   1.000  H
  C251     1.0000 0.30620  0.22410  0.93530  Biso   1.000  C
  H170     1.0000 0.34740  0.23110  0.95610  Biso   1.000  H
  C252     1.0000 0.27520  0.17020  0.89310  Biso   1.000  C
  H171     1.0000 0.29610  0.14150  0.88500  Biso   1.000  H
  C253     1.0000 0.21310  0.15720  0.86180  Biso   1.000  C
  H172     1.0000 0.19170  0.12010  0.83310  Biso   1.000  H
  C254     1.0000 0.18410  0.20140  0.87460  Biso   1.000  C
  C255     1.0000 0.12150  0.20230  0.84800  Biso   1.000  C
  H173     1.0000 0.07730  0.15610  0.85430  Biso   1.000  H
  H174     1.0000 0.12850  0.21210  0.80450  Biso   1.000  H
  C256     1.0000 0.91120  0.22770  0.75853  Biso   1.000  C
  N16      1.0000 0.11804  0.26011  0.87945  Biso   1.000  N
  O91      1.0000 0.06082  0.45055  0.95745  Biso   1.000  O
  O92      1.0000 0.86599  0.24721  0.74672  Biso   1.000  O
  O93      1.0000 0.94267  0.40133  0.93811  Biso   1.000  O
  O94      1.0000 0.91923  0.18067  0.72912  Biso   1.000  O
  O95      1.0000 0.19290  0.34970  0.94916  Biso   1.000  O
  H175     1.0000 0.20830  0.34700  0.90900  Biso   1.000  H
  H176     1.0000 0.15960  0.29490  0.96200  Biso   1.000  H
  O96      1.0000 0.08940  0.17040  0.80950  Biso   1.000  O
  Cu17     1.0000 0.59665  0.80287  0.32395  Biso   1.000  Cu
  C257     1.0000 0.66947  0.73883  0.26512  Biso   1.000  C
  C258     1.0000 0.67297  0.68253  0.22622  Biso   1.000  C
  C259     1.0000 0.62187  0.64653  0.18040  Biso   1.000  C
  H177     1.0000 0.58457  0.65673  0.17363  Biso   1.000  H
  C260     1.0000 0.62737  0.59553  0.14504  Biso   1.000  C
  C261     1.0000 0.68067  0.57843  0.15683  Biso   1.000  C
  H178     1.0000 0.68267  0.54273  0.13373  Biso   1.000  H
  C262     1.0000 0.73147  0.61323  0.20242  Biso   1.000  C
  C263     1.0000 0.72777  0.66633  0.23640  Biso   1.000  C
  H179     1.0000 0.76257  0.69143  0.26643  Biso   1.000  H
  C264     1.0000 0.84377  0.62983  0.25423  Biso   1.000  C
  C265     1.0000 0.88347  0.58883  0.25003  Biso   1.000  C
  C266     1.0000 0.94447  0.60183  0.28113  Biso   1.000  C
  H180     1.0000 0.96607  0.63923  0.30963  Biso   1.000  H
  C267     1.0000 0.97287  0.55743  0.26863  Biso   1.000  C
  H181     1.0000 0.01407  0.56443  0.28943  Biso   1.000  H
  C268     1.0000 0.94187  0.50353  0.22643  Biso   1.000  C
  H182     1.0000 0.96277  0.47483  0.21833  Biso   1.000  H
  C269     1.0000 0.87977  0.49053  0.19513  Biso   1.000  C
  H183     1.0000 0.85837  0.45343  0.16643  Biso   1.000  H
  C270     1.0000 0.85077  0.53473  0.20793  Biso   1.000  C
  C271     1.0000 0.78817  0.53563  0.18133  Biso   1.000  C
  H184     1.0000 0.74397  0.48943  0.18763  Biso   1.000  H
  H185     1.0000 0.79517  0.54543  0.13783  Biso   1.000  H
  C272     1.0000 0.57787  0.56103  0.09186  Biso   1.000  C
  N17      1.0000 0.78471  0.59344  0.21278  Biso   1.000  N
  O97      1.0000 0.72749  0.78388  0.29078  Biso   1.000  O
  O98      1.0000 0.53266  0.58054  0.08005  Biso   1.000  O
  O99      1.0000 0.60934  0.73466  0.27144  Biso   1.000  O
  O100     1.0000 0.58590  0.51400  0.06245  Biso   1.000  O
  O101     1.0000 0.85957  0.68303  0.28249  Biso   1.000  O
  H186     1.0000 0.87497  0.68033  0.24233  Biso   1.000  H
  H187     1.0000 0.82627  0.62823  0.29533  Biso   1.000  H
  O102     1.0000 0.75607  0.50373  0.14283  Biso   1.000  O
  Cu18     1.0000 0.26331  0.13621  0.65729  Biso   1.000  Cu
  C273     1.0000 0.33613  0.07217  0.59846  Biso   1.000  C
  C274     1.0000 0.33963  0.01587  0.55956  Biso   1.000  C
  C275     1.0000 0.28853  0.97987  0.51374  Biso   1.000  C
  H188     1.0000 0.25123  0.99007  0.50697  Biso   1.000  H
  C276     1.0000 0.29403  0.92887  0.47838  Biso   1.000  C
  C277     1.0000 0.34733  0.91177  0.49017  Biso   1.000  C
  H189     1.0000 0.34933  0.87607  0.46707  Biso   1.000  H
  C278     1.0000 0.39813  0.94657  0.53576  Biso   1.000  C
  C279     1.0000 0.39443  0.99967  0.56974  Biso   1.000  C
  H190     1.0000 0.42923  0.02477  0.59977  Biso   1.000  H
  C280     1.0000 0.51043  0.96317  0.58757  Biso   1.000  C
  C281     1.0000 0.55013  0.92217  0.58337  Biso   1.000  C
  C282     1.0000 0.61113  0.93517  0.61447  Biso   1.000  C
  H191     1.0000 0.63273  0.97257  0.64297  Biso   1.000  H
  C283     1.0000 0.63953  0.89077  0.60197  Biso   1.000  C
  H192     1.0000 0.68073  0.89777  0.62277  Biso   1.000  H
  C284     1.0000 0.60853  0.83687  0.55977  Biso   1.000  C
  H193     1.0000 0.62943  0.80817  0.55167  Biso   1.000  H
  C285     1.0000 0.54643  0.82387  0.52847  Biso   1.000  C
  H194     1.0000 0.52503  0.78677  0.49977  Biso   1.000  H
  C286     1.0000 0.51743  0.86807  0.54127  Biso   1.000  C
  C287     1.0000 0.45483  0.86897  0.51467  Biso   1.000  C
  H195     1.0000 0.41063  0.82277  0.52097  Biso   1.000  H
  H196     1.0000 0.46183  0.87877  0.47117  Biso   1.000  H
  C288     1.0000 0.24453  0.89437  0.42520  Biso   1.000  C
  N18      1.0000 0.45137  0.92678  0.54612  Biso   1.000  N
  O103     1.0000 0.39415  0.11722  0.62412  Biso   1.000  O
  O104     1.0000 0.19932  0.91388  0.41339  Biso   1.000  O
  O105     1.0000 0.27600  0.06800  0.60478  Biso   1.000  O
  O106     1.0000 0.25256  0.84734  0.39579  Biso   1.000  O
  O107     1.0000 0.52623  0.01637  0.61583  Biso   1.000  O
  H197     1.0000 0.54163  0.01367  0.57567  Biso   1.000  H
  H198     1.0000 0.49293  0.96157  0.62867  Biso   1.000  H
  O108     1.0000 0.42273  0.83707  0.47617  Biso   1.000  O
