data_image0
_cell_length_a       10.406
_cell_length_b       27.2442
_cell_length_c       13.1722
_cell_angle_alpha    90
_cell_angle_beta     102.395
_cell_angle_gamma    90

_symmetry_space_group_name_H-M    "P 1"
_symmetry_int_tables_number       1

loop_
  _symmetry_equiv_pos_as_xyz
  'x, y, z'

loop_
  _atom_site_label
  _atom_site_occupancy
  _atom_site_fract_x
  _atom_site_fract_y
  _atom_site_fract_z
  _atom_site_thermal_displace_type
  _atom_site_B_iso_or_equiv
  _atom_site_type_symbol
  Cd1      1.0000 0.02664  0.07005  0.38025  Biso   1.000  Cd
  Cd2      1.0000 0.26989  0.88271  0.80240  Biso   1.000  Cd
  Cd3      1.0000 0.22885  0.18832  0.15920  Biso   1.000  Cd
  Si1      1.0000 0.65068  0.04853  0.81434  Biso   1.000  Si
  O1       1.0000 0.67310  0.23202  0.68270  Biso   1.000  O
  O2       1.0000 0.62350  0.28386  0.79290  Biso   1.000  O
  O3       1.0000 0.39030  0.20450  0.07460  Biso   1.000  O
  O4       1.0000 0.52370  0.14437  0.14880  Biso   1.000  O
  O5       1.0000 0.04990  0.15710  0.04500  Biso   1.000  O
  O6       1.0000 0.22490  0.11033  0.07690  Biso   1.000  O
  O7       1.0000 0.23900  0.95432  0.88820  Biso   1.000  O
  O8       1.0000 0.05870  0.92446  0.78870  Biso   1.000  O
  O9       1.0000 0.87340  0.07113  0.47760  Biso   1.000  O
  O10      1.0000 0.71210  0.07120  0.33630  Biso   1.000  O
  O11      1.0000 0.24990  0.07545  0.37190  Biso   1.000  O
  O12      1.0000 0.20220  0.04967  0.51670  Biso   1.000  O
  C1       1.0000 0.56710  0.99708  0.86650  Biso   1.000  C
  H1       1.0000 0.58260  0.99960  0.94090  Biso   1.000  H
  H2       1.0000 0.60140  0.96640  0.84790  Biso   1.000  H
  H3       1.0000 0.47430  0.99860  0.83780  Biso   1.000  H
  C2       1.0000 0.60070  0.11004  0.85530  Biso   1.000  C
  C3       1.0000 0.62290  0.15127  0.79760  Biso   1.000  C
  H4       1.0000 0.65560  0.14660  0.73790  Biso   1.000  H
  C4       1.0000 0.59770  0.19876  0.82640  Biso   1.000  C
  C5       1.0000 0.54570  0.20595  0.91440  Biso   1.000  C
  H5       1.0000 0.52520  0.23740  0.93310  Biso   1.000  H
  C6       1.0000 0.52450  0.16583  0.97410  Biso   1.000  C
  C7       1.0000 0.55310  0.11871  0.94450  Biso   1.000  C
  H6       1.0000 0.53990  0.09220  0.98570  Biso   1.000  H
  C8       1.0000 0.47690  0.17231  0.07310  Biso   1.000  C
  C9       1.0000 0.63170  0.24054  0.76330  Biso   1.000  C
  C10      1.0000 0.83470  0.04512  0.85830  Biso   1.000  C
  C11      1.0000 0.90460  0.08272  0.91900  Biso   1.000  C
  H7       1.0000 0.85970  0.11050  0.93320  Biso   1.000  H
  C12      1.0000 0.03900  0.07936  0.95830  Biso   1.000  C
  C13      1.0000 0.10830  0.03902  0.93460  Biso   1.000  C
  H8       1.0000 0.19870  0.03700  0.96010  Biso   1.000  H
  C14      1.0000 0.04260  0.00161  0.87300  Biso   1.000  C
  C15      1.0000 0.90660  0.00445  0.83620  Biso   1.000  C
  H9       1.0000 0.86280  0.97890  0.79640  Biso   1.000  H
  C16      1.0000 0.10950  0.11780  0.03050  Biso   1.000  C
  C17      1.0000 0.11870  0.95823  0.84850  Biso   1.000  C
  C18      1.0000 0.60320  0.05079  0.66900  Biso   1.000  C
  C19      1.0000 0.69440  0.05741  0.60620  Biso   1.000  C
  H10      1.0000 0.78370  0.05790  0.63670  Biso   1.000  H
  C20      1.0000 0.65510  0.06324  0.49960  Biso   1.000  C
  C21      1.0000 0.52180  0.06346  0.45320  Biso   1.000  C
  H11      1.0000 0.49490  0.06700  0.38150  Biso   1.000  H
  C22      1.0000 0.42930  0.05846  0.51390  Biso   1.000  C
  C23      1.0000 0.46950  0.05117  0.62040  Biso   1.000  C
  H12      1.0000 0.40670  0.04650  0.66010  Biso   1.000  H
  C24      1.0000 0.75310  0.06909  0.43180  Biso   1.000  C
  C25      1.0000 0.28540  0.06106  0.46470  Biso   1.000  C
  Cd4      1.0000 0.47336  0.57005  0.11975  Biso   1.000  Cd
  Cd5      1.0000 0.23011  0.38271  0.69760  Biso   1.000  Cd
  Cd6      1.0000 0.27115  0.68832  0.34080  Biso   1.000  Cd
  Si2      1.0000 0.84932  0.54853  0.68566  Biso   1.000  Si
  O13      1.0000 0.82690  0.73202  0.81730  Biso   1.000  O
  O14      1.0000 0.87650  0.78386  0.70710  Biso   1.000  O
  O15      1.0000 0.10970  0.70450  0.42540  Biso   1.000  O
  O16      1.0000 0.97630  0.64437  0.35120  Biso   1.000  O
  O17      1.0000 0.45010  0.65710  0.45500  Biso   1.000  O
  O18      1.0000 0.27510  0.61033  0.42310  Biso   1.000  O
  O19      1.0000 0.26100  0.45432  0.61180  Biso   1.000  O
  O20      1.0000 0.44130  0.42446  0.71130  Biso   1.000  O
  O21      1.0000 0.62660  0.57113  0.02240  Biso   1.000  O
  O22      1.0000 0.78790  0.57120  0.16370  Biso   1.000  O
  O23      1.0000 0.25010  0.57545  0.12810  Biso   1.000  O
  O24      1.0000 0.29780  0.54967  0.98330  Biso   1.000  O
  C26      1.0000 0.93290  0.49708  0.63350  Biso   1.000  C
  H13      1.0000 0.91740  0.49960  0.55910  Biso   1.000  H
  H14      1.0000 0.89860  0.46640  0.65210  Biso   1.000  H
  H15      1.0000 0.02570  0.49860  0.66220  Biso   1.000  H
  C27      1.0000 0.89930  0.61004  0.64470  Biso   1.000  C
  C28      1.0000 0.87710  0.65127  0.70240  Biso   1.000  C
  H16      1.0000 0.84440  0.64660  0.76210  Biso   1.000  H
  C29      1.0000 0.90230  0.69876  0.67360  Biso   1.000  C
  C30      1.0000 0.95430  0.70595  0.58560  Biso   1.000  C
  H17      1.0000 0.97480  0.73740  0.56690  Biso   1.000  H
  C31      1.0000 0.97550  0.66583  0.52590  Biso   1.000  C
  C32      1.0000 0.94690  0.61871  0.55550  Biso   1.000  C
  H18      1.0000 0.96010  0.59220  0.51430  Biso   1.000  H
  C33      1.0000 0.02310  0.67231  0.42690  Biso   1.000  C
  C34      1.0000 0.86830  0.74054  0.73670  Biso   1.000  C
  C35      1.0000 0.66530  0.54512  0.64170  Biso   1.000  C
  C36      1.0000 0.59540  0.58272  0.58100  Biso   1.000  C
  H19      1.0000 0.64030  0.61050  0.56680  Biso   1.000  H
  C37      1.0000 0.46100  0.57936  0.54170  Biso   1.000  C
  C38      1.0000 0.39170  0.53902  0.56540  Biso   1.000  C
  H20      1.0000 0.30130  0.53700  0.53990  Biso   1.000  H
  C39      1.0000 0.45740  0.50161  0.62700  Biso   1.000  C
  C40      1.0000 0.59340  0.50445  0.66380  Biso   1.000  C
  H21      1.0000 0.63720  0.47890  0.70360  Biso   1.000  H
  C41      1.0000 0.39050  0.61780  0.46950  Biso   1.000  C
  C42      1.0000 0.38130  0.45823  0.65150  Biso   1.000  C
  C43      1.0000 0.89680  0.55079  0.83100  Biso   1.000  C
  C44      1.0000 0.80560  0.55741  0.89380  Biso   1.000  C
  H22      1.0000 0.71630  0.55790  0.86330  Biso   1.000  H
  C45      1.0000 0.84490  0.56324  0.00040  Biso   1.000  C
  C46      1.0000 0.97820  0.56346  0.04680  Biso   1.000  C
  H23      1.0000 0.00510  0.56700  0.11850  Biso   1.000  H
  C47      1.0000 0.07070  0.55846  0.98610  Biso   1.000  C
  C48      1.0000 0.03050  0.55117  0.87960  Biso   1.000  C
  H24      1.0000 0.09330  0.54650  0.83990  Biso   1.000  H
  C49      1.0000 0.74690  0.56909  0.06820  Biso   1.000  C
  C50      1.0000 0.21460  0.56106  0.03530  Biso   1.000  C
  Cd7      1.0000 0.97336  0.92995  0.61975  Biso   1.000  Cd
  Cd8      1.0000 0.73011  0.11729  0.19760  Biso   1.000  Cd
  Cd9      1.0000 0.77115  0.81168  0.84080  Biso   1.000  Cd
  Si3      1.0000 0.34932  0.95147  0.18566  Biso   1.000  Si
  O25      1.0000 0.32690  0.76798  0.31730  Biso   1.000  O
  O26      1.0000 0.37650  0.71614  0.20710  Biso   1.000  O
  O27      1.0000 0.60970  0.79550  0.92540  Biso   1.000  O
  O28      1.0000 0.47630  0.85563  0.85120  Biso   1.000  O
  O29      1.0000 0.95010  0.84290  0.95500  Biso   1.000  O
  O30      1.0000 0.77510  0.88967  0.92310  Biso   1.000  O
  O31      1.0000 0.76100  0.04568  0.11180  Biso   1.000  O
  O32      1.0000 0.94130  0.07554  0.21130  Biso   1.000  O
  O33      1.0000 0.12660  0.92887  0.52240  Biso   1.000  O
  O34      1.0000 0.28790  0.92880  0.66370  Biso   1.000  O
  O35      1.0000 0.75010  0.92455  0.62810  Biso   1.000  O
  O36      1.0000 0.79780  0.95033  0.48330  Biso   1.000  O
  C51      1.0000 0.43290  0.00292  0.13350  Biso   1.000  C
  H25      1.0000 0.41740  0.00040  0.05910  Biso   1.000  H
  H26      1.0000 0.39860  0.03360  0.15210  Biso   1.000  H
  H27      1.0000 0.52570  0.00140  0.16220  Biso   1.000  H
  C52      1.0000 0.39930  0.88996  0.14470  Biso   1.000  C
  C53      1.0000 0.37710  0.84873  0.20240  Biso   1.000  C
  H28      1.0000 0.34440  0.85340  0.26210  Biso   1.000  H
  C54      1.0000 0.40230  0.80124  0.17360  Biso   1.000  C
  C55      1.0000 0.45430  0.79405  0.08560  Biso   1.000  C
  H29      1.0000 0.47480  0.76260  0.06690  Biso   1.000  H
  C56      1.0000 0.47550  0.83417  0.02590  Biso   1.000  C
  C57      1.0000 0.44690  0.88129  0.05550  Biso   1.000  C
  H30      1.0000 0.46010  0.90780  0.01430  Biso   1.000  H
  C58      1.0000 0.52310  0.82769  0.92690  Biso   1.000  C
  C59      1.0000 0.36830  0.75946  0.23670  Biso   1.000  C
  C60      1.0000 0.16530  0.95488  0.14170  Biso   1.000  C
  C61      1.0000 0.09540  0.91728  0.08100  Biso   1.000  C
  H31      1.0000 0.14030  0.88950  0.06680  Biso   1.000  H
  C62      1.0000 0.96100  0.92064  0.04170  Biso   1.000  C
  C63      1.0000 0.89170  0.96098  0.06540  Biso   1.000  C
  H32      1.0000 0.80130  0.96300  0.03990  Biso   1.000  H
  C64      1.0000 0.95740  0.99839  0.12700  Biso   1.000  C
  C65      1.0000 0.09340  0.99555  0.16380  Biso   1.000  C
  H33      1.0000 0.13720  0.02110  0.20360  Biso   1.000  H
  C66      1.0000 0.89050  0.88220  0.96950  Biso   1.000  C
  C67      1.0000 0.88130  0.04177  0.15150  Biso   1.000  C
  C68      1.0000 0.39680  0.94921  0.33100  Biso   1.000  C
  C69      1.0000 0.30560  0.94259  0.39380  Biso   1.000  C
  H34      1.0000 0.21630  0.94210  0.36330  Biso   1.000  H
  C70      1.0000 0.34490  0.93676  0.50040  Biso   1.000  C
  C71      1.0000 0.47820  0.93654  0.54680  Biso   1.000  C
  H35      1.0000 0.50510  0.93300  0.61850  Biso   1.000  H
  C72      1.0000 0.57070  0.94154  0.48610  Biso   1.000  C
  C73      1.0000 0.53050  0.94883  0.37960  Biso   1.000  C
  H36      1.0000 0.59330  0.95350  0.33990  Biso   1.000  H
  C74      1.0000 0.24690  0.93091  0.56820  Biso   1.000  C
  C75      1.0000 0.71460  0.93894  0.53530  Biso   1.000  C
  Cd10     1.0000 0.52664  0.42995  0.88025  Biso   1.000  Cd
  Cd11     1.0000 0.76989  0.61729  0.30240  Biso   1.000  Cd
  Cd12     1.0000 0.72885  0.31168  0.65920  Biso   1.000  Cd
  Si4      1.0000 0.15068  0.45147  0.31434  Biso   1.000  Si
  O37      1.0000 0.17310  0.26798  0.18270  Biso   1.000  O
  O38      1.0000 0.12350  0.21614  0.29290  Biso   1.000  O
  O39      1.0000 0.89030  0.29550  0.57460  Biso   1.000  O
  O40      1.0000 0.02370  0.35563  0.64880  Biso   1.000  O
  O41      1.0000 0.54990  0.34290  0.54500  Biso   1.000  O
  O42      1.0000 0.72490  0.38967  0.57690  Biso   1.000  O
  O43      1.0000 0.73900  0.54568  0.38820  Biso   1.000  O
  O44      1.0000 0.55870  0.57554  0.28870  Biso   1.000  O
  O45      1.0000 0.37340  0.42887  0.97760  Biso   1.000  O
  O46      1.0000 0.21210  0.42880  0.83630  Biso   1.000  O
  O47      1.0000 0.74990  0.42455  0.87190  Biso   1.000  O
  O48      1.0000 0.70220  0.45033  0.01670  Biso   1.000  O
  C76      1.0000 0.06710  0.50292  0.36650  Biso   1.000  C
  H37      1.0000 0.08260  0.50040  0.44090  Biso   1.000  H
  H38      1.0000 0.10140  0.53360  0.34790  Biso   1.000  H
  H39      1.0000 0.97430  0.50140  0.33780  Biso   1.000  H
  C77      1.0000 0.10070  0.38996  0.35530  Biso   1.000  C
  C78      1.0000 0.12290  0.34873  0.29760  Biso   1.000  C
  H40      1.0000 0.15560  0.35340  0.23790  Biso   1.000  H
  C79      1.0000 0.09770  0.30124  0.32640  Biso   1.000  C
  C80      1.0000 0.04570  0.29405  0.41440  Biso   1.000  C
  H41      1.0000 0.02520  0.26260  0.43310  Biso   1.000  H
  C81      1.0000 0.02450  0.33417  0.47410  Biso   1.000  C
  C82      1.0000 0.05310  0.38129  0.44450  Biso   1.000  C
  H42      1.0000 0.03990  0.40780  0.48570  Biso   1.000  H
  C83      1.0000 0.97690  0.32769  0.57310  Biso   1.000  C
  C84      1.0000 0.13170  0.25946  0.26330  Biso   1.000  C
  C85      1.0000 0.33470  0.45488  0.35830  Biso   1.000  C
  C86      1.0000 0.40460  0.41728  0.41900  Biso   1.000  C
  H43      1.0000 0.35970  0.38950  0.43320  Biso   1.000  H
  C87      1.0000 0.53900  0.42064  0.45830  Biso   1.000  C
  C88      1.0000 0.60830  0.46098  0.43460  Biso   1.000  C
  H44      1.0000 0.69870  0.46300  0.46010  Biso   1.000  H
  C89      1.0000 0.54260  0.49839  0.37300  Biso   1.000  C
  C90      1.0000 0.40660  0.49555  0.33620  Biso   1.000  C
  H45      1.0000 0.36280  0.52110  0.29640  Biso   1.000  H
  C91      1.0000 0.60950  0.38220  0.53050  Biso   1.000  C
  C92      1.0000 0.61870  0.54177  0.34850  Biso   1.000  C
  C93      1.0000 0.10320  0.44921  0.16900  Biso   1.000  C
  C94      1.0000 0.19440  0.44259  0.10620  Biso   1.000  C
  H46      1.0000 0.28370  0.44210  0.13670  Biso   1.000  H
  C95      1.0000 0.15510  0.43676  0.99960  Biso   1.000  C
  C96      1.0000 0.02180  0.43654  0.95320  Biso   1.000  C
  H47      1.0000 0.99490  0.43300  0.88150  Biso   1.000  H
  C97      1.0000 0.92930  0.44154  0.01390  Biso   1.000  C
  C98      1.0000 0.96950  0.44883  0.12040  Biso   1.000  C
  H48      1.0000 0.90670  0.45350  0.16010  Biso   1.000  H
  C99      1.0000 0.25310  0.43091  0.93180  Biso   1.000  C
  C100     1.0000 0.78540  0.43894  0.96470  Biso   1.000  C
