data_image0
_cell_length_a       18.923
_cell_length_b       16.5046
_cell_length_c       7.8437
_cell_angle_alpha    90
_cell_angle_beta     91.868
_cell_angle_gamma    90

_symmetry_space_group_name_H-M    "P 1"
_symmetry_int_tables_number       1

loop_
  _symmetry_equiv_pos_as_xyz
  'x, y, z'

loop_
  _atom_site_label
  _atom_site_occupancy
  _atom_site_fract_x
  _atom_site_fract_y
  _atom_site_fract_z
  _atom_site_thermal_displace_type
  _atom_site_B_iso_or_equiv
  _atom_site_type_symbol
  O1       1.0000 0.06290  0.80140  0.86300  Biso   1.000  O
  O2       1.0000 0.06600  0.02370  0.35300  Biso   1.000  O
  O3       1.0000 0.08370  0.64720  0.88000  Biso   1.000  O
  C1       1.0000 0.11900  0.87530  0.23600  Biso   1.000  C
  P1       1.0000 0.06720  0.72360  0.98860  Biso   1.000  P
  O4       1.0000 0.99840  0.70840  0.06300  Biso   1.000  O
  O5       1.0000 0.17170  0.96800  0.50400  Biso   1.000  O
  P2       1.0000 0.10450  0.94600  0.40630  Biso   1.000  P
  N1       1.0000 0.12450  0.78980  0.29800  Biso   1.000  N
  C2       1.0000 0.25340  0.80400  0.35000  Biso   1.000  C
  C3       1.0000 0.13650  0.73670  0.15400  Biso   1.000  C
  C4       1.0000 0.18230  0.78900  0.43200  Biso   1.000  C
  C5       1.0000 0.18720  0.70500  0.51000  Biso   1.000  C
  O6       1.0000 0.05700  0.89730  0.53800  Biso   1.000  O
  O7       1.0000 0.56290  0.30140  0.86300  Biso   1.000  O
  O8       1.0000 0.56600  0.52370  0.35300  Biso   1.000  O
  O9       1.0000 0.58370  0.14720  0.88000  Biso   1.000  O
  C6       1.0000 0.61900  0.37530  0.23600  Biso   1.000  C
  P3       1.0000 0.56720  0.22360  0.98860  Biso   1.000  P
  O10      1.0000 0.49840  0.20840  0.06300  Biso   1.000  O
  O11      1.0000 0.67170  0.46800  0.50400  Biso   1.000  O
  P4       1.0000 0.60450  0.44600  0.40630  Biso   1.000  P
  N2       1.0000 0.62450  0.28980  0.29800  Biso   1.000  N
  C7       1.0000 0.75340  0.30400  0.35000  Biso   1.000  C
  C8       1.0000 0.63650  0.23670  0.15400  Biso   1.000  C
  C9       1.0000 0.68230  0.28900  0.43200  Biso   1.000  C
  C10      1.0000 0.68720  0.20500  0.51000  Biso   1.000  C
  O12      1.0000 0.55700  0.39730  0.53800  Biso   1.000  O
  O13      1.0000 0.93710  0.80140  0.63700  Biso   1.000  O
  O14      1.0000 0.93400  0.02370  0.14700  Biso   1.000  O
  O15      1.0000 0.91630  0.64720  0.62000  Biso   1.000  O
  C11      1.0000 0.88100  0.87530  0.26400  Biso   1.000  C
  P5       1.0000 0.93280  0.72360  0.51140  Biso   1.000  P
  O16      1.0000 0.00160  0.70840  0.43700  Biso   1.000  O
  O17      1.0000 0.82830  0.96800  0.99600  Biso   1.000  O
  P6       1.0000 0.89550  0.94600  0.09370  Biso   1.000  P
  N3       1.0000 0.87550  0.78980  0.20200  Biso   1.000  N
  C12      1.0000 0.74660  0.80400  0.15000  Biso   1.000  C
  C13      1.0000 0.86350  0.73670  0.34600  Biso   1.000  C
  C14      1.0000 0.81770  0.78900  0.06800  Biso   1.000  C
  C15      1.0000 0.81280  0.70500  0.99000  Biso   1.000  C
  O18      1.0000 0.94300  0.89730  0.96200  Biso   1.000  O
  O19      1.0000 0.43710  0.30140  0.63700  Biso   1.000  O
  O20      1.0000 0.43400  0.52370  0.14700  Biso   1.000  O
  O21      1.0000 0.41630  0.14720  0.62000  Biso   1.000  O
  C16      1.0000 0.38100  0.37530  0.26400  Biso   1.000  C
  P7       1.0000 0.43280  0.22360  0.51140  Biso   1.000  P
  O22      1.0000 0.50160  0.20840  0.43700  Biso   1.000  O
  O23      1.0000 0.32830  0.46800  0.99600  Biso   1.000  O
  P8       1.0000 0.39550  0.44600  0.09370  Biso   1.000  P
  N4       1.0000 0.37550  0.28980  0.20200  Biso   1.000  N
  C17      1.0000 0.24660  0.30400  0.15000  Biso   1.000  C
  C18      1.0000 0.36350  0.23670  0.34600  Biso   1.000  C
  C19      1.0000 0.31770  0.28900  0.06800  Biso   1.000  C
  C20      1.0000 0.31280  0.20500  0.99000  Biso   1.000  C
  O24      1.0000 0.44300  0.39730  0.96200  Biso   1.000  O
  O25      1.0000 0.93710  0.19860  0.13700  Biso   1.000  O
  O26      1.0000 0.93400  0.97630  0.64700  Biso   1.000  O
  O27      1.0000 0.91630  0.35280  0.12000  Biso   1.000  O
  C21      1.0000 0.88100  0.12470  0.76400  Biso   1.000  C
  P9       1.0000 0.93280  0.27640  0.01140  Biso   1.000  P
  O28      1.0000 0.00160  0.29160  0.93700  Biso   1.000  O
  O29      1.0000 0.82830  0.03200  0.49600  Biso   1.000  O
  P10      1.0000 0.89550  0.05400  0.59370  Biso   1.000  P
  N5       1.0000 0.87550  0.21020  0.70200  Biso   1.000  N
  C22      1.0000 0.74660  0.19600  0.65000  Biso   1.000  C
  C23      1.0000 0.86350  0.26330  0.84600  Biso   1.000  C
  C24      1.0000 0.81770  0.21100  0.56800  Biso   1.000  C
  C25      1.0000 0.81280  0.29500  0.49000  Biso   1.000  C
  O30      1.0000 0.94300  0.10270  0.46200  Biso   1.000  O
  O31      1.0000 0.43710  0.69860  0.13700  Biso   1.000  O
  O32      1.0000 0.43400  0.47630  0.64700  Biso   1.000  O
  O33      1.0000 0.41630  0.85280  0.12000  Biso   1.000  O
  C26      1.0000 0.38100  0.62470  0.76400  Biso   1.000  C
  P11      1.0000 0.43280  0.77640  0.01140  Biso   1.000  P
  O34      1.0000 0.50160  0.79160  0.93700  Biso   1.000  O
  O35      1.0000 0.32830  0.53200  0.49600  Biso   1.000  O
  P12      1.0000 0.39550  0.55400  0.59370  Biso   1.000  P
  N6       1.0000 0.37550  0.71020  0.70200  Biso   1.000  N
  C27      1.0000 0.24660  0.69600  0.65000  Biso   1.000  C
  C28      1.0000 0.36350  0.76330  0.84600  Biso   1.000  C
  C29      1.0000 0.31770  0.71100  0.56800  Biso   1.000  C
  C30      1.0000 0.31280  0.79500  0.49000  Biso   1.000  C
  O36      1.0000 0.44300  0.60270  0.46200  Biso   1.000  O
  O37      1.0000 0.06290  0.19860  0.36300  Biso   1.000  O
  O38      1.0000 0.06600  0.97630  0.85300  Biso   1.000  O
  O39      1.0000 0.08370  0.35280  0.38000  Biso   1.000  O
  C31      1.0000 0.11900  0.12470  0.73600  Biso   1.000  C
  P13      1.0000 0.06720  0.27640  0.48860  Biso   1.000  P
  O40      1.0000 0.99840  0.29160  0.56300  Biso   1.000  O
  O41      1.0000 0.17170  0.03200  0.00400  Biso   1.000  O
  P14      1.0000 0.10450  0.05400  0.90630  Biso   1.000  P
  N7       1.0000 0.12450  0.21020  0.79800  Biso   1.000  N
  C32      1.0000 0.25340  0.19600  0.85000  Biso   1.000  C
  C33      1.0000 0.13650  0.26330  0.65400  Biso   1.000  C
  C34      1.0000 0.18230  0.21100  0.93200  Biso   1.000  C
  C35      1.0000 0.18720  0.29500  0.01000  Biso   1.000  C
  O42      1.0000 0.05700  0.10270  0.03800  Biso   1.000  O
  O43      1.0000 0.56290  0.69860  0.36300  Biso   1.000  O
  O44      1.0000 0.56600  0.47630  0.85300  Biso   1.000  O
  O45      1.0000 0.58370  0.85280  0.38000  Biso   1.000  O
  C36      1.0000 0.61900  0.62470  0.73600  Biso   1.000  C
  P15      1.0000 0.56720  0.77640  0.48860  Biso   1.000  P
  O46      1.0000 0.49840  0.79160  0.56300  Biso   1.000  O
  O47      1.0000 0.67170  0.53200  0.00400  Biso   1.000  O
  P16      1.0000 0.60450  0.55400  0.90630  Biso   1.000  P
  N8       1.0000 0.62450  0.71020  0.79800  Biso   1.000  N
  C37      1.0000 0.75340  0.69600  0.85000  Biso   1.000  C
  C38      1.0000 0.63650  0.76330  0.65400  Biso   1.000  C
  C39      1.0000 0.68230  0.71100  0.93200  Biso   1.000  C
  C40      1.0000 0.68720  0.79500  0.01000  Biso   1.000  C
  O48      1.0000 0.55700  0.60270  0.03800  Biso   1.000  O
  Zr1      1.0000 0.00000  0.89140  0.75000  Biso   1.000  Zr
  Zr2      1.0000 0.50000  0.39140  0.75000  Biso   1.000  Zr
  Zr3      1.0000 0.00000  0.10860  0.25000  Biso   1.000  Zr
  Zr4      1.0000 0.50000  0.60860  0.25000  Biso   1.000  Zr
