data_image0
_cell_length_a       16.9751
_cell_length_b       10.9659
_cell_length_c       22.442
_cell_angle_alpha    90
_cell_angle_beta     109.714
_cell_angle_gamma    90

_symmetry_space_group_name_H-M    "P 1"
_symmetry_int_tables_number       1

loop_
  _symmetry_equiv_pos_as_xyz
  'x, y, z'

loop_
  _atom_site_label
  _atom_site_occupancy
  _atom_site_fract_x
  _atom_site_fract_y
  _atom_site_fract_z
  _atom_site_thermal_displace_type
  _atom_site_B_iso_or_equiv
  _atom_site_type_symbol
  Zn1      1.0000 0.19942  0.03070  0.28337  Biso   1.000  Zn
  Zn2      1.0000 0.07200  0.07541  0.13554  Biso   1.000  Zn
  O1       1.0000 0.20610  0.04690  0.37157  Biso   1.000  O
  O2       1.0000 0.33560  0.10990  0.38801  Biso   1.000  O
  O3       1.0000 0.11820  0.93740  0.55530  Biso   1.000  O
  O4       1.0000 0.17830  0.03600  0.64348  Biso   1.000  O
  O5       1.0000 0.44023  0.25600  0.68064  Biso   1.000  O
  O6       1.0000 0.47907  0.30560  0.59860  Biso   1.000  O
  O7       1.0000 0.07781  0.02560  0.22959  Biso   1.000  O
  C1       1.0000 0.28650  0.09930  0.47556  Biso   1.000  C
  C2       1.0000 0.22720  0.04810  0.49899  Biso   1.000  C
  H1       1.0000 0.18110  0.00690  0.47190  Biso   1.000  H
  C3       1.0000 0.23760  0.05900  0.56267  Biso   1.000  C
  C4       1.0000 0.30520  0.12420  0.60272  Biso   1.000  C
  H2       1.0000 0.31110  0.13250  0.64530  Biso   1.000  H
  C5       1.0000 0.36340  0.17670  0.58013  Biso   1.000  C
  C6       1.0000 0.35330  0.16390  0.51620  Biso   1.000  C
  H3       1.0000 0.39210  0.19930  0.50050  Biso   1.000  H
  C7       1.0000 0.27630  0.08600  0.40710  Biso   1.000  C
  C8       1.0000 0.17420  0.00670  0.58840  Biso   1.000  C
  C9       1.0000 0.43300  0.25340  0.62332  Biso   1.000  C
  C10      1.0000 0.26560  0.27950  0.26102  Biso   1.000  C
  H4       1.0000 0.30920  0.28300  0.29960  Biso   1.000  H
  C11      1.0000 0.17900  0.32490  0.17190  Biso   1.000  C
  H5       1.0000 0.15020  0.36730  0.13500  Biso   1.000  H
  N1       1.0000 0.15910  0.21510  0.18397  Biso   1.000  N
  N2       1.0000 0.21610  0.18480  0.24158  Biso   1.000  N
  N3       1.0000 0.24570  0.37070  0.21846  Biso   1.000  N
  Zn3      1.0000 0.69942  0.53070  0.28337  Biso   1.000  Zn
  Zn4      1.0000 0.57200  0.57541  0.13554  Biso   1.000  Zn
  O8       1.0000 0.70610  0.54690  0.37157  Biso   1.000  O
  O9       1.0000 0.83560  0.60990  0.38801  Biso   1.000  O
  O10      1.0000 0.61820  0.43740  0.55530  Biso   1.000  O
  O11      1.0000 0.67830  0.53600  0.64348  Biso   1.000  O
  O12      1.0000 0.94023  0.75600  0.68064  Biso   1.000  O
  O13      1.0000 0.97907  0.80560  0.59860  Biso   1.000  O
  O14      1.0000 0.57781  0.52560  0.22959  Biso   1.000  O
  C12      1.0000 0.78650  0.59930  0.47556  Biso   1.000  C
  C13      1.0000 0.72720  0.54810  0.49899  Biso   1.000  C
  H6       1.0000 0.68110  0.50690  0.47190  Biso   1.000  H
  C14      1.0000 0.73760  0.55900  0.56267  Biso   1.000  C
  C15      1.0000 0.80520  0.62420  0.60272  Biso   1.000  C
  H7       1.0000 0.81110  0.63250  0.64530  Biso   1.000  H
  C16      1.0000 0.86340  0.67670  0.58013  Biso   1.000  C
  C17      1.0000 0.85330  0.66390  0.51620  Biso   1.000  C
  H8       1.0000 0.89210  0.69930  0.50050  Biso   1.000  H
  C18      1.0000 0.77630  0.58600  0.40710  Biso   1.000  C
  C19      1.0000 0.67420  0.50670  0.58840  Biso   1.000  C
  C20      1.0000 0.93300  0.75340  0.62332  Biso   1.000  C
  C21      1.0000 0.76560  0.77950  0.26102  Biso   1.000  C
  H9       1.0000 0.80920  0.78300  0.29960  Biso   1.000  H
  C22      1.0000 0.67900  0.82490  0.17190  Biso   1.000  C
  H10      1.0000 0.65020  0.86730  0.13500  Biso   1.000  H
  N4       1.0000 0.65910  0.71510  0.18397  Biso   1.000  N
  N5       1.0000 0.71610  0.68480  0.24158  Biso   1.000  N
  N6       1.0000 0.74570  0.87070  0.21846  Biso   1.000  N
  Zn5      1.0000 0.80058  0.03070  0.21663  Biso   1.000  Zn
  Zn6      1.0000 0.92800  0.07541  0.36446  Biso   1.000  Zn
  O15      1.0000 0.79390  0.04690  0.12843  Biso   1.000  O
  O16      1.0000 0.66440  0.10990  0.11199  Biso   1.000  O
  O17      1.0000 0.88180  0.93740  0.94470  Biso   1.000  O
  O18      1.0000 0.82170  0.03600  0.85652  Biso   1.000  O
  O19      1.0000 0.55977  0.25600  0.81936  Biso   1.000  O
  O20      1.0000 0.52093  0.30560  0.90140  Biso   1.000  O
  O21      1.0000 0.92219  0.02560  0.27041  Biso   1.000  O
  C23      1.0000 0.71350  0.09930  0.02444  Biso   1.000  C
  C24      1.0000 0.77280  0.04810  0.00101  Biso   1.000  C
  H11      1.0000 0.81890  0.00690  0.02810  Biso   1.000  H
  C25      1.0000 0.76240  0.05900  0.93733  Biso   1.000  C
  C26      1.0000 0.69480  0.12420  0.89728  Biso   1.000  C
  H12      1.0000 0.68890  0.13250  0.85470  Biso   1.000  H
  C27      1.0000 0.63660  0.17670  0.91987  Biso   1.000  C
  C28      1.0000 0.64670  0.16390  0.98380  Biso   1.000  C
  H13      1.0000 0.60790  0.19930  0.99950  Biso   1.000  H
  C29      1.0000 0.72370  0.08600  0.09290  Biso   1.000  C
  C30      1.0000 0.82580  0.00670  0.91160  Biso   1.000  C
  C31      1.0000 0.56700  0.25340  0.87668  Biso   1.000  C
  C32      1.0000 0.73440  0.27950  0.23898  Biso   1.000  C
  H14      1.0000 0.69080  0.28300  0.20040  Biso   1.000  H
  C33      1.0000 0.82100  0.32490  0.32810  Biso   1.000  C
  H15      1.0000 0.84980  0.36730  0.36500  Biso   1.000  H
  N7       1.0000 0.84090  0.21510  0.31603  Biso   1.000  N
  N8       1.0000 0.78390  0.18480  0.25842  Biso   1.000  N
  N9       1.0000 0.75430  0.37070  0.28154  Biso   1.000  N
  Zn7      1.0000 0.30058  0.53070  0.21663  Biso   1.000  Zn
  Zn8      1.0000 0.42800  0.57541  0.36446  Biso   1.000  Zn
  O22      1.0000 0.29390  0.54690  0.12843  Biso   1.000  O
  O23      1.0000 0.16440  0.60990  0.11199  Biso   1.000  O
  O24      1.0000 0.38180  0.43740  0.94470  Biso   1.000  O
  O25      1.0000 0.32170  0.53600  0.85652  Biso   1.000  O
  O26      1.0000 0.05977  0.75600  0.81936  Biso   1.000  O
  O27      1.0000 0.02093  0.80560  0.90140  Biso   1.000  O
  O28      1.0000 0.42219  0.52560  0.27041  Biso   1.000  O
  C34      1.0000 0.21350  0.59930  0.02444  Biso   1.000  C
  C35      1.0000 0.27280  0.54810  0.00101  Biso   1.000  C
  H16      1.0000 0.31890  0.50690  0.02810  Biso   1.000  H
  C36      1.0000 0.26240  0.55900  0.93733  Biso   1.000  C
  C37      1.0000 0.19480  0.62420  0.89728  Biso   1.000  C
  H17      1.0000 0.18890  0.63250  0.85470  Biso   1.000  H
  C38      1.0000 0.13660  0.67670  0.91987  Biso   1.000  C
  C39      1.0000 0.14670  0.66390  0.98380  Biso   1.000  C
  H18      1.0000 0.10790  0.69930  0.99950  Biso   1.000  H
  C40      1.0000 0.22370  0.58600  0.09290  Biso   1.000  C
  C41      1.0000 0.32580  0.50670  0.91160  Biso   1.000  C
  C42      1.0000 0.06700  0.75340  0.87668  Biso   1.000  C
  C43      1.0000 0.23440  0.77950  0.23898  Biso   1.000  C
  H19      1.0000 0.19080  0.78300  0.20040  Biso   1.000  H
  C44      1.0000 0.32100  0.82490  0.32810  Biso   1.000  C
  H20      1.0000 0.34980  0.86730  0.36500  Biso   1.000  H
  N10      1.0000 0.34090  0.71510  0.31603  Biso   1.000  N
  N11      1.0000 0.28390  0.68480  0.25842  Biso   1.000  N
  N12      1.0000 0.25430  0.87070  0.28154  Biso   1.000  N
  Zn9      1.0000 0.80058  0.96930  0.71663  Biso   1.000  Zn
  Zn10     1.0000 0.92800  0.92459  0.86446  Biso   1.000  Zn
  O29      1.0000 0.79390  0.95310  0.62843  Biso   1.000  O
  O30      1.0000 0.66440  0.89010  0.61199  Biso   1.000  O
  O31      1.0000 0.88180  0.06260  0.44470  Biso   1.000  O
  O32      1.0000 0.82170  0.96400  0.35652  Biso   1.000  O
  O33      1.0000 0.55977  0.74400  0.31936  Biso   1.000  O
  O34      1.0000 0.52093  0.69440  0.40140  Biso   1.000  O
  O35      1.0000 0.92219  0.97440  0.77041  Biso   1.000  O
  C45      1.0000 0.71350  0.90070  0.52444  Biso   1.000  C
  C46      1.0000 0.77280  0.95190  0.50101  Biso   1.000  C
  H21      1.0000 0.81890  0.99310  0.52810  Biso   1.000  H
  C47      1.0000 0.76240  0.94100  0.43733  Biso   1.000  C
  C48      1.0000 0.69480  0.87580  0.39728  Biso   1.000  C
  H22      1.0000 0.68890  0.86750  0.35470  Biso   1.000  H
  C49      1.0000 0.63660  0.82330  0.41987  Biso   1.000  C
  C50      1.0000 0.64670  0.83610  0.48380  Biso   1.000  C
  H23      1.0000 0.60790  0.80070  0.49950  Biso   1.000  H
  C51      1.0000 0.72370  0.91400  0.59290  Biso   1.000  C
  C52      1.0000 0.82580  0.99330  0.41160  Biso   1.000  C
  C53      1.0000 0.56700  0.74660  0.37668  Biso   1.000  C
  C54      1.0000 0.73440  0.72050  0.73898  Biso   1.000  C
  H24      1.0000 0.69080  0.71700  0.70040  Biso   1.000  H
  C55      1.0000 0.82100  0.67510  0.82810  Biso   1.000  C
  H25      1.0000 0.84980  0.63270  0.86500  Biso   1.000  H
  N13      1.0000 0.84090  0.78490  0.81603  Biso   1.000  N
  N14      1.0000 0.78390  0.81520  0.75842  Biso   1.000  N
  N15      1.0000 0.75430  0.62930  0.78154  Biso   1.000  N
  Zn11     1.0000 0.30058  0.46930  0.71663  Biso   1.000  Zn
  Zn12     1.0000 0.42800  0.42459  0.86446  Biso   1.000  Zn
  O36      1.0000 0.29390  0.45310  0.62843  Biso   1.000  O
  O37      1.0000 0.16440  0.39010  0.61199  Biso   1.000  O
  O38      1.0000 0.38180  0.56260  0.44470  Biso   1.000  O
  O39      1.0000 0.32170  0.46400  0.35652  Biso   1.000  O
  O40      1.0000 0.05977  0.24400  0.31936  Biso   1.000  O
  O41      1.0000 0.02093  0.19440  0.40140  Biso   1.000  O
  O42      1.0000 0.42219  0.47440  0.77041  Biso   1.000  O
  C56      1.0000 0.21350  0.40070  0.52444  Biso   1.000  C
  C57      1.0000 0.27280  0.45190  0.50101  Biso   1.000  C
  H26      1.0000 0.31890  0.49310  0.52810  Biso   1.000  H
  C58      1.0000 0.26240  0.44100  0.43733  Biso   1.000  C
  C59      1.0000 0.19480  0.37580  0.39728  Biso   1.000  C
  H27      1.0000 0.18890  0.36750  0.35470  Biso   1.000  H
  C60      1.0000 0.13660  0.32330  0.41987  Biso   1.000  C
  C61      1.0000 0.14670  0.33610  0.48380  Biso   1.000  C
  H28      1.0000 0.10790  0.30070  0.49950  Biso   1.000  H
  C62      1.0000 0.22370  0.41400  0.59290  Biso   1.000  C
  C63      1.0000 0.32580  0.49330  0.41160  Biso   1.000  C
  C64      1.0000 0.06700  0.24660  0.37668  Biso   1.000  C
  C65      1.0000 0.23440  0.22050  0.73898  Biso   1.000  C
  H29      1.0000 0.19080  0.21700  0.70040  Biso   1.000  H
  C66      1.0000 0.32100  0.17510  0.82810  Biso   1.000  C
  H30      1.0000 0.34980  0.13270  0.86500  Biso   1.000  H
  N16      1.0000 0.34090  0.28490  0.81603  Biso   1.000  N
  N17      1.0000 0.28390  0.31520  0.75842  Biso   1.000  N
  N18      1.0000 0.25430  0.12930  0.78154  Biso   1.000  N
  Zn13     1.0000 0.19942  0.96930  0.78337  Biso   1.000  Zn
  Zn14     1.0000 0.07200  0.92459  0.63554  Biso   1.000  Zn
  O43      1.0000 0.20610  0.95310  0.87157  Biso   1.000  O
  O44      1.0000 0.33560  0.89010  0.88801  Biso   1.000  O
  O45      1.0000 0.11820  0.06260  0.05530  Biso   1.000  O
  O46      1.0000 0.17830  0.96400  0.14348  Biso   1.000  O
  O47      1.0000 0.44023  0.74400  0.18064  Biso   1.000  O
  O48      1.0000 0.47907  0.69440  0.09860  Biso   1.000  O
  O49      1.0000 0.07781  0.97440  0.72959  Biso   1.000  O
  C67      1.0000 0.28650  0.90070  0.97556  Biso   1.000  C
  C68      1.0000 0.22720  0.95190  0.99899  Biso   1.000  C
  H31      1.0000 0.18110  0.99310  0.97190  Biso   1.000  H
  C69      1.0000 0.23760  0.94100  0.06267  Biso   1.000  C
  C70      1.0000 0.30520  0.87580  0.10272  Biso   1.000  C
  H32      1.0000 0.31110  0.86750  0.14530  Biso   1.000  H
  C71      1.0000 0.36340  0.82330  0.08013  Biso   1.000  C
  C72      1.0000 0.35330  0.83610  0.01620  Biso   1.000  C
  H33      1.0000 0.39210  0.80070  0.00050  Biso   1.000  H
  C73      1.0000 0.27630  0.91400  0.90710  Biso   1.000  C
  C74      1.0000 0.17420  0.99330  0.08840  Biso   1.000  C
  C75      1.0000 0.43300  0.74660  0.12332  Biso   1.000  C
  C76      1.0000 0.26560  0.72050  0.76102  Biso   1.000  C
  H34      1.0000 0.30920  0.71700  0.79960  Biso   1.000  H
  C77      1.0000 0.17900  0.67510  0.67190  Biso   1.000  C
  H35      1.0000 0.15020  0.63270  0.63500  Biso   1.000  H
  N19      1.0000 0.15910  0.78490  0.68397  Biso   1.000  N
  N20      1.0000 0.21610  0.81520  0.74158  Biso   1.000  N
  N21      1.0000 0.24570  0.62930  0.71846  Biso   1.000  N
  Zn15     1.0000 0.69942  0.46930  0.78337  Biso   1.000  Zn
  Zn16     1.0000 0.57200  0.42459  0.63554  Biso   1.000  Zn
  O50      1.0000 0.70610  0.45310  0.87157  Biso   1.000  O
  O51      1.0000 0.83560  0.39010  0.88801  Biso   1.000  O
  O52      1.0000 0.61820  0.56260  0.05530  Biso   1.000  O
  O53      1.0000 0.67830  0.46400  0.14348  Biso   1.000  O
  O54      1.0000 0.94023  0.24400  0.18064  Biso   1.000  O
  O55      1.0000 0.97907  0.19440  0.09860  Biso   1.000  O
  O56      1.0000 0.57781  0.47440  0.72959  Biso   1.000  O
  C78      1.0000 0.78650  0.40070  0.97556  Biso   1.000  C
  C79      1.0000 0.72720  0.45190  0.99899  Biso   1.000  C
  H36      1.0000 0.68110  0.49310  0.97190  Biso   1.000  H
  C80      1.0000 0.73760  0.44100  0.06267  Biso   1.000  C
  C81      1.0000 0.80520  0.37580  0.10272  Biso   1.000  C
  H37      1.0000 0.81110  0.36750  0.14530  Biso   1.000  H
  C82      1.0000 0.86340  0.32330  0.08013  Biso   1.000  C
  C83      1.0000 0.85330  0.33610  0.01620  Biso   1.000  C
  H38      1.0000 0.89210  0.30070  0.00050  Biso   1.000  H
  C84      1.0000 0.77630  0.41400  0.90710  Biso   1.000  C
  C85      1.0000 0.67420  0.49330  0.08840  Biso   1.000  C
  C86      1.0000 0.93300  0.24660  0.12332  Biso   1.000  C
  C87      1.0000 0.76560  0.22050  0.76102  Biso   1.000  C
  H39      1.0000 0.80920  0.21700  0.79960  Biso   1.000  H
  C88      1.0000 0.67900  0.17510  0.67190  Biso   1.000  C
  H40      1.0000 0.65020  0.13270  0.63500  Biso   1.000  H
  N22      1.0000 0.65910  0.28490  0.68397  Biso   1.000  N
  N23      1.0000 0.71610  0.31520  0.74158  Biso   1.000  N
  N24      1.0000 0.74570  0.12930  0.71846  Biso   1.000  N
  Zn17     1.0000 0.00000  0.13695  0.25000  Biso   1.000  Zn
  Zn18     1.0000 0.50000  0.63695  0.25000  Biso   1.000  Zn
  Zn19     1.0000 0.00000  0.86305  0.75000  Biso   1.000  Zn
  Zn20     1.0000 0.50000  0.36305  0.75000  Biso   1.000  Zn
