data_image0
_cell_length_a       8.363
_cell_length_b       12.827
_cell_length_c       12.987
_cell_angle_alpha    78.01
_cell_angle_beta     77.5
_cell_angle_gamma    71.85

_symmetry_space_group_name_H-M    "P 1"
_symmetry_int_tables_number       1

loop_
  _symmetry_equiv_pos_as_xyz
  'x, y, z'

loop_
  _atom_site_label
  _atom_site_occupancy
  _atom_site_fract_x
  _atom_site_fract_y
  _atom_site_fract_z
  _atom_site_thermal_displace_type
  _atom_site_B_iso_or_equiv
  _atom_site_type_symbol
  Mn1      1.0000 0.36189  0.09808  0.30991  Biso   1.000  Mn
  C1       1.0000 0.47730  0.01970  0.45950  Biso   1.000  C
  N1       1.0000 0.49720  0.94800  0.22230  Biso   1.000  N
  N2       1.0000 0.81820  0.41180  0.06970  Biso   1.000  N
  C2       1.0000 0.43790  0.92220  0.14580  Biso   1.000  C
  H1       1.0000 0.34800  0.97460  0.11650  Biso   1.000  H
  C3       1.0000 0.50370  0.82160  0.10840  Biso   1.000  C
  H2       1.0000 0.45690  0.80720  0.05590  Biso   1.000  H
  C4       1.0000 0.63870  0.74270  0.14860  Biso   1.000  C
  C5       1.0000 0.70610  0.77130  0.22460  Biso   1.000  C
  H3       1.0000 0.79930  0.72170  0.25290  Biso   1.000  H
  C6       1.0000 0.63330  0.87390  0.25730  Biso   1.000  C
  H4       1.0000 0.68190  0.89240  0.30650  Biso   1.000  H
  C7       1.0000 0.73610  0.49830  0.00550  Biso   1.000  C
  H5       1.0000 0.71630  0.48460  0.94250  Biso   1.000  H
  C8       1.0000 0.67870  0.60590  0.02580  Biso   1.000  C
  H6       1.0000 0.62330  0.66240  0.97730  Biso   1.000  H
  C9       1.0000 0.70450  0.62860  0.11920  Biso   1.000  C
  C10      1.0000 0.79040  0.54110  0.18480  Biso   1.000  C
  H7       1.0000 0.81250  0.55240  0.24820  Biso   1.000  H
  C11      1.0000 0.84420  0.43630  0.15700  Biso   1.000  C
  H8       1.0000 0.90310  0.37880  0.20320  Biso   1.000  H
  C12      1.0000 0.67590  0.19850  0.15820  Biso   1.000  C
  Mn2      1.0000 0.89563  0.22012  0.04146  Biso   1.000  Mn
  C13      1.0000 0.10950  0.19450  0.12310  Biso   1.000  C
  C14      1.0000 0.85510  0.28630  0.87910  Biso   1.000  C
  N3       1.0000 0.83530  0.31840  0.79390  Biso   1.000  N
  C15      1.0000 0.97920  0.04390  0.01050  Biso   1.000  C
  N4       1.0000 0.20620  0.17230  0.17910  Biso   1.000  N
  C16      1.0000 0.20760  0.35470  0.32900  Biso   1.000  C
  H9       1.0000 0.26160  0.35950  0.25840  Biso   1.000  H
  C17      1.0000 0.12440  0.45210  0.37010  Biso   1.000  C
  H10      1.0000 0.12180  0.52020  0.32710  Biso   1.000  H
  C18      1.0000 0.04430  0.44790  0.47630  Biso   1.000  C
  C19      1.0000 0.05050  0.34310  0.53440  Biso   1.000  C
  H11      1.0000 0.99760  0.33580  0.60520  Biso   1.000  H
  C20      1.0000 0.13500  0.25040  0.48700  Biso   1.000  C
  H12      1.0000 0.13700  0.18140  0.52770  Biso   1.000  H
  N5       1.0000 0.21490  0.25360  0.38520  Biso   1.000  N
  N6       1.0000 0.56580  0.17710  0.21910  Biso   1.000  N
  Mn3      1.0000 0.63811  0.90192  0.69009  Biso   1.000  Mn
  C21      1.0000 0.52270  0.98030  0.54050  Biso   1.000  C
  N7       1.0000 0.50280  0.05200  0.77770  Biso   1.000  N
  N8       1.0000 0.18180  0.58820  0.93030  Biso   1.000  N
  C22      1.0000 0.56210  0.07780  0.85420  Biso   1.000  C
  H13      1.0000 0.65200  0.02540  0.88350  Biso   1.000  H
  C23      1.0000 0.49630  0.17840  0.89160  Biso   1.000  C
  H14      1.0000 0.54310  0.19280  0.94410  Biso   1.000  H
  C24      1.0000 0.36130  0.25730  0.85140  Biso   1.000  C
  C25      1.0000 0.29390  0.22870  0.77540  Biso   1.000  C
  H15      1.0000 0.20070  0.27830  0.74710  Biso   1.000  H
  C26      1.0000 0.36670  0.12610  0.74270  Biso   1.000  C
  H16      1.0000 0.31810  0.10760  0.69350  Biso   1.000  H
  C27      1.0000 0.26390  0.50170  0.99450  Biso   1.000  C
  H17      1.0000 0.28370  0.51540  0.05750  Biso   1.000  H
  C28      1.0000 0.32130  0.39410  0.97420  Biso   1.000  C
  H18      1.0000 0.37670  0.33760  0.02270  Biso   1.000  H
  C29      1.0000 0.29550  0.37140  0.88080  Biso   1.000  C
  C30      1.0000 0.20960  0.45890  0.81520  Biso   1.000  C
  H19      1.0000 0.18750  0.44760  0.75180  Biso   1.000  H
  C31      1.0000 0.15580  0.56370  0.84300  Biso   1.000  C
  H20      1.0000 0.09690  0.62120  0.79680  Biso   1.000  H
  C32      1.0000 0.32410  0.80150  0.84180  Biso   1.000  C
  Mn4      1.0000 0.10437  0.77988  0.95854  Biso   1.000  Mn
  C33      1.0000 0.89050  0.80550  0.87690  Biso   1.000  C
  C34      1.0000 0.14490  0.71370  0.12090  Biso   1.000  C
  N9       1.0000 0.16470  0.68160  0.20610  Biso   1.000  N
  C35      1.0000 0.02080  0.95610  0.98950  Biso   1.000  C
  N10      1.0000 0.79380  0.82770  0.82090  Biso   1.000  N
  C36      1.0000 0.79240  0.64530  0.67100  Biso   1.000  C
  H21      1.0000 0.73840  0.64050  0.74160  Biso   1.000  H
  C37      1.0000 0.87560  0.54790  0.62990  Biso   1.000  C
  H22      1.0000 0.87820  0.47980  0.67290  Biso   1.000  H
  C38      1.0000 0.95570  0.55210  0.52370  Biso   1.000  C
  C39      1.0000 0.94950  0.65690  0.46560  Biso   1.000  C
  H23      1.0000 0.00240  0.66420  0.39480  Biso   1.000  H
  C40      1.0000 0.86500  0.74960  0.51300  Biso   1.000  C
  H24      1.0000 0.86300  0.81860  0.47230  Biso   1.000  H
  N11      1.0000 0.78510  0.74640  0.61480  Biso   1.000  N
  N12      1.0000 0.43420  0.82290  0.78090  Biso   1.000  N
