data_OCUGEZ01_clean
_audit_creation_date              2014-07-02
_audit_creation_method            'Materials Studio'
_symmetry_space_group_name_H-M    'P1'
_symmetry_Int_Tables_number       1
_symmetry_cell_setting            triclinic
loop_
_symmetry_equiv_pos_as_xyz
  x,y,z
_cell_length_a                    8.6742
_cell_length_b                    9.9686
_cell_length_c                    11.7560
_cell_angle_alpha                 74.8100
_cell_angle_beta                  69.6990
_cell_angle_gamma                 85.9300
loop_
_atom_site_label
_atom_site_type_symbol
_atom_site_fract_x
_atom_site_fract_y
_atom_site_fract_z
_atom_site_U_iso_or_equiv
_atom_site_adp_type
_atom_site_occupancy
Nd1    Nd    0.25445   0.52242   0.48809   0.01267  Uiso   1.00
Nd2    Nd    0.74555   0.47758   0.51191   0.01267  Uiso   1.00
H1     H     0.76730   0.70020   0.13750   0.01267  Uiso   1.00
H2     H     0.79540   0.53970   0.16270   0.01267  Uiso   1.00
H3     H     0.62450   0.52800   0.04310   0.01267  Uiso   1.00
H4     H     0.62310   0.69080   0.00750   0.01267  Uiso   1.00
H5     H     0.91490   0.53920   0.93930   0.01267  Uiso   1.00
H6     H     0.90540   0.70160   0.89720   0.01267  Uiso   1.00
H7     H     0.73450   0.52530   0.82870   0.01267  Uiso   1.00
H8     H     0.75440   0.68650   0.77560   0.01267  Uiso   1.00
H9     H     0.27840   0.03040   0.40090   0.01267  Uiso   1.00
H10    H     0.24480   0.01580   0.28210   0.01267  Uiso   1.00
H11    H     0.02400   0.12200   0.40050   0.01267  Uiso   1.00
H12    H     0.96520   0.97880   0.39660   0.01267  Uiso   1.00
H13    H     0.23270   0.29980   0.86250   0.01267  Uiso   1.00
H14    H     0.20460   0.46030   0.83730   0.01267  Uiso   1.00
H15    H     0.37550   0.47200   0.95690   0.01267  Uiso   1.00
H16    H     0.37690   0.30920   0.99250   0.01267  Uiso   1.00
H17    H     0.08510   0.46080   0.06070   0.01267  Uiso   1.00
H18    H     0.09460   0.29840   0.10280   0.01267  Uiso   1.00
H19    H     0.26550   0.47470   0.17130   0.01267  Uiso   1.00
H20    H     0.24560   0.31350   0.22440   0.01267  Uiso   1.00
H21    H     0.72160   0.96960   0.59910   0.01267  Uiso   1.00
H22    H     0.75520   0.98420   0.71790   0.01267  Uiso   1.00
H23    H     0.97600   0.87800   0.59950   0.01267  Uiso   1.00
H24    H     0.03480   0.02120   0.60340   0.01267  Uiso   1.00
C1     C     0.56490   0.58740   0.26320   0.01267  Uiso   1.00
C2     C     0.71750   0.61140   0.14860   0.01267  Uiso   1.00
C3     C     0.68800   0.61100   0.02840   0.01267  Uiso   1.00
C4     C     0.84580   0.61510   0.91700   0.01267  Uiso   1.00
C5     C     0.81030   0.60330   0.80330   0.01267  Uiso   1.00
C6     C     0.95570   0.58430   0.69250   0.01267  Uiso   1.00
C7     C     0.23870   0.82920   0.40710   0.01267  Uiso   1.00
C8     C     0.21020   0.98310   0.37270   0.01267  Uiso   1.00
C9     C     0.03300   0.02210   0.42810   0.01267  Uiso   1.00
C10    C     0.43510   0.41260   0.73680   0.01267  Uiso   1.00
C11    C     0.28250   0.38860   0.85140   0.01267  Uiso   1.00
C12    C     0.31200   0.38900   0.97160   0.01267  Uiso   1.00
C13    C     0.15420   0.38490   0.08300   0.01267  Uiso   1.00
C14    C     0.18970   0.39670   0.19670   0.01267  Uiso   1.00
C15    C     0.04430   0.41570   0.30750   0.01267  Uiso   1.00
C16    C     0.76130   0.17080   0.59290   0.01267  Uiso   1.00
C17    C     0.78980   0.01690   0.62730   0.01267  Uiso   1.00
C18    C     0.96700   0.97790   0.57190   0.01267  Uiso   1.00
O1     O     0.42460   0.60730   0.25360   0.01267  Uiso   1.00
O2     O     0.57720   0.54430   0.37200   0.01267  Uiso   1.00
O3     O     0.09900   0.61640   0.68120   0.01267  Uiso   1.00
O4     O     0.93210   0.53520   0.61050   0.01267  Uiso   1.00
O5     O     0.13730   0.74710   0.40160   0.01267  Uiso   1.00
O6     O     0.35760   0.78160   0.44100   0.01267  Uiso   1.00
O7     O     0.57540   0.39270   0.74640   0.01267  Uiso   1.00
O8     O     0.42280   0.45570   0.62800   0.01267  Uiso   1.00
O9     O     0.90100   0.38360   0.31880   0.01267  Uiso   1.00
O10    O     0.06790   0.46480   0.38950   0.01267  Uiso   1.00
O11    O     0.86270   0.25290   0.59840   0.01267  Uiso   1.00
O12    O     0.64240   0.21840   0.55900   0.01267  Uiso   1.00
