data_image0
_cell_length_a       25.56
_cell_length_b       17.28
_cell_length_c       13.187
_cell_angle_alpha    90
_cell_angle_beta     107.198
_cell_angle_gamma    90

_symmetry_space_group_name_H-M    "P 1"
_symmetry_int_tables_number       1

loop_
  _symmetry_equiv_pos_as_xyz
  'x, y, z'

loop_
  _atom_site_label
  _atom_site_occupancy
  _atom_site_fract_x
  _atom_site_fract_y
  _atom_site_fract_z
  _atom_site_thermal_displace_type
  _atom_site_B_iso_or_equiv
  _atom_site_type_symbol
  C1       1.0000 0.51674  0.78100  0.06690  Biso   1.000  C
  C2       1.0000 0.47338  0.83150  0.03500  Biso   1.000  C
  H1       1.0000 0.44090  0.81620  0.98530  Biso   1.000  H
  C3       1.0000 0.47859  0.90500  0.07750  Biso   1.000  C
  C4       1.0000 0.52740  0.92620  0.15160  Biso   1.000  C
  H2       1.0000 0.53100  0.97560  0.18090  Biso   1.000  H
  C5       1.0000 0.57088  0.87480  0.18260  Biso   1.000  C
  C6       1.0000 0.56617  0.80060  0.14100  Biso   1.000  C
  C7       1.0000 0.61611  0.75050  0.16370  Biso   1.000  C
  C8       1.0000 0.64919  0.75940  0.09820  Biso   1.000  C
  C9       1.0000 0.69664  0.71610  0.11490  Biso   1.000  C
  H3       1.0000 0.71800  0.72180  0.06930  Biso   1.000  H
  C10      1.0000 0.71248  0.66490  0.19810  Biso   1.000  C
  C11      1.0000 0.68051  0.65650  0.26430  Biso   1.000  C
  H4       1.0000 0.69110  0.62260  0.32140  Biso   1.000  H
  C12      1.0000 0.63265  0.69830  0.24650  Biso   1.000  C
  C13      1.0000 0.43109  0.95960  0.04860  Biso   1.000  C
  C14      1.0000 0.62260  0.90080  0.26560  Biso   1.000  C
  C15      1.0000 0.63342  0.81420  0.00550  Biso   1.000  C
  C16      1.0000 0.76502  0.61940  0.21790  Biso   1.000  C
  Mn1      1.0000 0.36059  0.06850  0.14081  Biso   1.000  Mn
  Mn2      1.0000 0.32190  0.01464  0.87928  Biso   1.000  Mn
  N1       1.0000 0.50793  0.70330  0.02210  Biso   1.000  N
  N2       1.0000 0.59877  0.68550  0.31500  Biso   1.000  N
  O1       1.0000 0.53279  0.65020  0.07330  Biso   1.000  O
  O2       1.0000 0.47529  0.69550  0.93510  Biso   1.000  O
  O3       1.0000 0.39707  0.95159  0.95790  Biso   1.000  O
  O4       1.0000 0.42808  0.00755  0.11630  Biso   1.000  O
  O5       1.0000 0.64243  0.96594  0.24740  Biso   1.000  O
  O6       1.0000 0.64124  0.86244  0.34510  Biso   1.000  O
  O7       1.0000 0.65087  0.88232  0.01940  Biso   1.000  O
  O8       1.0000 0.60521  0.78950  0.91980  Biso   1.000  O
  O9       1.0000 0.78873  0.62297  0.14850  Biso   1.000  O
  O10      1.0000 0.78033  0.58320  0.30260  Biso   1.000  O
  O11      1.0000 0.55809  0.71850  0.30550  Biso   1.000  O
  O12      1.0000 0.61540  0.64240  0.38780  Biso   1.000  O
  C17      1.0000 0.01674  0.28100  0.06690  Biso   1.000  C
  C18      1.0000 0.97338  0.33150  0.03500  Biso   1.000  C
  H5       1.0000 0.94090  0.31620  0.98530  Biso   1.000  H
  C19      1.0000 0.97859  0.40500  0.07750  Biso   1.000  C
  C20      1.0000 0.02740  0.42620  0.15160  Biso   1.000  C
  H6       1.0000 0.03100  0.47560  0.18090  Biso   1.000  H
  C21      1.0000 0.07088  0.37480  0.18260  Biso   1.000  C
  C22      1.0000 0.06617  0.30060  0.14100  Biso   1.000  C
  C23      1.0000 0.11611  0.25050  0.16370  Biso   1.000  C
  C24      1.0000 0.14919  0.25940  0.09820  Biso   1.000  C
  C25      1.0000 0.19664  0.21610  0.11490  Biso   1.000  C
  H7       1.0000 0.21800  0.22180  0.06930  Biso   1.000  H
  C26      1.0000 0.21248  0.16490  0.19810  Biso   1.000  C
  C27      1.0000 0.18051  0.15650  0.26430  Biso   1.000  C
  H8       1.0000 0.19110  0.12260  0.32140  Biso   1.000  H
  C28      1.0000 0.13265  0.19830  0.24650  Biso   1.000  C
  C29      1.0000 0.93109  0.45960  0.04860  Biso   1.000  C
  C30      1.0000 0.12260  0.40080  0.26560  Biso   1.000  C
  C31      1.0000 0.13342  0.31420  0.00550  Biso   1.000  C
  C32      1.0000 0.26502  0.11940  0.21790  Biso   1.000  C
  Mn3      1.0000 0.86059  0.56850  0.14081  Biso   1.000  Mn
  Mn4      1.0000 0.82190  0.51464  0.87928  Biso   1.000  Mn
  N3       1.0000 0.00793  0.20330  0.02210  Biso   1.000  N
  N4       1.0000 0.09877  0.18550  0.31500  Biso   1.000  N
  O13      1.0000 0.03279  0.15020  0.07330  Biso   1.000  O
  O14      1.0000 0.97529  0.19550  0.93510  Biso   1.000  O
  O15      1.0000 0.89707  0.45159  0.95790  Biso   1.000  O
  O16      1.0000 0.92808  0.50755  0.11630  Biso   1.000  O
  O17      1.0000 0.14243  0.46594  0.24740  Biso   1.000  O
  O18      1.0000 0.14124  0.36244  0.34510  Biso   1.000  O
  O19      1.0000 0.15087  0.38232  0.01940  Biso   1.000  O
  O20      1.0000 0.10521  0.28950  0.91980  Biso   1.000  O
  O21      1.0000 0.28873  0.12297  0.14850  Biso   1.000  O
  O22      1.0000 0.28033  0.08320  0.30260  Biso   1.000  O
  O23      1.0000 0.05809  0.21850  0.30550  Biso   1.000  O
  O24      1.0000 0.11540  0.14240  0.38780  Biso   1.000  O
  C33      1.0000 0.48326  0.78100  0.43310  Biso   1.000  C
  C34      1.0000 0.52662  0.83150  0.46500  Biso   1.000  C
  H9       1.0000 0.55910  0.81620  0.51470  Biso   1.000  H
  C35      1.0000 0.52141  0.90500  0.42250  Biso   1.000  C
  C36      1.0000 0.47260  0.92620  0.34840  Biso   1.000  C
  H10      1.0000 0.46900  0.97560  0.31910  Biso   1.000  H
  C37      1.0000 0.42912  0.87480  0.31740  Biso   1.000  C
  C38      1.0000 0.43383  0.80060  0.35900  Biso   1.000  C
  C39      1.0000 0.38389  0.75050  0.33630  Biso   1.000  C
  C40      1.0000 0.35081  0.75940  0.40180  Biso   1.000  C
  C41      1.0000 0.30336  0.71610  0.38510  Biso   1.000  C
  H11      1.0000 0.28200  0.72180  0.43070  Biso   1.000  H
  C42      1.0000 0.28752  0.66490  0.30190  Biso   1.000  C
  C43      1.0000 0.31949  0.65650  0.23570  Biso   1.000  C
  H12      1.0000 0.30890  0.62260  0.17860  Biso   1.000  H
  C44      1.0000 0.36735  0.69830  0.25350  Biso   1.000  C
  C45      1.0000 0.56891  0.95960  0.45140  Biso   1.000  C
  C46      1.0000 0.37740  0.90080  0.23440  Biso   1.000  C
  C47      1.0000 0.36658  0.81420  0.49450  Biso   1.000  C
  C48      1.0000 0.23498  0.61940  0.28210  Biso   1.000  C
  Mn5      1.0000 0.63941  0.06850  0.35919  Biso   1.000  Mn
  Mn6      1.0000 0.67810  0.01464  0.62072  Biso   1.000  Mn
  N5       1.0000 0.49207  0.70330  0.47790  Biso   1.000  N
  N6       1.0000 0.40123  0.68550  0.18500  Biso   1.000  N
  O25      1.0000 0.46721  0.65020  0.42670  Biso   1.000  O
  O26      1.0000 0.52471  0.69550  0.56490  Biso   1.000  O
  O27      1.0000 0.60293  0.95159  0.54210  Biso   1.000  O
  O28      1.0000 0.57192  0.00755  0.38370  Biso   1.000  O
  O29      1.0000 0.35757  0.96594  0.25260  Biso   1.000  O
  O30      1.0000 0.35876  0.86244  0.15490  Biso   1.000  O
  O31      1.0000 0.34913  0.88232  0.48060  Biso   1.000  O
  O32      1.0000 0.39479  0.78950  0.58020  Biso   1.000  O
  O33      1.0000 0.21127  0.62297  0.35150  Biso   1.000  O
  O34      1.0000 0.21967  0.58320  0.19740  Biso   1.000  O
  O35      1.0000 0.44191  0.71850  0.19450  Biso   1.000  O
  O36      1.0000 0.38460  0.64240  0.11220  Biso   1.000  O
  C49      1.0000 0.98326  0.28100  0.43310  Biso   1.000  C
  C50      1.0000 0.02662  0.33150  0.46500  Biso   1.000  C
  H13      1.0000 0.05910  0.31620  0.51470  Biso   1.000  H
  C51      1.0000 0.02141  0.40500  0.42250  Biso   1.000  C
  C52      1.0000 0.97260  0.42620  0.34840  Biso   1.000  C
  H14      1.0000 0.96900  0.47560  0.31910  Biso   1.000  H
  C53      1.0000 0.92912  0.37480  0.31740  Biso   1.000  C
  C54      1.0000 0.93383  0.30060  0.35900  Biso   1.000  C
  C55      1.0000 0.88389  0.25050  0.33630  Biso   1.000  C
  C56      1.0000 0.85081  0.25940  0.40180  Biso   1.000  C
  C57      1.0000 0.80336  0.21610  0.38510  Biso   1.000  C
  H15      1.0000 0.78200  0.22180  0.43070  Biso   1.000  H
  C58      1.0000 0.78752  0.16490  0.30190  Biso   1.000  C
  C59      1.0000 0.81949  0.15650  0.23570  Biso   1.000  C
  H16      1.0000 0.80890  0.12260  0.17860  Biso   1.000  H
  C60      1.0000 0.86735  0.19830  0.25350  Biso   1.000  C
  C61      1.0000 0.06891  0.45960  0.45140  Biso   1.000  C
  C62      1.0000 0.87740  0.40080  0.23440  Biso   1.000  C
  C63      1.0000 0.86658  0.31420  0.49450  Biso   1.000  C
  C64      1.0000 0.73498  0.11940  0.28210  Biso   1.000  C
  Mn7      1.0000 0.13941  0.56850  0.35919  Biso   1.000  Mn
  Mn8      1.0000 0.17810  0.51464  0.62072  Biso   1.000  Mn
  N7       1.0000 0.99207  0.20330  0.47790  Biso   1.000  N
  N8       1.0000 0.90123  0.18550  0.18500  Biso   1.000  N
  O37      1.0000 0.96721  0.15020  0.42670  Biso   1.000  O
  O38      1.0000 0.02471  0.19550  0.56490  Biso   1.000  O
  O39      1.0000 0.10293  0.45159  0.54210  Biso   1.000  O
  O40      1.0000 0.07192  0.50755  0.38370  Biso   1.000  O
  O41      1.0000 0.85757  0.46594  0.25260  Biso   1.000  O
  O42      1.0000 0.85876  0.36244  0.15490  Biso   1.000  O
  O43      1.0000 0.84913  0.38232  0.48060  Biso   1.000  O
  O44      1.0000 0.89479  0.28950  0.58020  Biso   1.000  O
  O45      1.0000 0.71127  0.12297  0.35150  Biso   1.000  O
  O46      1.0000 0.71967  0.08320  0.19740  Biso   1.000  O
  O47      1.0000 0.94191  0.21850  0.19450  Biso   1.000  O
  O48      1.0000 0.88460  0.14240  0.11220  Biso   1.000  O
  C65      1.0000 0.48326  0.21900  0.93310  Biso   1.000  C
  C66      1.0000 0.52662  0.16850  0.96500  Biso   1.000  C
  H17      1.0000 0.55910  0.18380  0.01470  Biso   1.000  H
  C67      1.0000 0.52141  0.09500  0.92250  Biso   1.000  C
  C68      1.0000 0.47260  0.07380  0.84840  Biso   1.000  C
  H18      1.0000 0.46900  0.02440  0.81910  Biso   1.000  H
  C69      1.0000 0.42912  0.12520  0.81740  Biso   1.000  C
  C70      1.0000 0.43383  0.19940  0.85900  Biso   1.000  C
  C71      1.0000 0.38389  0.24950  0.83630  Biso   1.000  C
  C72      1.0000 0.35081  0.24060  0.90180  Biso   1.000  C
  C73      1.0000 0.30336  0.28390  0.88510  Biso   1.000  C
  H19      1.0000 0.28200  0.27820  0.93070  Biso   1.000  H
  C74      1.0000 0.28752  0.33510  0.80190  Biso   1.000  C
  C75      1.0000 0.31949  0.34350  0.73570  Biso   1.000  C
  H20      1.0000 0.30890  0.37740  0.67860  Biso   1.000  H
  C76      1.0000 0.36735  0.30170  0.75350  Biso   1.000  C
  C77      1.0000 0.56891  0.04040  0.95140  Biso   1.000  C
  C78      1.0000 0.37740  0.09920  0.73440  Biso   1.000  C
  C79      1.0000 0.36658  0.18580  0.99450  Biso   1.000  C
  C80      1.0000 0.23498  0.38060  0.78210  Biso   1.000  C
  Mn9      1.0000 0.63941  0.93150  0.85919  Biso   1.000  Mn
  Mn10     1.0000 0.67810  0.98536  0.12072  Biso   1.000  Mn
  N9       1.0000 0.49207  0.29670  0.97790  Biso   1.000  N
  N10      1.0000 0.40123  0.31450  0.68500  Biso   1.000  N
  O49      1.0000 0.46721  0.34980  0.92670  Biso   1.000  O
  O50      1.0000 0.52471  0.30450  0.06490  Biso   1.000  O
  O51      1.0000 0.60293  0.04841  0.04210  Biso   1.000  O
  O52      1.0000 0.57192  0.99245  0.88370  Biso   1.000  O
  O53      1.0000 0.35757  0.03406  0.75260  Biso   1.000  O
  O54      1.0000 0.35876  0.13756  0.65490  Biso   1.000  O
  O55      1.0000 0.34913  0.11768  0.98060  Biso   1.000  O
  O56      1.0000 0.39479  0.21050  0.08020  Biso   1.000  O
  O57      1.0000 0.21127  0.37703  0.85150  Biso   1.000  O
  O58      1.0000 0.21967  0.41680  0.69740  Biso   1.000  O
  O59      1.0000 0.44191  0.28150  0.69450  Biso   1.000  O
  O60      1.0000 0.38460  0.35760  0.61220  Biso   1.000  O
  C81      1.0000 0.98326  0.71900  0.93310  Biso   1.000  C
  C82      1.0000 0.02662  0.66850  0.96500  Biso   1.000  C
  H21      1.0000 0.05910  0.68380  0.01470  Biso   1.000  H
  C83      1.0000 0.02141  0.59500  0.92250  Biso   1.000  C
  C84      1.0000 0.97260  0.57380  0.84840  Biso   1.000  C
  H22      1.0000 0.96900  0.52440  0.81910  Biso   1.000  H
  C85      1.0000 0.92912  0.62520  0.81740  Biso   1.000  C
  C86      1.0000 0.93383  0.69940  0.85900  Biso   1.000  C
  C87      1.0000 0.88389  0.74950  0.83630  Biso   1.000  C
  C88      1.0000 0.85081  0.74060  0.90180  Biso   1.000  C
  C89      1.0000 0.80336  0.78390  0.88510  Biso   1.000  C
  H23      1.0000 0.78200  0.77820  0.93070  Biso   1.000  H
  C90      1.0000 0.78752  0.83510  0.80190  Biso   1.000  C
  C91      1.0000 0.81949  0.84350  0.73570  Biso   1.000  C
  H24      1.0000 0.80890  0.87740  0.67860  Biso   1.000  H
  C92      1.0000 0.86735  0.80170  0.75350  Biso   1.000  C
  C93      1.0000 0.06891  0.54040  0.95140  Biso   1.000  C
  C94      1.0000 0.87740  0.59920  0.73440  Biso   1.000  C
  C95      1.0000 0.86658  0.68580  0.99450  Biso   1.000  C
  C96      1.0000 0.73498  0.88060  0.78210  Biso   1.000  C
  Mn11     1.0000 0.13941  0.43150  0.85919  Biso   1.000  Mn
  Mn12     1.0000 0.17810  0.48536  0.12072  Biso   1.000  Mn
  N11      1.0000 0.99207  0.79670  0.97790  Biso   1.000  N
  N12      1.0000 0.90123  0.81450  0.68500  Biso   1.000  N
  O61      1.0000 0.96721  0.84980  0.92670  Biso   1.000  O
  O62      1.0000 0.02471  0.80450  0.06490  Biso   1.000  O
  O63      1.0000 0.10293  0.54841  0.04210  Biso   1.000  O
  O64      1.0000 0.07192  0.49245  0.88370  Biso   1.000  O
  O65      1.0000 0.85757  0.53406  0.75260  Biso   1.000  O
  O66      1.0000 0.85876  0.63756  0.65490  Biso   1.000  O
  O67      1.0000 0.84913  0.61768  0.98060  Biso   1.000  O
  O68      1.0000 0.89479  0.71050  0.08020  Biso   1.000  O
  O69      1.0000 0.71127  0.87703  0.85150  Biso   1.000  O
  O70      1.0000 0.71967  0.91680  0.69740  Biso   1.000  O
  O71      1.0000 0.94191  0.78150  0.69450  Biso   1.000  O
  O72      1.0000 0.88460  0.85760  0.61220  Biso   1.000  O
  C97      1.0000 0.51674  0.21900  0.56690  Biso   1.000  C
  C98      1.0000 0.47338  0.16850  0.53500  Biso   1.000  C
  H25      1.0000 0.44090  0.18380  0.48530  Biso   1.000  H
  C99      1.0000 0.47859  0.09500  0.57750  Biso   1.000  C
  C100     1.0000 0.52740  0.07380  0.65160  Biso   1.000  C
  H26      1.0000 0.53100  0.02440  0.68090  Biso   1.000  H
  C101     1.0000 0.57088  0.12520  0.68260  Biso   1.000  C
  C102     1.0000 0.56617  0.19940  0.64100  Biso   1.000  C
  C103     1.0000 0.61611  0.24950  0.66370  Biso   1.000  C
  C104     1.0000 0.64919  0.24060  0.59820  Biso   1.000  C
  C105     1.0000 0.69664  0.28390  0.61490  Biso   1.000  C
  H27      1.0000 0.71800  0.27820  0.56930  Biso   1.000  H
  C106     1.0000 0.71248  0.33510  0.69810  Biso   1.000  C
  C107     1.0000 0.68051  0.34350  0.76430  Biso   1.000  C
  H28      1.0000 0.69110  0.37740  0.82140  Biso   1.000  H
  C108     1.0000 0.63265  0.30170  0.74650  Biso   1.000  C
  C109     1.0000 0.43109  0.04040  0.54860  Biso   1.000  C
  C110     1.0000 0.62260  0.09920  0.76560  Biso   1.000  C
  C111     1.0000 0.63342  0.18580  0.50550  Biso   1.000  C
  C112     1.0000 0.76502  0.38060  0.71790  Biso   1.000  C
  Mn13     1.0000 0.36059  0.93150  0.64081  Biso   1.000  Mn
  Mn14     1.0000 0.32190  0.98536  0.37928  Biso   1.000  Mn
  N13      1.0000 0.50793  0.29670  0.52210  Biso   1.000  N
  N14      1.0000 0.59877  0.31450  0.81500  Biso   1.000  N
  O73      1.0000 0.53279  0.34980  0.57330  Biso   1.000  O
  O74      1.0000 0.47529  0.30450  0.43510  Biso   1.000  O
  O75      1.0000 0.39707  0.04841  0.45790  Biso   1.000  O
  O76      1.0000 0.42808  0.99245  0.61630  Biso   1.000  O
  O77      1.0000 0.64243  0.03406  0.74740  Biso   1.000  O
  O78      1.0000 0.64124  0.13756  0.84510  Biso   1.000  O
  O79      1.0000 0.65087  0.11768  0.51940  Biso   1.000  O
  O80      1.0000 0.60521  0.21050  0.41980  Biso   1.000  O
  O81      1.0000 0.78873  0.37703  0.64850  Biso   1.000  O
  O82      1.0000 0.78033  0.41680  0.80260  Biso   1.000  O
  O83      1.0000 0.55809  0.28150  0.80550  Biso   1.000  O
  O84      1.0000 0.61540  0.35760  0.88780  Biso   1.000  O
  C113     1.0000 0.01674  0.71900  0.56690  Biso   1.000  C
  C114     1.0000 0.97338  0.66850  0.53500  Biso   1.000  C
  H29      1.0000 0.94090  0.68380  0.48530  Biso   1.000  H
  C115     1.0000 0.97859  0.59500  0.57750  Biso   1.000  C
  C116     1.0000 0.02740  0.57380  0.65160  Biso   1.000  C
  H30      1.0000 0.03100  0.52440  0.68090  Biso   1.000  H
  C117     1.0000 0.07088  0.62520  0.68260  Biso   1.000  C
  C118     1.0000 0.06617  0.69940  0.64100  Biso   1.000  C
  C119     1.0000 0.11611  0.74950  0.66370  Biso   1.000  C
  C120     1.0000 0.14919  0.74060  0.59820  Biso   1.000  C
  C121     1.0000 0.19664  0.78390  0.61490  Biso   1.000  C
  H31      1.0000 0.21800  0.77820  0.56930  Biso   1.000  H
  C122     1.0000 0.21248  0.83510  0.69810  Biso   1.000  C
  C123     1.0000 0.18051  0.84350  0.76430  Biso   1.000  C
  H32      1.0000 0.19110  0.87740  0.82140  Biso   1.000  H
  C124     1.0000 0.13265  0.80170  0.74650  Biso   1.000  C
  C125     1.0000 0.93109  0.54040  0.54860  Biso   1.000  C
  C126     1.0000 0.12260  0.59920  0.76560  Biso   1.000  C
  C127     1.0000 0.13342  0.68580  0.50550  Biso   1.000  C
  C128     1.0000 0.26502  0.88060  0.71790  Biso   1.000  C
  Mn15     1.0000 0.86059  0.43150  0.64081  Biso   1.000  Mn
  Mn16     1.0000 0.82190  0.48536  0.37928  Biso   1.000  Mn
  N15      1.0000 0.00793  0.79670  0.52210  Biso   1.000  N
  N16      1.0000 0.09877  0.81450  0.81500  Biso   1.000  N
  O85      1.0000 0.03279  0.84980  0.57330  Biso   1.000  O
  O86      1.0000 0.97529  0.80450  0.43510  Biso   1.000  O
  O87      1.0000 0.89707  0.54841  0.45790  Biso   1.000  O
  O88      1.0000 0.92808  0.49245  0.61630  Biso   1.000  O
  O89      1.0000 0.14243  0.53406  0.74740  Biso   1.000  O
  O90      1.0000 0.14124  0.63756  0.84510  Biso   1.000  O
  O91      1.0000 0.15087  0.61768  0.51940  Biso   1.000  O
  O92      1.0000 0.10521  0.71050  0.41980  Biso   1.000  O
  O93      1.0000 0.28873  0.87703  0.64850  Biso   1.000  O
  O94      1.0000 0.28033  0.91680  0.80260  Biso   1.000  O
  O95      1.0000 0.05809  0.78150  0.80550  Biso   1.000  O
  O96      1.0000 0.11540  0.85760  0.88780  Biso   1.000  O
