data_image0
_cell_length_a       25.7675
_cell_length_b       16.8891
_cell_length_c       13.2819
_cell_angle_alpha    90
_cell_angle_beta     104.73
_cell_angle_gamma    90

_symmetry_space_group_name_H-M    "P 1"
_symmetry_int_tables_number       1

loop_
  _symmetry_equiv_pos_as_xyz
  'x, y, z'

loop_
  _atom_site_label
  _atom_site_occupancy
  _atom_site_fract_x
  _atom_site_fract_y
  _atom_site_fract_z
  _atom_site_thermal_displace_type
  _atom_site_B_iso_or_equiv
  _atom_site_type_symbol
  Mn1      1.0000 0.63443  0.07291  0.85667  Biso   1.000  Mn
  Mn2      1.0000 0.67287  0.99562  0.61595  Biso   1.000  Mn
  O1       1.0000 0.07020  0.50800  0.89020  Biso   1.000  O
  O2       1.0000 0.09920  0.44310  0.03980  Biso   1.000  O
  O3       1.0000 0.86330  0.47220  0.75530  Biso   1.000  O
  O4       1.0000 0.86210  0.36320  0.65980  Biso   1.000  O
  O5       1.0000 0.88440  0.29290  0.07170  Biso   1.000  O
  O6       1.0000 0.84750  0.38700  0.97460  Biso   1.000  O
  O7       1.0000 0.70880  0.12010  0.84900  Biso   1.000  O
  O8       1.0000 0.71100  0.09970  0.68460  Biso   1.000  O
  O9       1.0000 0.87920  0.16070  0.59560  Biso   1.000  O
  O10      1.0000 0.94370  0.20130  0.70280  Biso   1.000  O
  O11      1.0000 0.95670  0.14090  0.92950  Biso   1.000  O
  O12      1.0000 0.01780  0.18570  0.06100  Biso   1.000  O
  O13      1.0000 0.69570  0.02640  0.46870  Biso   1.000  O
  N1       1.0000 0.98420  0.19560  0.97260  Biso   1.000  N
  N2       1.0000 0.90000  0.17840  0.68520  Biso   1.000  N
  C1       1.0000 0.06670  0.45430  0.95390  Biso   1.000  C
  C2       1.0000 0.01830  0.40020  0.92150  Biso   1.000  C
  C3       1.0000 0.97320  0.42500  0.85120  Biso   1.000  C
  H1       1.0000 0.97170  0.47610  0.82460  Biso   1.000  H
  C4       1.0000 0.92920  0.37480  0.81840  Biso   1.000  C
  C5       1.0000 0.93110  0.29740  0.85840  Biso   1.000  C
  C6       1.0000 0.97840  0.27380  0.93050  Biso   1.000  C
  C7       1.0000 0.02130  0.32450  0.96300  Biso   1.000  C
  H2       1.0000 0.05190  0.30820  0.01230  Biso   1.000  H
  C8       1.0000 0.88030  0.40410  0.73750  Biso   1.000  C
  C9       1.0000 0.88060  0.24810  0.83350  Biso   1.000  C
  C10      1.0000 0.86520  0.19630  0.75080  Biso   1.000  C
  C11      1.0000 0.81770  0.15730  0.73160  Biso   1.000  C
  H3       1.0000 0.80780  0.12310  0.67500  Biso   1.000  H
  C12      1.0000 0.78360  0.16860  0.79720  Biso   1.000  C
  C13      1.0000 0.79750  0.21850  0.87760  Biso   1.000  C
  H4       1.0000 0.77470  0.22560  0.92110  Biso   1.000  H
  C14      1.0000 0.84530  0.25970  0.89680  Biso   1.000  C
  C15      1.0000 0.86020  0.31610  0.98820  Biso   1.000  C
  C16      1.0000 0.73010  0.12540  0.77530  Biso   1.000  C
  H5       1.0000 0.67730  0.06100  0.42890  Biso   1.000  H
  H6       1.0000 0.69910  0.98490  0.43530  Biso   1.000  H
  Mn3      1.0000 0.13443  0.57291  0.85667  Biso   1.000  Mn
  Mn4      1.0000 0.17287  0.49562  0.61595  Biso   1.000  Mn
  O14      1.0000 0.57020  0.00800  0.89020  Biso   1.000  O
  O15      1.0000 0.59920  0.94310  0.03980  Biso   1.000  O
  O16      1.0000 0.36330  0.97220  0.75530  Biso   1.000  O
  O17      1.0000 0.36210  0.86320  0.65980  Biso   1.000  O
  O18      1.0000 0.38440  0.79290  0.07170  Biso   1.000  O
  O19      1.0000 0.34750  0.88700  0.97460  Biso   1.000  O
  O20      1.0000 0.20880  0.62010  0.84900  Biso   1.000  O
  O21      1.0000 0.21100  0.59970  0.68460  Biso   1.000  O
  O22      1.0000 0.37920  0.66070  0.59560  Biso   1.000  O
  O23      1.0000 0.44370  0.70130  0.70280  Biso   1.000  O
  O24      1.0000 0.45670  0.64090  0.92950  Biso   1.000  O
  O25      1.0000 0.51780  0.68570  0.06100  Biso   1.000  O
  O26      1.0000 0.19570  0.52640  0.46870  Biso   1.000  O
  N3       1.0000 0.48420  0.69560  0.97260  Biso   1.000  N
  N4       1.0000 0.40000  0.67840  0.68520  Biso   1.000  N
  C17      1.0000 0.56670  0.95430  0.95390  Biso   1.000  C
  C18      1.0000 0.51830  0.90020  0.92150  Biso   1.000  C
  C19      1.0000 0.47320  0.92500  0.85120  Biso   1.000  C
  H7       1.0000 0.47170  0.97610  0.82460  Biso   1.000  H
  C20      1.0000 0.42920  0.87480  0.81840  Biso   1.000  C
  C21      1.0000 0.43110  0.79740  0.85840  Biso   1.000  C
  C22      1.0000 0.47840  0.77380  0.93050  Biso   1.000  C
  C23      1.0000 0.52130  0.82450  0.96300  Biso   1.000  C
  H8       1.0000 0.55190  0.80820  0.01230  Biso   1.000  H
  C24      1.0000 0.38030  0.90410  0.73750  Biso   1.000  C
  C25      1.0000 0.38060  0.74810  0.83350  Biso   1.000  C
  C26      1.0000 0.36520  0.69630  0.75080  Biso   1.000  C
  C27      1.0000 0.31770  0.65730  0.73160  Biso   1.000  C
  H9       1.0000 0.30780  0.62310  0.67500  Biso   1.000  H
  C28      1.0000 0.28360  0.66860  0.79720  Biso   1.000  C
  C29      1.0000 0.29750  0.71850  0.87760  Biso   1.000  C
  H10      1.0000 0.27470  0.72560  0.92110  Biso   1.000  H
  C30      1.0000 0.34530  0.75970  0.89680  Biso   1.000  C
  C31      1.0000 0.36020  0.81610  0.98820  Biso   1.000  C
  C32      1.0000 0.23010  0.62540  0.77530  Biso   1.000  C
  H11      1.0000 0.17730  0.56100  0.42890  Biso   1.000  H
  H12      1.0000 0.19910  0.48490  0.43530  Biso   1.000  H
  Mn5      1.0000 0.36557  0.07291  0.64333  Biso   1.000  Mn
  Mn6      1.0000 0.32713  0.99562  0.88405  Biso   1.000  Mn
  O27      1.0000 0.92980  0.50800  0.60980  Biso   1.000  O
  O28      1.0000 0.90080  0.44310  0.46020  Biso   1.000  O
  O29      1.0000 0.13670  0.47220  0.74470  Biso   1.000  O
  O30      1.0000 0.13790  0.36320  0.84020  Biso   1.000  O
  O31      1.0000 0.11560  0.29290  0.42830  Biso   1.000  O
  O32      1.0000 0.15250  0.38700  0.52540  Biso   1.000  O
  O33      1.0000 0.29120  0.12010  0.65100  Biso   1.000  O
  O34      1.0000 0.28900  0.09970  0.81540  Biso   1.000  O
  O35      1.0000 0.12080  0.16070  0.90440  Biso   1.000  O
  O36      1.0000 0.05630  0.20130  0.79720  Biso   1.000  O
  O37      1.0000 0.04330  0.14090  0.57050  Biso   1.000  O
  O38      1.0000 0.98220  0.18570  0.43900  Biso   1.000  O
  O39      1.0000 0.30430  0.02640  0.03130  Biso   1.000  O
  N5       1.0000 0.01580  0.19560  0.52740  Biso   1.000  N
  N6       1.0000 0.10000  0.17840  0.81480  Biso   1.000  N
  C33      1.0000 0.93330  0.45430  0.54610  Biso   1.000  C
  C34      1.0000 0.98170  0.40020  0.57850  Biso   1.000  C
  C35      1.0000 0.02680  0.42500  0.64880  Biso   1.000  C
  H13      1.0000 0.02830  0.47610  0.67540  Biso   1.000  H
  C36      1.0000 0.07080  0.37480  0.68160  Biso   1.000  C
  C37      1.0000 0.06890  0.29740  0.64160  Biso   1.000  C
  C38      1.0000 0.02160  0.27380  0.56950  Biso   1.000  C
  C39      1.0000 0.97870  0.32450  0.53700  Biso   1.000  C
  H14      1.0000 0.94810  0.30820  0.48770  Biso   1.000  H
  C40      1.0000 0.11970  0.40410  0.76250  Biso   1.000  C
  C41      1.0000 0.11940  0.24810  0.66650  Biso   1.000  C
  C42      1.0000 0.13480  0.19630  0.74920  Biso   1.000  C
  C43      1.0000 0.18230  0.15730  0.76840  Biso   1.000  C
  H15      1.0000 0.19220  0.12310  0.82500  Biso   1.000  H
  C44      1.0000 0.21640  0.16860  0.70280  Biso   1.000  C
  C45      1.0000 0.20250  0.21850  0.62240  Biso   1.000  C
  H16      1.0000 0.22530  0.22560  0.57890  Biso   1.000  H
  C46      1.0000 0.15470  0.25970  0.60320  Biso   1.000  C
  C47      1.0000 0.13980  0.31610  0.51180  Biso   1.000  C
  C48      1.0000 0.26990  0.12540  0.72470  Biso   1.000  C
  H17      1.0000 0.32270  0.06100  0.07110  Biso   1.000  H
  H18      1.0000 0.30090  0.98490  0.06470  Biso   1.000  H
  Mn7      1.0000 0.86557  0.57291  0.64333  Biso   1.000  Mn
  Mn8      1.0000 0.82713  0.49562  0.88405  Biso   1.000  Mn
  O40      1.0000 0.42980  0.00800  0.60980  Biso   1.000  O
  O41      1.0000 0.40080  0.94310  0.46020  Biso   1.000  O
  O42      1.0000 0.63670  0.97220  0.74470  Biso   1.000  O
  O43      1.0000 0.63790  0.86320  0.84020  Biso   1.000  O
  O44      1.0000 0.61560  0.79290  0.42830  Biso   1.000  O
  O45      1.0000 0.65250  0.88700  0.52540  Biso   1.000  O
  O46      1.0000 0.79120  0.62010  0.65100  Biso   1.000  O
  O47      1.0000 0.78900  0.59970  0.81540  Biso   1.000  O
  O48      1.0000 0.62080  0.66070  0.90440  Biso   1.000  O
  O49      1.0000 0.55630  0.70130  0.79720  Biso   1.000  O
  O50      1.0000 0.54330  0.64090  0.57050  Biso   1.000  O
  O51      1.0000 0.48220  0.68570  0.43900  Biso   1.000  O
  O52      1.0000 0.80430  0.52640  0.03130  Biso   1.000  O
  N7       1.0000 0.51580  0.69560  0.52740  Biso   1.000  N
  N8       1.0000 0.60000  0.67840  0.81480  Biso   1.000  N
  C49      1.0000 0.43330  0.95430  0.54610  Biso   1.000  C
  C50      1.0000 0.48170  0.90020  0.57850  Biso   1.000  C
  C51      1.0000 0.52680  0.92500  0.64880  Biso   1.000  C
  H19      1.0000 0.52830  0.97610  0.67540  Biso   1.000  H
  C52      1.0000 0.57080  0.87480  0.68160  Biso   1.000  C
  C53      1.0000 0.56890  0.79740  0.64160  Biso   1.000  C
  C54      1.0000 0.52160  0.77380  0.56950  Biso   1.000  C
  C55      1.0000 0.47870  0.82450  0.53700  Biso   1.000  C
  H20      1.0000 0.44810  0.80820  0.48770  Biso   1.000  H
  C56      1.0000 0.61970  0.90410  0.76250  Biso   1.000  C
  C57      1.0000 0.61940  0.74810  0.66650  Biso   1.000  C
  C58      1.0000 0.63480  0.69630  0.74920  Biso   1.000  C
  C59      1.0000 0.68230  0.65730  0.76840  Biso   1.000  C
  H21      1.0000 0.69220  0.62310  0.82500  Biso   1.000  H
  C60      1.0000 0.71640  0.66860  0.70280  Biso   1.000  C
  C61      1.0000 0.70250  0.71850  0.62240  Biso   1.000  C
  H22      1.0000 0.72530  0.72560  0.57890  Biso   1.000  H
  C62      1.0000 0.65470  0.75970  0.60320  Biso   1.000  C
  C63      1.0000 0.63980  0.81610  0.51180  Biso   1.000  C
  C64      1.0000 0.76990  0.62540  0.72470  Biso   1.000  C
  H23      1.0000 0.82270  0.56100  0.07110  Biso   1.000  H
  H24      1.0000 0.80090  0.48490  0.06470  Biso   1.000  H
  Mn9      1.0000 0.36557  0.92709  0.14333  Biso   1.000  Mn
  Mn10     1.0000 0.32713  0.00438  0.38405  Biso   1.000  Mn
  O53      1.0000 0.92980  0.49200  0.10980  Biso   1.000  O
  O54      1.0000 0.90080  0.55690  0.96020  Biso   1.000  O
  O55      1.0000 0.13670  0.52780  0.24470  Biso   1.000  O
  O56      1.0000 0.13790  0.63680  0.34020  Biso   1.000  O
  O57      1.0000 0.11560  0.70710  0.92830  Biso   1.000  O
  O58      1.0000 0.15250  0.61300  0.02540  Biso   1.000  O
  O59      1.0000 0.29120  0.87990  0.15100  Biso   1.000  O
  O60      1.0000 0.28900  0.90030  0.31540  Biso   1.000  O
  O61      1.0000 0.12080  0.83930  0.40440  Biso   1.000  O
  O62      1.0000 0.05630  0.79870  0.29720  Biso   1.000  O
  O63      1.0000 0.04330  0.85910  0.07050  Biso   1.000  O
  O64      1.0000 0.98220  0.81430  0.93900  Biso   1.000  O
  O65      1.0000 0.30430  0.97360  0.53130  Biso   1.000  O
  N9       1.0000 0.01580  0.80440  0.02740  Biso   1.000  N
  N10      1.0000 0.10000  0.82160  0.31480  Biso   1.000  N
  C65      1.0000 0.93330  0.54570  0.04610  Biso   1.000  C
  C66      1.0000 0.98170  0.59980  0.07850  Biso   1.000  C
  C67      1.0000 0.02680  0.57500  0.14880  Biso   1.000  C
  H25      1.0000 0.02830  0.52390  0.17540  Biso   1.000  H
  C68      1.0000 0.07080  0.62520  0.18160  Biso   1.000  C
  C69      1.0000 0.06890  0.70260  0.14160  Biso   1.000  C
  C70      1.0000 0.02160  0.72620  0.06950  Biso   1.000  C
  C71      1.0000 0.97870  0.67550  0.03700  Biso   1.000  C
  H26      1.0000 0.94810  0.69180  0.98770  Biso   1.000  H
  C72      1.0000 0.11970  0.59590  0.26250  Biso   1.000  C
  C73      1.0000 0.11940  0.75190  0.16650  Biso   1.000  C
  C74      1.0000 0.13480  0.80370  0.24920  Biso   1.000  C
  C75      1.0000 0.18230  0.84270  0.26840  Biso   1.000  C
  H27      1.0000 0.19220  0.87690  0.32500  Biso   1.000  H
  C76      1.0000 0.21640  0.83140  0.20280  Biso   1.000  C
  C77      1.0000 0.20250  0.78150  0.12240  Biso   1.000  C
  H28      1.0000 0.22530  0.77440  0.07890  Biso   1.000  H
  C78      1.0000 0.15470  0.74030  0.10320  Biso   1.000  C
  C79      1.0000 0.13980  0.68390  0.01180  Biso   1.000  C
  C80      1.0000 0.26990  0.87460  0.22470  Biso   1.000  C
  H29      1.0000 0.32270  0.93900  0.57110  Biso   1.000  H
  H30      1.0000 0.30090  0.01510  0.56470  Biso   1.000  H
  Mn11     1.0000 0.86557  0.42709  0.14333  Biso   1.000  Mn
  Mn12     1.0000 0.82713  0.50438  0.38405  Biso   1.000  Mn
  O66      1.0000 0.42980  0.99200  0.10980  Biso   1.000  O
  O67      1.0000 0.40080  0.05690  0.96020  Biso   1.000  O
  O68      1.0000 0.63670  0.02780  0.24470  Biso   1.000  O
  O69      1.0000 0.63790  0.13680  0.34020  Biso   1.000  O
  O70      1.0000 0.61560  0.20710  0.92830  Biso   1.000  O
  O71      1.0000 0.65250  0.11300  0.02540  Biso   1.000  O
  O72      1.0000 0.79120  0.37990  0.15100  Biso   1.000  O
  O73      1.0000 0.78900  0.40030  0.31540  Biso   1.000  O
  O74      1.0000 0.62080  0.33930  0.40440  Biso   1.000  O
  O75      1.0000 0.55630  0.29870  0.29720  Biso   1.000  O
  O76      1.0000 0.54330  0.35910  0.07050  Biso   1.000  O
  O77      1.0000 0.48220  0.31430  0.93900  Biso   1.000  O
  O78      1.0000 0.80430  0.47360  0.53130  Biso   1.000  O
  N11      1.0000 0.51580  0.30440  0.02740  Biso   1.000  N
  N12      1.0000 0.60000  0.32160  0.31480  Biso   1.000  N
  C81      1.0000 0.43330  0.04570  0.04610  Biso   1.000  C
  C82      1.0000 0.48170  0.09980  0.07850  Biso   1.000  C
  C83      1.0000 0.52680  0.07500  0.14880  Biso   1.000  C
  H31      1.0000 0.52830  0.02390  0.17540  Biso   1.000  H
  C84      1.0000 0.57080  0.12520  0.18160  Biso   1.000  C
  C85      1.0000 0.56890  0.20260  0.14160  Biso   1.000  C
  C86      1.0000 0.52160  0.22620  0.06950  Biso   1.000  C
  C87      1.0000 0.47870  0.17550  0.03700  Biso   1.000  C
  H32      1.0000 0.44810  0.19180  0.98770  Biso   1.000  H
  C88      1.0000 0.61970  0.09590  0.26250  Biso   1.000  C
  C89      1.0000 0.61940  0.25190  0.16650  Biso   1.000  C
  C90      1.0000 0.63480  0.30370  0.24920  Biso   1.000  C
  C91      1.0000 0.68230  0.34270  0.26840  Biso   1.000  C
  H33      1.0000 0.69220  0.37690  0.32500  Biso   1.000  H
  C92      1.0000 0.71640  0.33140  0.20280  Biso   1.000  C
  C93      1.0000 0.70250  0.28150  0.12240  Biso   1.000  C
  H34      1.0000 0.72530  0.27440  0.07890  Biso   1.000  H
  C94      1.0000 0.65470  0.24030  0.10320  Biso   1.000  C
  C95      1.0000 0.63980  0.18390  0.01180  Biso   1.000  C
  C96      1.0000 0.76990  0.37460  0.22470  Biso   1.000  C
  H35      1.0000 0.82270  0.43900  0.57110  Biso   1.000  H
  H36      1.0000 0.80090  0.51510  0.56470  Biso   1.000  H
  Mn13     1.0000 0.63443  0.92709  0.35667  Biso   1.000  Mn
  Mn14     1.0000 0.67287  0.00438  0.11595  Biso   1.000  Mn
  O79      1.0000 0.07020  0.49200  0.39020  Biso   1.000  O
  O80      1.0000 0.09920  0.55690  0.53980  Biso   1.000  O
  O81      1.0000 0.86330  0.52780  0.25530  Biso   1.000  O
  O82      1.0000 0.86210  0.63680  0.15980  Biso   1.000  O
  O83      1.0000 0.88440  0.70710  0.57170  Biso   1.000  O
  O84      1.0000 0.84750  0.61300  0.47460  Biso   1.000  O
  O85      1.0000 0.70880  0.87990  0.34900  Biso   1.000  O
  O86      1.0000 0.71100  0.90030  0.18460  Biso   1.000  O
  O87      1.0000 0.87920  0.83930  0.09560  Biso   1.000  O
  O88      1.0000 0.94370  0.79870  0.20280  Biso   1.000  O
  O89      1.0000 0.95670  0.85910  0.42950  Biso   1.000  O
  O90      1.0000 0.01780  0.81430  0.56100  Biso   1.000  O
  O91      1.0000 0.69570  0.97360  0.96870  Biso   1.000  O
  N13      1.0000 0.98420  0.80440  0.47260  Biso   1.000  N
  N14      1.0000 0.90000  0.82160  0.18520  Biso   1.000  N
  C97      1.0000 0.06670  0.54570  0.45390  Biso   1.000  C
  C98      1.0000 0.01830  0.59980  0.42150  Biso   1.000  C
  C99      1.0000 0.97320  0.57500  0.35120  Biso   1.000  C
  H37      1.0000 0.97170  0.52390  0.32460  Biso   1.000  H
  C100     1.0000 0.92920  0.62520  0.31840  Biso   1.000  C
  C101     1.0000 0.93110  0.70260  0.35840  Biso   1.000  C
  C102     1.0000 0.97840  0.72620  0.43050  Biso   1.000  C
  C103     1.0000 0.02130  0.67550  0.46300  Biso   1.000  C
  H38      1.0000 0.05190  0.69180  0.51230  Biso   1.000  H
  C104     1.0000 0.88030  0.59590  0.23750  Biso   1.000  C
  C105     1.0000 0.88060  0.75190  0.33350  Biso   1.000  C
  C106     1.0000 0.86520  0.80370  0.25080  Biso   1.000  C
  C107     1.0000 0.81770  0.84270  0.23160  Biso   1.000  C
  H39      1.0000 0.80780  0.87690  0.17500  Biso   1.000  H
  C108     1.0000 0.78360  0.83140  0.29720  Biso   1.000  C
  C109     1.0000 0.79750  0.78150  0.37760  Biso   1.000  C
  H40      1.0000 0.77470  0.77440  0.42110  Biso   1.000  H
  C110     1.0000 0.84530  0.74030  0.39680  Biso   1.000  C
  C111     1.0000 0.86020  0.68390  0.48820  Biso   1.000  C
  C112     1.0000 0.73010  0.87460  0.27530  Biso   1.000  C
  H41      1.0000 0.67730  0.93900  0.92890  Biso   1.000  H
  H42      1.0000 0.69910  0.01510  0.93530  Biso   1.000  H
  Mn15     1.0000 0.13443  0.42709  0.35667  Biso   1.000  Mn
  Mn16     1.0000 0.17287  0.50438  0.11595  Biso   1.000  Mn
  O92      1.0000 0.57020  0.99200  0.39020  Biso   1.000  O
  O93      1.0000 0.59920  0.05690  0.53980  Biso   1.000  O
  O94      1.0000 0.36330  0.02780  0.25530  Biso   1.000  O
  O95      1.0000 0.36210  0.13680  0.15980  Biso   1.000  O
  O96      1.0000 0.38440  0.20710  0.57170  Biso   1.000  O
  O97      1.0000 0.34750  0.11300  0.47460  Biso   1.000  O
  O98      1.0000 0.20880  0.37990  0.34900  Biso   1.000  O
  O99      1.0000 0.21100  0.40030  0.18460  Biso   1.000  O
  O100     1.0000 0.37920  0.33930  0.09560  Biso   1.000  O
  O101     1.0000 0.44370  0.29870  0.20280  Biso   1.000  O
  O102     1.0000 0.45670  0.35910  0.42950  Biso   1.000  O
  O103     1.0000 0.51780  0.31430  0.56100  Biso   1.000  O
  O104     1.0000 0.19570  0.47360  0.96870  Biso   1.000  O
  N15      1.0000 0.48420  0.30440  0.47260  Biso   1.000  N
  N16      1.0000 0.40000  0.32160  0.18520  Biso   1.000  N
  C113     1.0000 0.56670  0.04570  0.45390  Biso   1.000  C
  C114     1.0000 0.51830  0.09980  0.42150  Biso   1.000  C
  C115     1.0000 0.47320  0.07500  0.35120  Biso   1.000  C
  H43      1.0000 0.47170  0.02390  0.32460  Biso   1.000  H
  C116     1.0000 0.42920  0.12520  0.31840  Biso   1.000  C
  C117     1.0000 0.43110  0.20260  0.35840  Biso   1.000  C
  C118     1.0000 0.47840  0.22620  0.43050  Biso   1.000  C
  C119     1.0000 0.52130  0.17550  0.46300  Biso   1.000  C
  H44      1.0000 0.55190  0.19180  0.51230  Biso   1.000  H
  C120     1.0000 0.38030  0.09590  0.23750  Biso   1.000  C
  C121     1.0000 0.38060  0.25190  0.33350  Biso   1.000  C
  C122     1.0000 0.36520  0.30370  0.25080  Biso   1.000  C
  C123     1.0000 0.31770  0.34270  0.23160  Biso   1.000  C
  H45      1.0000 0.30780  0.37690  0.17500  Biso   1.000  H
  C124     1.0000 0.28360  0.33140  0.29720  Biso   1.000  C
  C125     1.0000 0.29750  0.28150  0.37760  Biso   1.000  C
  H46      1.0000 0.27470  0.27440  0.42110  Biso   1.000  H
  C126     1.0000 0.34530  0.24030  0.39680  Biso   1.000  C
  C127     1.0000 0.36020  0.18390  0.48820  Biso   1.000  C
  C128     1.0000 0.23010  0.37460  0.27530  Biso   1.000  C
  H47      1.0000 0.17730  0.43900  0.92890  Biso   1.000  H
  H48      1.0000 0.19910  0.51510  0.93530  Biso   1.000  H
