data_image0
_cell_length_a       26.4461
_cell_length_b       16.5489
_cell_length_c       13.4894
_cell_angle_alpha    90
_cell_angle_beta     104.288
_cell_angle_gamma    90

_symmetry_space_group_name_H-M    "P 1"
_symmetry_int_tables_number       1

loop_
  _symmetry_equiv_pos_as_xyz
  'x, y, z'

loop_
  _atom_site_label
  _atom_site_occupancy
  _atom_site_fract_x
  _atom_site_fract_y
  _atom_site_fract_z
  _atom_site_thermal_displace_type
  _atom_site_B_iso_or_equiv
  _atom_site_type_symbol
  C1       1.0000 0.43490  0.95320  0.04690  Biso   1.000  C
  C2       1.0000 0.48130  0.89810  0.07960  Biso   1.000  C
  C3       1.0000 0.47870  0.81980  0.03990  Biso   1.000  C
  H1       1.0000 0.44870  0.80220  0.99320  Biso   1.000  H
  C4       1.0000 0.52260  0.76700  0.07170  Biso   1.000  C
  C5       1.0000 0.56960  0.79270  0.14390  Biso   1.000  C
  C6       1.0000 0.57110  0.87140  0.18120  Biso   1.000  C
  C7       1.0000 0.52700  0.92300  0.14950  Biso   1.000  C
  H2       1.0000 0.52860  0.97510  0.17620  Biso   1.000  H
  C8       1.0000 0.61980  0.74350  0.16490  Biso   1.000  C
  C9       1.0000 0.63760  0.69220  0.25090  Biso   1.000  C
  C10      1.0000 0.68600  0.65440  0.27120  Biso   1.000  C
  H3       1.0000 0.69690  0.62220  0.32900  Biso   1.000  H
  C11      1.0000 0.71830  0.66550  0.20290  Biso   1.000  C
  C12      1.0000 0.70170  0.71600  0.11900  Biso   1.000  C
  H4       1.0000 0.72300  0.72390  0.07430  Biso   1.000  H
  C13      1.0000 0.65330  0.75540  0.10050  Biso   1.000  C
  C14      1.0000 0.63800  0.81250  0.00910  Biso   1.000  C
  C15      1.0000 0.77230  0.62490  0.22390  Biso   1.000  C
  C16      1.0000 0.61880  0.90260  0.26080  Biso   1.000  C
  N1       1.0000 0.51630  0.68580  0.02930  Biso   1.000  N
  N2       1.0000 0.60390  0.67640  0.32260  Biso   1.000  N
  O1       1.0000 0.43151  0.01000  0.11020  Biso   1.000  O
  O2       1.0000 0.40214  0.94050  0.96140  Biso   1.000  O
  O3       1.0000 0.55750  0.69250  0.29740  Biso   1.000  O
  O4       1.0000 0.62470  0.64970  0.40880  Biso   1.000  O
  O5       1.0000 0.48280  0.67360  0.95240  Biso   1.000  O
  O6       1.0000 0.54730  0.63310  0.06890  Biso   1.000  O
  O7       1.0000 0.79240  0.60300  0.31500  Biso   1.000  O
  O8       1.0000 0.79310  0.61850  0.14960  Biso   1.000  O
  O9       1.0000 0.65130  0.88620  0.02390  Biso   1.000  O
  O10      1.0000 0.61520  0.78790  0.92310  Biso   1.000  O
  O11      1.0000 0.63627  0.97310  0.24380  Biso   1.000  O
  O12      1.0000 0.63745  0.86180  0.33940  Biso   1.000  O
  Mn1      1.0000 0.87010  0.57834  0.14851  Biso   1.000  Mn
  Mn2      1.0000 0.82817  0.49661  0.38608  Biso   1.000  Mn
  C17      1.0000 0.93490  0.45320  0.04690  Biso   1.000  C
  C18      1.0000 0.98130  0.39810  0.07960  Biso   1.000  C
  C19      1.0000 0.97870  0.31980  0.03990  Biso   1.000  C
  H5       1.0000 0.94870  0.30220  0.99320  Biso   1.000  H
  C20      1.0000 0.02260  0.26700  0.07170  Biso   1.000  C
  C21      1.0000 0.06960  0.29270  0.14390  Biso   1.000  C
  C22      1.0000 0.07110  0.37140  0.18120  Biso   1.000  C
  C23      1.0000 0.02700  0.42300  0.14950  Biso   1.000  C
  H6       1.0000 0.02860  0.47510  0.17620  Biso   1.000  H
  C24      1.0000 0.11980  0.24350  0.16490  Biso   1.000  C
  C25      1.0000 0.13760  0.19220  0.25090  Biso   1.000  C
  C26      1.0000 0.18600  0.15440  0.27120  Biso   1.000  C
  H7       1.0000 0.19690  0.12220  0.32900  Biso   1.000  H
  C27      1.0000 0.21830  0.16550  0.20290  Biso   1.000  C
  C28      1.0000 0.20170  0.21600  0.11900  Biso   1.000  C
  H8       1.0000 0.22300  0.22390  0.07430  Biso   1.000  H
  C29      1.0000 0.15330  0.25540  0.10050  Biso   1.000  C
  C30      1.0000 0.13800  0.31250  0.00910  Biso   1.000  C
  C31      1.0000 0.27230  0.12490  0.22390  Biso   1.000  C
  C32      1.0000 0.11880  0.40260  0.26080  Biso   1.000  C
  N3       1.0000 0.01630  0.18580  0.02930  Biso   1.000  N
  N4       1.0000 0.10390  0.17640  0.32260  Biso   1.000  N
  O13      1.0000 0.93151  0.51000  0.11020  Biso   1.000  O
  O14      1.0000 0.90214  0.44050  0.96140  Biso   1.000  O
  O15      1.0000 0.05750  0.19250  0.29740  Biso   1.000  O
  O16      1.0000 0.12470  0.14970  0.40880  Biso   1.000  O
  O17      1.0000 0.98280  0.17360  0.95240  Biso   1.000  O
  O18      1.0000 0.04730  0.13310  0.06890  Biso   1.000  O
  O19      1.0000 0.29240  0.10300  0.31500  Biso   1.000  O
  O20      1.0000 0.29310  0.11850  0.14960  Biso   1.000  O
  O21      1.0000 0.15130  0.38620  0.02390  Biso   1.000  O
  O22      1.0000 0.11520  0.28790  0.92310  Biso   1.000  O
  O23      1.0000 0.13627  0.47310  0.24380  Biso   1.000  O
  O24      1.0000 0.13745  0.36180  0.33940  Biso   1.000  O
  Mn3      1.0000 0.37010  0.07834  0.14851  Biso   1.000  Mn
  Mn4      1.0000 0.32817  0.99661  0.38608  Biso   1.000  Mn
  C33      1.0000 0.56510  0.95320  0.45310  Biso   1.000  C
  C34      1.0000 0.51870  0.89810  0.42040  Biso   1.000  C
  C35      1.0000 0.52130  0.81980  0.46010  Biso   1.000  C
  H9       1.0000 0.55130  0.80220  0.50680  Biso   1.000  H
  C36      1.0000 0.47740  0.76700  0.42830  Biso   1.000  C
  C37      1.0000 0.43040  0.79270  0.35610  Biso   1.000  C
  C38      1.0000 0.42890  0.87140  0.31880  Biso   1.000  C
  C39      1.0000 0.47300  0.92300  0.35050  Biso   1.000  C
  H10      1.0000 0.47140  0.97510  0.32380  Biso   1.000  H
  C40      1.0000 0.38020  0.74350  0.33510  Biso   1.000  C
  C41      1.0000 0.36240  0.69220  0.24910  Biso   1.000  C
  C42      1.0000 0.31400  0.65440  0.22880  Biso   1.000  C
  H11      1.0000 0.30310  0.62220  0.17100  Biso   1.000  H
  C43      1.0000 0.28170  0.66550  0.29710  Biso   1.000  C
  C44      1.0000 0.29830  0.71600  0.38100  Biso   1.000  C
  H12      1.0000 0.27700  0.72390  0.42570  Biso   1.000  H
  C45      1.0000 0.34670  0.75540  0.39950  Biso   1.000  C
  C46      1.0000 0.36200  0.81250  0.49090  Biso   1.000  C
  C47      1.0000 0.22770  0.62490  0.27610  Biso   1.000  C
  C48      1.0000 0.38120  0.90260  0.23920  Biso   1.000  C
  N5       1.0000 0.48370  0.68580  0.47070  Biso   1.000  N
  N6       1.0000 0.39610  0.67640  0.17740  Biso   1.000  N
  O25      1.0000 0.56849  0.01000  0.38980  Biso   1.000  O
  O26      1.0000 0.59786  0.94050  0.53860  Biso   1.000  O
  O27      1.0000 0.44250  0.69250  0.20260  Biso   1.000  O
  O28      1.0000 0.37530  0.64970  0.09120  Biso   1.000  O
  O29      1.0000 0.51720  0.67360  0.54760  Biso   1.000  O
  O30      1.0000 0.45270  0.63310  0.43110  Biso   1.000  O
  O31      1.0000 0.20760  0.60300  0.18500  Biso   1.000  O
  O32      1.0000 0.20690  0.61850  0.35040  Biso   1.000  O
  O33      1.0000 0.34870  0.88620  0.47610  Biso   1.000  O
  O34      1.0000 0.38480  0.78790  0.57690  Biso   1.000  O
  O35      1.0000 0.36373  0.97310  0.25620  Biso   1.000  O
  O36      1.0000 0.36255  0.86180  0.16060  Biso   1.000  O
  Mn5      1.0000 0.12990  0.57834  0.35149  Biso   1.000  Mn
  Mn6      1.0000 0.17183  0.49661  0.11392  Biso   1.000  Mn
  C49      1.0000 0.06510  0.45320  0.45310  Biso   1.000  C
  C50      1.0000 0.01870  0.39810  0.42040  Biso   1.000  C
  C51      1.0000 0.02130  0.31980  0.46010  Biso   1.000  C
  H13      1.0000 0.05130  0.30220  0.50680  Biso   1.000  H
  C52      1.0000 0.97740  0.26700  0.42830  Biso   1.000  C
  C53      1.0000 0.93040  0.29270  0.35610  Biso   1.000  C
  C54      1.0000 0.92890  0.37140  0.31880  Biso   1.000  C
  C55      1.0000 0.97300  0.42300  0.35050  Biso   1.000  C
  H14      1.0000 0.97140  0.47510  0.32380  Biso   1.000  H
  C56      1.0000 0.88020  0.24350  0.33510  Biso   1.000  C
  C57      1.0000 0.86240  0.19220  0.24910  Biso   1.000  C
  C58      1.0000 0.81400  0.15440  0.22880  Biso   1.000  C
  H15      1.0000 0.80310  0.12220  0.17100  Biso   1.000  H
  C59      1.0000 0.78170  0.16550  0.29710  Biso   1.000  C
  C60      1.0000 0.79830  0.21600  0.38100  Biso   1.000  C
  H16      1.0000 0.77700  0.22390  0.42570  Biso   1.000  H
  C61      1.0000 0.84670  0.25540  0.39950  Biso   1.000  C
  C62      1.0000 0.86200  0.31250  0.49090  Biso   1.000  C
  C63      1.0000 0.72770  0.12490  0.27610  Biso   1.000  C
  C64      1.0000 0.88120  0.40260  0.23920  Biso   1.000  C
  N7       1.0000 0.98370  0.18580  0.47070  Biso   1.000  N
  N8       1.0000 0.89610  0.17640  0.17740  Biso   1.000  N
  O37      1.0000 0.06849  0.51000  0.38980  Biso   1.000  O
  O38      1.0000 0.09786  0.44050  0.53860  Biso   1.000  O
  O39      1.0000 0.94250  0.19250  0.20260  Biso   1.000  O
  O40      1.0000 0.87530  0.14970  0.09120  Biso   1.000  O
  O41      1.0000 0.01720  0.17360  0.54760  Biso   1.000  O
  O42      1.0000 0.95270  0.13310  0.43110  Biso   1.000  O
  O43      1.0000 0.70760  0.10300  0.18500  Biso   1.000  O
  O44      1.0000 0.70690  0.11850  0.35040  Biso   1.000  O
  O45      1.0000 0.84870  0.38620  0.47610  Biso   1.000  O
  O46      1.0000 0.88480  0.28790  0.57690  Biso   1.000  O
  O47      1.0000 0.86373  0.47310  0.25620  Biso   1.000  O
  O48      1.0000 0.86255  0.36180  0.16060  Biso   1.000  O
  Mn7      1.0000 0.62990  0.07834  0.35149  Biso   1.000  Mn
  Mn8      1.0000 0.67183  0.99661  0.11392  Biso   1.000  Mn
  C65      1.0000 0.56510  0.04680  0.95310  Biso   1.000  C
  C66      1.0000 0.51870  0.10190  0.92040  Biso   1.000  C
  C67      1.0000 0.52130  0.18020  0.96010  Biso   1.000  C
  H17      1.0000 0.55130  0.19780  0.00680  Biso   1.000  H
  C68      1.0000 0.47740  0.23300  0.92830  Biso   1.000  C
  C69      1.0000 0.43040  0.20730  0.85610  Biso   1.000  C
  C70      1.0000 0.42890  0.12860  0.81880  Biso   1.000  C
  C71      1.0000 0.47300  0.07700  0.85050  Biso   1.000  C
  H18      1.0000 0.47140  0.02490  0.82380  Biso   1.000  H
  C72      1.0000 0.38020  0.25650  0.83510  Biso   1.000  C
  C73      1.0000 0.36240  0.30780  0.74910  Biso   1.000  C
  C74      1.0000 0.31400  0.34560  0.72880  Biso   1.000  C
  H19      1.0000 0.30310  0.37780  0.67100  Biso   1.000  H
  C75      1.0000 0.28170  0.33450  0.79710  Biso   1.000  C
  C76      1.0000 0.29830  0.28400  0.88100  Biso   1.000  C
  H20      1.0000 0.27700  0.27610  0.92570  Biso   1.000  H
  C77      1.0000 0.34670  0.24460  0.89950  Biso   1.000  C
  C78      1.0000 0.36200  0.18750  0.99090  Biso   1.000  C
  C79      1.0000 0.22770  0.37510  0.77610  Biso   1.000  C
  C80      1.0000 0.38120  0.09740  0.73920  Biso   1.000  C
  N9       1.0000 0.48370  0.31420  0.97070  Biso   1.000  N
  N10      1.0000 0.39610  0.32360  0.67740  Biso   1.000  N
  O49      1.0000 0.56849  0.99000  0.88980  Biso   1.000  O
  O50      1.0000 0.59786  0.05950  0.03860  Biso   1.000  O
  O51      1.0000 0.44250  0.30750  0.70260  Biso   1.000  O
  O52      1.0000 0.37530  0.35030  0.59120  Biso   1.000  O
  O53      1.0000 0.51720  0.32640  0.04760  Biso   1.000  O
  O54      1.0000 0.45270  0.36690  0.93110  Biso   1.000  O
  O55      1.0000 0.20760  0.39700  0.68500  Biso   1.000  O
  O56      1.0000 0.20690  0.38150  0.85040  Biso   1.000  O
  O57      1.0000 0.34870  0.11380  0.97610  Biso   1.000  O
  O58      1.0000 0.38480  0.21210  0.07690  Biso   1.000  O
  O59      1.0000 0.36373  0.02690  0.75620  Biso   1.000  O
  O60      1.0000 0.36255  0.13820  0.66060  Biso   1.000  O
  Mn9      1.0000 0.12990  0.42166  0.85149  Biso   1.000  Mn
  Mn10     1.0000 0.17183  0.50339  0.61392  Biso   1.000  Mn
  C81      1.0000 0.06510  0.54680  0.95310  Biso   1.000  C
  C82      1.0000 0.01870  0.60190  0.92040  Biso   1.000  C
  C83      1.0000 0.02130  0.68020  0.96010  Biso   1.000  C
  H21      1.0000 0.05130  0.69780  0.00680  Biso   1.000  H
  C84      1.0000 0.97740  0.73300  0.92830  Biso   1.000  C
  C85      1.0000 0.93040  0.70730  0.85610  Biso   1.000  C
  C86      1.0000 0.92890  0.62860  0.81880  Biso   1.000  C
  C87      1.0000 0.97300  0.57700  0.85050  Biso   1.000  C
  H22      1.0000 0.97140  0.52490  0.82380  Biso   1.000  H
  C88      1.0000 0.88020  0.75650  0.83510  Biso   1.000  C
  C89      1.0000 0.86240  0.80780  0.74910  Biso   1.000  C
  C90      1.0000 0.81400  0.84560  0.72880  Biso   1.000  C
  H23      1.0000 0.80310  0.87780  0.67100  Biso   1.000  H
  C91      1.0000 0.78170  0.83450  0.79710  Biso   1.000  C
  C92      1.0000 0.79830  0.78400  0.88100  Biso   1.000  C
  H24      1.0000 0.77700  0.77610  0.92570  Biso   1.000  H
  C93      1.0000 0.84670  0.74460  0.89950  Biso   1.000  C
  C94      1.0000 0.86200  0.68750  0.99090  Biso   1.000  C
  C95      1.0000 0.72770  0.87510  0.77610  Biso   1.000  C
  C96      1.0000 0.88120  0.59740  0.73920  Biso   1.000  C
  N11      1.0000 0.98370  0.81420  0.97070  Biso   1.000  N
  N12      1.0000 0.89610  0.82360  0.67740  Biso   1.000  N
  O61      1.0000 0.06849  0.49000  0.88980  Biso   1.000  O
  O62      1.0000 0.09786  0.55950  0.03860  Biso   1.000  O
  O63      1.0000 0.94250  0.80750  0.70260  Biso   1.000  O
  O64      1.0000 0.87530  0.85030  0.59120  Biso   1.000  O
  O65      1.0000 0.01720  0.82640  0.04760  Biso   1.000  O
  O66      1.0000 0.95270  0.86690  0.93110  Biso   1.000  O
  O67      1.0000 0.70760  0.89700  0.68500  Biso   1.000  O
  O68      1.0000 0.70690  0.88150  0.85040  Biso   1.000  O
  O69      1.0000 0.84870  0.61380  0.97610  Biso   1.000  O
  O70      1.0000 0.88480  0.71210  0.07690  Biso   1.000  O
  O71      1.0000 0.86373  0.52690  0.75620  Biso   1.000  O
  O72      1.0000 0.86255  0.63820  0.66060  Biso   1.000  O
  Mn11     1.0000 0.62990  0.92166  0.85149  Biso   1.000  Mn
  Mn12     1.0000 0.67183  0.00339  0.61392  Biso   1.000  Mn
  C97      1.0000 0.43490  0.04680  0.54690  Biso   1.000  C
  C98      1.0000 0.48130  0.10190  0.57960  Biso   1.000  C
  C99      1.0000 0.47870  0.18020  0.53990  Biso   1.000  C
  H25      1.0000 0.44870  0.19780  0.49320  Biso   1.000  H
  C100     1.0000 0.52260  0.23300  0.57170  Biso   1.000  C
  C101     1.0000 0.56960  0.20730  0.64390  Biso   1.000  C
  C102     1.0000 0.57110  0.12860  0.68120  Biso   1.000  C
  C103     1.0000 0.52700  0.07700  0.64950  Biso   1.000  C
  H26      1.0000 0.52860  0.02490  0.67620  Biso   1.000  H
  C104     1.0000 0.61980  0.25650  0.66490  Biso   1.000  C
  C105     1.0000 0.63760  0.30780  0.75090  Biso   1.000  C
  C106     1.0000 0.68600  0.34560  0.77120  Biso   1.000  C
  H27      1.0000 0.69690  0.37780  0.82900  Biso   1.000  H
  C107     1.0000 0.71830  0.33450  0.70290  Biso   1.000  C
  C108     1.0000 0.70170  0.28400  0.61900  Biso   1.000  C
  H28      1.0000 0.72300  0.27610  0.57430  Biso   1.000  H
  C109     1.0000 0.65330  0.24460  0.60050  Biso   1.000  C
  C110     1.0000 0.63800  0.18750  0.50910  Biso   1.000  C
  C111     1.0000 0.77230  0.37510  0.72390  Biso   1.000  C
  C112     1.0000 0.61880  0.09740  0.76080  Biso   1.000  C
  N13      1.0000 0.51630  0.31420  0.52930  Biso   1.000  N
  N14      1.0000 0.60390  0.32360  0.82260  Biso   1.000  N
  O73      1.0000 0.43151  0.99000  0.61020  Biso   1.000  O
  O74      1.0000 0.40214  0.05950  0.46140  Biso   1.000  O
  O75      1.0000 0.55750  0.30750  0.79740  Biso   1.000  O
  O76      1.0000 0.62470  0.35030  0.90880  Biso   1.000  O
  O77      1.0000 0.48280  0.32640  0.45240  Biso   1.000  O
  O78      1.0000 0.54730  0.36690  0.56890  Biso   1.000  O
  O79      1.0000 0.79240  0.39700  0.81500  Biso   1.000  O
  O80      1.0000 0.79310  0.38150  0.64960  Biso   1.000  O
  O81      1.0000 0.65130  0.11380  0.52390  Biso   1.000  O
  O82      1.0000 0.61520  0.21210  0.42310  Biso   1.000  O
  O83      1.0000 0.63627  0.02690  0.74380  Biso   1.000  O
  O84      1.0000 0.63745  0.13820  0.83940  Biso   1.000  O
  Mn13     1.0000 0.87010  0.42166  0.64851  Biso   1.000  Mn
  Mn14     1.0000 0.82817  0.50339  0.88608  Biso   1.000  Mn
  C113     1.0000 0.93490  0.54680  0.54690  Biso   1.000  C
  C114     1.0000 0.98130  0.60190  0.57960  Biso   1.000  C
  C115     1.0000 0.97870  0.68020  0.53990  Biso   1.000  C
  H29      1.0000 0.94870  0.69780  0.49320  Biso   1.000  H
  C116     1.0000 0.02260  0.73300  0.57170  Biso   1.000  C
  C117     1.0000 0.06960  0.70730  0.64390  Biso   1.000  C
  C118     1.0000 0.07110  0.62860  0.68120  Biso   1.000  C
  C119     1.0000 0.02700  0.57700  0.64950  Biso   1.000  C
  H30      1.0000 0.02860  0.52490  0.67620  Biso   1.000  H
  C120     1.0000 0.11980  0.75650  0.66490  Biso   1.000  C
  C121     1.0000 0.13760  0.80780  0.75090  Biso   1.000  C
  C122     1.0000 0.18600  0.84560  0.77120  Biso   1.000  C
  H31      1.0000 0.19690  0.87780  0.82900  Biso   1.000  H
  C123     1.0000 0.21830  0.83450  0.70290  Biso   1.000  C
  C124     1.0000 0.20170  0.78400  0.61900  Biso   1.000  C
  H32      1.0000 0.22300  0.77610  0.57430  Biso   1.000  H
  C125     1.0000 0.15330  0.74460  0.60050  Biso   1.000  C
  C126     1.0000 0.13800  0.68750  0.50910  Biso   1.000  C
  C127     1.0000 0.27230  0.87510  0.72390  Biso   1.000  C
  C128     1.0000 0.11880  0.59740  0.76080  Biso   1.000  C
  N15      1.0000 0.01630  0.81420  0.52930  Biso   1.000  N
  N16      1.0000 0.10390  0.82360  0.82260  Biso   1.000  N
  O85      1.0000 0.93151  0.49000  0.61020  Biso   1.000  O
  O86      1.0000 0.90214  0.55950  0.46140  Biso   1.000  O
  O87      1.0000 0.05750  0.80750  0.79740  Biso   1.000  O
  O88      1.0000 0.12470  0.85030  0.90880  Biso   1.000  O
  O89      1.0000 0.98280  0.82640  0.45240  Biso   1.000  O
  O90      1.0000 0.04730  0.86690  0.56890  Biso   1.000  O
  O91      1.0000 0.29240  0.89700  0.81500  Biso   1.000  O
  O92      1.0000 0.29310  0.88150  0.64960  Biso   1.000  O
  O93      1.0000 0.15130  0.61380  0.52390  Biso   1.000  O
  O94      1.0000 0.11520  0.71210  0.42310  Biso   1.000  O
  O95      1.0000 0.13627  0.52690  0.74380  Biso   1.000  O
  O96      1.0000 0.13745  0.63820  0.83940  Biso   1.000  O
  Mn15     1.0000 0.37010  0.92166  0.64851  Biso   1.000  Mn
  Mn16     1.0000 0.32817  0.00339  0.88608  Biso   1.000  Mn
