data_OCUPUY_clean
_audit_creation_date              2014-07-02
_audit_creation_method            'Materials Studio'
_symmetry_space_group_name_H-M    'P1'
_symmetry_Int_Tables_number       1
_symmetry_cell_setting            triclinic
loop_
_symmetry_equiv_pos_as_xyz
  x,y,z
_cell_length_a                    7.4330
_cell_length_b                    9.3673
_cell_length_c                    12.4478
_cell_angle_alpha                 112.1020
_cell_angle_beta                  107.3710
_cell_angle_gamma                 90.0001
loop_
_atom_site_label
_atom_site_type_symbol
_atom_site_fract_x
_atom_site_fract_y
_atom_site_fract_z
_atom_site_U_iso_or_equiv
_atom_site_adp_type
_atom_site_occupancy
V1     V     0.53794   0.24417   0.48834   0.01267  Uiso   1.00
V2     V     0.95040   0.24417   0.48834   0.01267  Uiso   1.00
V3     V     0.46206   0.75583   0.51166   0.01267  Uiso   1.00
V4     V     0.04960   0.75583   0.51166   0.01267  Uiso   1.00
P1     P     0.81145   0.57929   0.62290   0.01267  Uiso   1.00
P2     P     0.81145   0.04361   0.62290   0.01267  Uiso   1.00
P3     P     0.18855   0.95639   0.37710   0.01267  Uiso   1.00
P4     P     0.18855   0.42071   0.37710   0.01267  Uiso   1.00
H1     H     0.99750   0.52120   0.78060   0.01267  Uiso   1.00
H2     H     0.83100   0.79690   0.87800   0.01267  Uiso   1.00
H3     H     0.78310   0.25940   0.78060   0.01267  Uiso   1.00
H4     H     0.04700   0.08110   0.87800   0.01267  Uiso   1.00
H5     H     0.00250   0.74060   0.21940   0.01267  Uiso   1.00
H6     H     0.16900   0.91890   0.12200   0.01267  Uiso   1.00
H7     H     0.21690   0.47880   0.21940   0.01267  Uiso   1.00
H8     H     0.95300   0.20310   0.12200   0.01267  Uiso   1.00
H9     H     0.00250   0.47880   0.21940   0.01267  Uiso   1.00
H10    H     0.16900   0.20310   0.12200   0.01267  Uiso   1.00
H11    H     0.21690   0.74060   0.21940   0.01267  Uiso   1.00
H12    H     0.95300   0.91890   0.12200   0.01267  Uiso   1.00
H13    H     0.99750   0.25940   0.78060   0.01267  Uiso   1.00
H14    H     0.83100   0.08110   0.87800   0.01267  Uiso   1.00
H15    H     0.78310   0.52120   0.78060   0.01267  Uiso   1.00
H16    H     0.04700   0.79690   0.87800   0.01267  Uiso   1.00
H17    H     0.64690   0.20990   0.29380   0.01267  Uiso   1.00
H18    H     0.64690   0.08390   0.29380   0.01267  Uiso   1.00
H19    H     0.35310   0.91610   0.70620   0.01267  Uiso   1.00
H20    H     0.35310   0.79010   0.70620   0.01267  Uiso   1.00
H21    H     0.89270   0.64770   0.00000   0.01267  Uiso   1.00
H22    H     0.10730   0.35230   0.00000   0.01267  Uiso   1.00
H23    H     0.10730   0.64770   0.00000   0.01267  Uiso   1.00
H24    H     0.89270   0.35230   0.00000   0.01267  Uiso   1.00
C1     C     0.88649   0.57949   0.77298   0.01267  Uiso   1.00
C2     C     0.94068   0.73688   0.88136   0.01267  Uiso   1.00
C3     C     0.88649   0.19349   0.77298   0.01267  Uiso   1.00
C4     C     0.94068   0.14448   0.88136   0.01267  Uiso   1.00
C5     C     0.11351   0.80651   0.22702   0.01267  Uiso   1.00
C6     C     0.05932   0.85552   0.11864   0.01267  Uiso   1.00
C7     C     0.11351   0.42051   0.22702   0.01267  Uiso   1.00
C8     C     0.05932   0.26312   0.11864   0.01267  Uiso   1.00
C9     C     0.00000   0.71030  -0.00000   0.01267  Uiso   1.00
C10    C     0.00000   0.28970   1.00000   0.01267  Uiso   1.00
O1     O     0.63088   0.65487   0.60700   0.01267  Uiso   1.00
O2     O     0.97612   0.95213   0.60700   0.01267  Uiso   1.00
O3     O     0.36912   0.04787   0.39300   0.01267  Uiso   1.00
O4     O     0.02388   0.34513   0.39300   0.01267  Uiso   1.00
O5     O     0.36912   0.34513   0.39300   0.01267  Uiso   1.00
O6     O     0.02388   0.04787   0.39300   0.01267  Uiso   1.00
O7     O     0.63088   0.95213   0.60700   0.01267  Uiso   1.00
O8     O     0.97612   0.65487   0.60700   0.01267  Uiso   1.00
O9     O     0.76565   0.40470   0.53130   0.01267  Uiso   1.00
O10    O     0.76565   0.12660   0.53130   0.01267  Uiso   1.00
O11    O     0.23435   0.87340   0.46870   0.01267  Uiso   1.00
O12    O     0.23435   0.59530   0.46870   0.01267  Uiso   1.00
O13    O     0.66605   0.16605   0.33210   0.01267  Uiso   1.00
O14    O     0.33395   0.83395   0.66790   0.01267  Uiso   1.00
