data_image0
_cell_length_a       15.712
_cell_length_b       10.03
_cell_length_c       18.656
_cell_angle_alpha    90
_cell_angle_beta     103.328
_cell_angle_gamma    90

_symmetry_space_group_name_H-M    "P 1"
_symmetry_int_tables_number       1

loop_
  _symmetry_equiv_pos_as_xyz
  'x, y, z'

loop_
  _atom_site_label
  _atom_site_occupancy
  _atom_site_fract_x
  _atom_site_fract_y
  _atom_site_fract_z
  _atom_site_thermal_displace_type
  _atom_site_B_iso_or_equiv
  _atom_site_type_symbol
  V1       1.0000 0.16272  0.11690  0.08371  Biso   1.000  V
  V2       1.0000 0.75412  0.04224  0.21608  Biso   1.000  V
  P1       1.0000 0.15956  0.82785  0.16288  Biso   1.000  P
  P2       1.0000 0.79416  0.87877  0.07898  Biso   1.000  P
  O1       1.0000 0.79731  0.00050  0.12871  Biso   1.000  O
  O2       1.0000 0.22816  0.71850  0.16835  Biso   1.000  O
  O3       1.0000 0.16691  0.89870  0.23618  Biso   1.000  O
  O4       1.0000 0.21090  0.14150  0.19037  Biso   1.000  O
  O5       1.0000 0.16827  0.92340  0.10163  Biso   1.000  O
  O6       1.0000 0.79919  0.93230  0.00404  Biso   1.000  O
  O7       1.0000 0.71103  0.79810  0.07550  Biso   1.000  O
  C1       1.0000 0.05280  0.75200  0.13970  Biso   1.000  C
  H1       1.0000 0.04790  0.70050  0.09490  Biso   1.000  H
  H2       1.0000 0.04810  0.69030  0.17860  Biso   1.000  H
  C2       1.0000 0.97600  0.84920  0.12830  Biso   1.000  C
  H3       1.0000 0.97740  0.90710  0.08700  Biso   1.000  H
  H4       1.0000 0.98160  0.90440  0.17180  Biso   1.000  H
  C3       1.0000 0.88780  0.77490  0.11350  Biso   1.000  C
  H5       1.0000 0.88150  0.73350  0.15890  Biso   1.000  H
  H6       1.0000 0.88880  0.70430  0.07820  Biso   1.000  H
  H7       1.0000 0.21800  0.19800  0.19400  Biso   1.000  H
  V3       1.0000 0.66272  0.61690  0.08371  Biso   1.000  V
  V4       1.0000 0.25412  0.54224  0.21608  Biso   1.000  V
  P3       1.0000 0.65956  0.32785  0.16288  Biso   1.000  P
  P4       1.0000 0.29416  0.37877  0.07898  Biso   1.000  P
  O8       1.0000 0.29731  0.50050  0.12871  Biso   1.000  O
  O9       1.0000 0.72816  0.21850  0.16835  Biso   1.000  O
  O10      1.0000 0.66691  0.39870  0.23618  Biso   1.000  O
  O11      1.0000 0.71090  0.64150  0.19037  Biso   1.000  O
  O12      1.0000 0.66827  0.42340  0.10163  Biso   1.000  O
  O13      1.0000 0.29919  0.43230  0.00404  Biso   1.000  O
  O14      1.0000 0.21103  0.29810  0.07550  Biso   1.000  O
  C4       1.0000 0.55280  0.25200  0.13970  Biso   1.000  C
  H8       1.0000 0.54790  0.20050  0.09490  Biso   1.000  H
  H9       1.0000 0.54810  0.19030  0.17860  Biso   1.000  H
  C5       1.0000 0.47600  0.34920  0.12830  Biso   1.000  C
  H10      1.0000 0.47740  0.40710  0.08700  Biso   1.000  H
  H11      1.0000 0.48160  0.40440  0.17180  Biso   1.000  H
  C6       1.0000 0.38780  0.27490  0.11350  Biso   1.000  C
  H12      1.0000 0.38150  0.23350  0.15890  Biso   1.000  H
  H13      1.0000 0.38880  0.20430  0.07820  Biso   1.000  H
  H14      1.0000 0.71800  0.69800  0.19400  Biso   1.000  H
  V5       1.0000 0.83728  0.11690  0.41629  Biso   1.000  V
  V6       1.0000 0.24588  0.04224  0.28392  Biso   1.000  V
  P5       1.0000 0.84044  0.82785  0.33712  Biso   1.000  P
  P6       1.0000 0.20584  0.87877  0.42102  Biso   1.000  P
  O15      1.0000 0.20269  0.00050  0.37129  Biso   1.000  O
  O16      1.0000 0.77184  0.71850  0.33165  Biso   1.000  O
  O17      1.0000 0.83309  0.89870  0.26382  Biso   1.000  O
  O18      1.0000 0.78910  0.14150  0.30963  Biso   1.000  O
  O19      1.0000 0.83173  0.92340  0.39837  Biso   1.000  O
  O20      1.0000 0.20081  0.93230  0.49596  Biso   1.000  O
  O21      1.0000 0.28897  0.79810  0.42450  Biso   1.000  O
  C7       1.0000 0.94720  0.75200  0.36030  Biso   1.000  C
  H15      1.0000 0.95210  0.70050  0.40510  Biso   1.000  H
  H16      1.0000 0.95190  0.69030  0.32140  Biso   1.000  H
  C8       1.0000 0.02400  0.84920  0.37170  Biso   1.000  C
  H17      1.0000 0.02260  0.90710  0.41300  Biso   1.000  H
  H18      1.0000 0.01840  0.90440  0.32820  Biso   1.000  H
  C9       1.0000 0.11220  0.77490  0.38650  Biso   1.000  C
  H19      1.0000 0.11850  0.73350  0.34110  Biso   1.000  H
  H20      1.0000 0.11120  0.70430  0.42180  Biso   1.000  H
  H21      1.0000 0.78200  0.19800  0.30600  Biso   1.000  H
  V7       1.0000 0.33728  0.61690  0.41629  Biso   1.000  V
  V8       1.0000 0.74588  0.54224  0.28392  Biso   1.000  V
  P7       1.0000 0.34044  0.32785  0.33712  Biso   1.000  P
  P8       1.0000 0.70584  0.37877  0.42102  Biso   1.000  P
  O22      1.0000 0.70269  0.50050  0.37129  Biso   1.000  O
  O23      1.0000 0.27184  0.21850  0.33165  Biso   1.000  O
  O24      1.0000 0.33309  0.39870  0.26382  Biso   1.000  O
  O25      1.0000 0.28910  0.64150  0.30963  Biso   1.000  O
  O26      1.0000 0.33173  0.42340  0.39837  Biso   1.000  O
  O27      1.0000 0.70081  0.43230  0.49596  Biso   1.000  O
  O28      1.0000 0.78897  0.29810  0.42450  Biso   1.000  O
  C10      1.0000 0.44720  0.25200  0.36030  Biso   1.000  C
  H22      1.0000 0.45210  0.20050  0.40510  Biso   1.000  H
  H23      1.0000 0.45190  0.19030  0.32140  Biso   1.000  H
  C11      1.0000 0.52400  0.34920  0.37170  Biso   1.000  C
  H24      1.0000 0.52260  0.40710  0.41300  Biso   1.000  H
  H25      1.0000 0.51840  0.40440  0.32820  Biso   1.000  H
  C12      1.0000 0.61220  0.27490  0.38650  Biso   1.000  C
  H26      1.0000 0.61850  0.23350  0.34110  Biso   1.000  H
  H27      1.0000 0.61120  0.20430  0.42180  Biso   1.000  H
  H28      1.0000 0.28200  0.69800  0.30600  Biso   1.000  H
  V9       1.0000 0.83728  0.88310  0.91629  Biso   1.000  V
  V10      1.0000 0.24588  0.95776  0.78392  Biso   1.000  V
  P9       1.0000 0.84044  0.17215  0.83712  Biso   1.000  P
  P10      1.0000 0.20584  0.12123  0.92102  Biso   1.000  P
  O29      1.0000 0.20269  0.99950  0.87129  Biso   1.000  O
  O30      1.0000 0.77184  0.28150  0.83165  Biso   1.000  O
  O31      1.0000 0.83309  0.10130  0.76382  Biso   1.000  O
  O32      1.0000 0.78910  0.85850  0.80963  Biso   1.000  O
  O33      1.0000 0.83173  0.07660  0.89837  Biso   1.000  O
  O34      1.0000 0.20081  0.06770  0.99596  Biso   1.000  O
  O35      1.0000 0.28897  0.20190  0.92450  Biso   1.000  O
  C13      1.0000 0.94720  0.24800  0.86030  Biso   1.000  C
  H29      1.0000 0.95210  0.29950  0.90510  Biso   1.000  H
  H30      1.0000 0.95190  0.30970  0.82140  Biso   1.000  H
  C14      1.0000 0.02400  0.15080  0.87170  Biso   1.000  C
  H31      1.0000 0.02260  0.09290  0.91300  Biso   1.000  H
  H32      1.0000 0.01840  0.09560  0.82820  Biso   1.000  H
  C15      1.0000 0.11220  0.22510  0.88650  Biso   1.000  C
  H33      1.0000 0.11850  0.26650  0.84110  Biso   1.000  H
  H34      1.0000 0.11120  0.29570  0.92180  Biso   1.000  H
  H35      1.0000 0.78200  0.80200  0.80600  Biso   1.000  H
  V11      1.0000 0.33728  0.38310  0.91629  Biso   1.000  V
  V12      1.0000 0.74588  0.45776  0.78392  Biso   1.000  V
  P11      1.0000 0.34044  0.67215  0.83712  Biso   1.000  P
  P12      1.0000 0.70584  0.62123  0.92102  Biso   1.000  P
  O36      1.0000 0.70269  0.49950  0.87129  Biso   1.000  O
  O37      1.0000 0.27184  0.78150  0.83165  Biso   1.000  O
  O38      1.0000 0.33309  0.60130  0.76382  Biso   1.000  O
  O39      1.0000 0.28910  0.35850  0.80963  Biso   1.000  O
  O40      1.0000 0.33173  0.57660  0.89837  Biso   1.000  O
  O41      1.0000 0.70081  0.56770  0.99596  Biso   1.000  O
  O42      1.0000 0.78897  0.70190  0.92450  Biso   1.000  O
  C16      1.0000 0.44720  0.74800  0.86030  Biso   1.000  C
  H36      1.0000 0.45210  0.79950  0.90510  Biso   1.000  H
  H37      1.0000 0.45190  0.80970  0.82140  Biso   1.000  H
  C17      1.0000 0.52400  0.65080  0.87170  Biso   1.000  C
  H38      1.0000 0.52260  0.59290  0.91300  Biso   1.000  H
  H39      1.0000 0.51840  0.59560  0.82820  Biso   1.000  H
  C18      1.0000 0.61220  0.72510  0.88650  Biso   1.000  C
  H40      1.0000 0.61850  0.76650  0.84110  Biso   1.000  H
  H41      1.0000 0.61120  0.79570  0.92180  Biso   1.000  H
  H42      1.0000 0.28200  0.30200  0.80600  Biso   1.000  H
  V13      1.0000 0.16272  0.88310  0.58371  Biso   1.000  V
  V14      1.0000 0.75412  0.95776  0.71608  Biso   1.000  V
  P13      1.0000 0.15956  0.17215  0.66288  Biso   1.000  P
  P14      1.0000 0.79416  0.12123  0.57898  Biso   1.000  P
  O43      1.0000 0.79731  0.99950  0.62871  Biso   1.000  O
  O44      1.0000 0.22816  0.28150  0.66835  Biso   1.000  O
  O45      1.0000 0.16691  0.10130  0.73618  Biso   1.000  O
  O46      1.0000 0.21090  0.85850  0.69037  Biso   1.000  O
  O47      1.0000 0.16827  0.07660  0.60163  Biso   1.000  O
  O48      1.0000 0.79919  0.06770  0.50404  Biso   1.000  O
  O49      1.0000 0.71103  0.20190  0.57550  Biso   1.000  O
  C19      1.0000 0.05280  0.24800  0.63970  Biso   1.000  C
  H43      1.0000 0.04790  0.29950  0.59490  Biso   1.000  H
  H44      1.0000 0.04810  0.30970  0.67860  Biso   1.000  H
  C20      1.0000 0.97600  0.15080  0.62830  Biso   1.000  C
  H45      1.0000 0.97740  0.09290  0.58700  Biso   1.000  H
  H46      1.0000 0.98160  0.09560  0.67180  Biso   1.000  H
  C21      1.0000 0.88780  0.22510  0.61350  Biso   1.000  C
  H47      1.0000 0.88150  0.26650  0.65890  Biso   1.000  H
  H48      1.0000 0.88880  0.29570  0.57820  Biso   1.000  H
  H49      1.0000 0.21800  0.80200  0.69400  Biso   1.000  H
  V15      1.0000 0.66272  0.38310  0.58371  Biso   1.000  V
  V16      1.0000 0.25412  0.45776  0.71608  Biso   1.000  V
  P15      1.0000 0.65956  0.67215  0.66288  Biso   1.000  P
  P16      1.0000 0.29416  0.62123  0.57898  Biso   1.000  P
  O50      1.0000 0.29731  0.49950  0.62871  Biso   1.000  O
  O51      1.0000 0.72816  0.78150  0.66835  Biso   1.000  O
  O52      1.0000 0.66691  0.60130  0.73618  Biso   1.000  O
  O53      1.0000 0.71090  0.35850  0.69037  Biso   1.000  O
  O54      1.0000 0.66827  0.57660  0.60163  Biso   1.000  O
  O55      1.0000 0.29919  0.56770  0.50404  Biso   1.000  O
  O56      1.0000 0.21103  0.70190  0.57550  Biso   1.000  O
  C22      1.0000 0.55280  0.74800  0.63970  Biso   1.000  C
  H50      1.0000 0.54790  0.79950  0.59490  Biso   1.000  H
  H51      1.0000 0.54810  0.80970  0.67860  Biso   1.000  H
  C23      1.0000 0.47600  0.65080  0.62830  Biso   1.000  C
  H52      1.0000 0.47740  0.59290  0.58700  Biso   1.000  H
  H53      1.0000 0.48160  0.59560  0.67180  Biso   1.000  H
  C24      1.0000 0.38780  0.72510  0.61350  Biso   1.000  C
  H54      1.0000 0.38150  0.76650  0.65890  Biso   1.000  H
  H55      1.0000 0.38880  0.79570  0.57820  Biso   1.000  H
  H56      1.0000 0.71800  0.30200  0.69400  Biso   1.000  H
