data_image0
_cell_length_a       15.5527
_cell_length_b       10.0841
_cell_length_c       18.7813
_cell_angle_alpha    90
_cell_angle_beta     104.423
_cell_angle_gamma    90

_symmetry_space_group_name_H-M    "P 1"
_symmetry_int_tables_number       1

loop_
  _symmetry_equiv_pos_as_xyz
  'x, y, z'

loop_
  _atom_site_label
  _atom_site_occupancy
  _atom_site_fract_x
  _atom_site_fract_y
  _atom_site_fract_z
  _atom_site_thermal_displace_type
  _atom_site_B_iso_or_equiv
  _atom_site_type_symbol
  V1       1.0000 0.24928  0.96938  0.28488  Biso   1.000  V
  V2       1.0000 0.83101  0.89017  0.41430  Biso   1.000  V
  P1       1.0000 0.20151  0.12821  0.41982  Biso   1.000  P
  P2       1.0000 0.83145  0.18035  0.34034  Biso   1.000  P
  O1       1.0000 0.81674  0.08138  0.39774  Biso   1.000  O
  O2       1.0000 0.28366  0.21078  0.42164  Biso   1.000  O
  O3       1.0000 0.20246  0.06650  0.49461  Biso   1.000  O
  O4       1.0000 0.19472  0.01211  0.36587  Biso   1.000  O
  O5       1.0000 0.82489  0.11553  0.26550  Biso   1.000  O
  O6       1.0000 0.76455  0.29342  0.33479  Biso   1.000  O
  O7       1.0000 0.21641  0.86748  0.19255  Biso   1.000  O
  C1       1.0000 0.10549  0.23119  0.39149  Biso   1.000  C
  H1       1.0000 0.10650  0.29870  0.43000  Biso   1.000  H
  H2       1.0000 0.10840  0.27840  0.34600  Biso   1.000  H
  C2       1.0000 0.01730  0.15510  0.37729  Biso   1.000  C
  H3       1.0000 0.00960  0.10100  0.33210  Biso   1.000  H
  H4       1.0000 0.01820  0.09450  0.41890  Biso   1.000  H
  C3       1.0000 0.93988  0.25200  0.36848  Biso   1.000  C
  H5       1.0000 0.94510  0.29790  0.41600  Biso   1.000  H
  H6       1.0000 0.94550  0.32010  0.33190  Biso   1.000  H
  H7       1.0000 0.22700  0.80100  0.20030  Biso   1.000  H
  V3       1.0000 0.74928  0.46938  0.28488  Biso   1.000  V
  V4       1.0000 0.33101  0.39017  0.41430  Biso   1.000  V
  P3       1.0000 0.70151  0.62821  0.41982  Biso   1.000  P
  P4       1.0000 0.33145  0.68035  0.34034  Biso   1.000  P
  O8       1.0000 0.31674  0.58138  0.39774  Biso   1.000  O
  O9       1.0000 0.78366  0.71078  0.42164  Biso   1.000  O
  O10      1.0000 0.70246  0.56650  0.49461  Biso   1.000  O
  O11      1.0000 0.69472  0.51211  0.36587  Biso   1.000  O
  O12      1.0000 0.32489  0.61553  0.26550  Biso   1.000  O
  O13      1.0000 0.26455  0.79342  0.33479  Biso   1.000  O
  O14      1.0000 0.71641  0.36748  0.19255  Biso   1.000  O
  C4       1.0000 0.60549  0.73119  0.39149  Biso   1.000  C
  H8       1.0000 0.60650  0.79870  0.43000  Biso   1.000  H
  H9       1.0000 0.60840  0.77840  0.34600  Biso   1.000  H
  C5       1.0000 0.51730  0.65510  0.37729  Biso   1.000  C
  H10      1.0000 0.50960  0.60100  0.33210  Biso   1.000  H
  H11      1.0000 0.51820  0.59450  0.41890  Biso   1.000  H
  C6       1.0000 0.43988  0.75200  0.36848  Biso   1.000  C
  H12      1.0000 0.44510  0.79790  0.41600  Biso   1.000  H
  H13      1.0000 0.44550  0.82010  0.33190  Biso   1.000  H
  H14      1.0000 0.72700  0.30100  0.20030  Biso   1.000  H
  V5       1.0000 0.75072  0.96938  0.21512  Biso   1.000  V
  V6       1.0000 0.16899  0.89017  0.08570  Biso   1.000  V
  P5       1.0000 0.79849  0.12821  0.08018  Biso   1.000  P
  P6       1.0000 0.16855  0.18035  0.15966  Biso   1.000  P
  O15      1.0000 0.18326  0.08138  0.10226  Biso   1.000  O
  O16      1.0000 0.71634  0.21078  0.07836  Biso   1.000  O
  O17      1.0000 0.79754  0.06650  0.00539  Biso   1.000  O
  O18      1.0000 0.80528  0.01211  0.13413  Biso   1.000  O
  O19      1.0000 0.17511  0.11553  0.23450  Biso   1.000  O
  O20      1.0000 0.23545  0.29342  0.16521  Biso   1.000  O
  O21      1.0000 0.78359  0.86748  0.30745  Biso   1.000  O
  C7       1.0000 0.89451  0.23119  0.10851  Biso   1.000  C
  H15      1.0000 0.89350  0.29870  0.07000  Biso   1.000  H
  H16      1.0000 0.89160  0.27840  0.15400  Biso   1.000  H
  C8       1.0000 0.98270  0.15510  0.12271  Biso   1.000  C
  H17      1.0000 0.99040  0.10100  0.16790  Biso   1.000  H
  H18      1.0000 0.98180  0.09450  0.08110  Biso   1.000  H
  C9       1.0000 0.06012  0.25200  0.13152  Biso   1.000  C
  H19      1.0000 0.05490  0.29790  0.08400  Biso   1.000  H
  H20      1.0000 0.05450  0.32010  0.16810  Biso   1.000  H
  H21      1.0000 0.77300  0.80100  0.29970  Biso   1.000  H
  V7       1.0000 0.25072  0.46938  0.21512  Biso   1.000  V
  V8       1.0000 0.66899  0.39017  0.08570  Biso   1.000  V
  P7       1.0000 0.29849  0.62821  0.08018  Biso   1.000  P
  P8       1.0000 0.66855  0.68035  0.15966  Biso   1.000  P
  O22      1.0000 0.68326  0.58138  0.10226  Biso   1.000  O
  O23      1.0000 0.21634  0.71078  0.07836  Biso   1.000  O
  O24      1.0000 0.29754  0.56650  0.00539  Biso   1.000  O
  O25      1.0000 0.30528  0.51211  0.13413  Biso   1.000  O
  O26      1.0000 0.67511  0.61553  0.23450  Biso   1.000  O
  O27      1.0000 0.73545  0.79342  0.16521  Biso   1.000  O
  O28      1.0000 0.28359  0.36748  0.30745  Biso   1.000  O
  C10      1.0000 0.39451  0.73119  0.10851  Biso   1.000  C
  H22      1.0000 0.39350  0.79870  0.07000  Biso   1.000  H
  H23      1.0000 0.39160  0.77840  0.15400  Biso   1.000  H
  C11      1.0000 0.48270  0.65510  0.12271  Biso   1.000  C
  H24      1.0000 0.49040  0.60100  0.16790  Biso   1.000  H
  H25      1.0000 0.48180  0.59450  0.08110  Biso   1.000  H
  C12      1.0000 0.56012  0.75200  0.13152  Biso   1.000  C
  H26      1.0000 0.55490  0.79790  0.08400  Biso   1.000  H
  H27      1.0000 0.55450  0.82010  0.16810  Biso   1.000  H
  H28      1.0000 0.27300  0.30100  0.29970  Biso   1.000  H
  V9       1.0000 0.75072  0.03062  0.71512  Biso   1.000  V
  V10      1.0000 0.16899  0.10983  0.58570  Biso   1.000  V
  P9       1.0000 0.79849  0.87179  0.58018  Biso   1.000  P
  P10      1.0000 0.16855  0.81965  0.65966  Biso   1.000  P
  O29      1.0000 0.18326  0.91862  0.60226  Biso   1.000  O
  O30      1.0000 0.71634  0.78922  0.57836  Biso   1.000  O
  O31      1.0000 0.79754  0.93350  0.50539  Biso   1.000  O
  O32      1.0000 0.80528  0.98789  0.63413  Biso   1.000  O
  O33      1.0000 0.17511  0.88447  0.73450  Biso   1.000  O
  O34      1.0000 0.23545  0.70658  0.66521  Biso   1.000  O
  O35      1.0000 0.78359  0.13252  0.80745  Biso   1.000  O
  C13      1.0000 0.89451  0.76881  0.60851  Biso   1.000  C
  H29      1.0000 0.89350  0.70130  0.57000  Biso   1.000  H
  H30      1.0000 0.89160  0.72160  0.65400  Biso   1.000  H
  C14      1.0000 0.98270  0.84490  0.62271  Biso   1.000  C
  H31      1.0000 0.99040  0.89900  0.66790  Biso   1.000  H
  H32      1.0000 0.98180  0.90550  0.58110  Biso   1.000  H
  C15      1.0000 0.06012  0.74800  0.63152  Biso   1.000  C
  H33      1.0000 0.05490  0.70210  0.58400  Biso   1.000  H
  H34      1.0000 0.05450  0.67990  0.66810  Biso   1.000  H
  H35      1.0000 0.77300  0.19900  0.79970  Biso   1.000  H
  V11      1.0000 0.25072  0.53062  0.71512  Biso   1.000  V
  V12      1.0000 0.66899  0.60983  0.58570  Biso   1.000  V
  P11      1.0000 0.29849  0.37179  0.58018  Biso   1.000  P
  P12      1.0000 0.66855  0.31965  0.65966  Biso   1.000  P
  O36      1.0000 0.68326  0.41862  0.60226  Biso   1.000  O
  O37      1.0000 0.21634  0.28922  0.57836  Biso   1.000  O
  O38      1.0000 0.29754  0.43350  0.50539  Biso   1.000  O
  O39      1.0000 0.30528  0.48789  0.63413  Biso   1.000  O
  O40      1.0000 0.67511  0.38447  0.73450  Biso   1.000  O
  O41      1.0000 0.73545  0.20658  0.66521  Biso   1.000  O
  O42      1.0000 0.28359  0.63252  0.80745  Biso   1.000  O
  C16      1.0000 0.39451  0.26881  0.60851  Biso   1.000  C
  H36      1.0000 0.39350  0.20130  0.57000  Biso   1.000  H
  H37      1.0000 0.39160  0.22160  0.65400  Biso   1.000  H
  C17      1.0000 0.48270  0.34490  0.62271  Biso   1.000  C
  H38      1.0000 0.49040  0.39900  0.66790  Biso   1.000  H
  H39      1.0000 0.48180  0.40550  0.58110  Biso   1.000  H
  C18      1.0000 0.56012  0.24800  0.63152  Biso   1.000  C
  H40      1.0000 0.55490  0.20210  0.58400  Biso   1.000  H
  H41      1.0000 0.55450  0.17990  0.66810  Biso   1.000  H
  H42      1.0000 0.27300  0.69900  0.79970  Biso   1.000  H
  V13      1.0000 0.24928  0.03062  0.78488  Biso   1.000  V
  V14      1.0000 0.83101  0.10983  0.91430  Biso   1.000  V
  P13      1.0000 0.20151  0.87179  0.91982  Biso   1.000  P
  P14      1.0000 0.83145  0.81965  0.84034  Biso   1.000  P
  O43      1.0000 0.81674  0.91862  0.89774  Biso   1.000  O
  O44      1.0000 0.28366  0.78922  0.92164  Biso   1.000  O
  O45      1.0000 0.20246  0.93350  0.99461  Biso   1.000  O
  O46      1.0000 0.19472  0.98789  0.86587  Biso   1.000  O
  O47      1.0000 0.82489  0.88447  0.76550  Biso   1.000  O
  O48      1.0000 0.76455  0.70658  0.83479  Biso   1.000  O
  O49      1.0000 0.21641  0.13252  0.69255  Biso   1.000  O
  C19      1.0000 0.10549  0.76881  0.89149  Biso   1.000  C
  H43      1.0000 0.10650  0.70130  0.93000  Biso   1.000  H
  H44      1.0000 0.10840  0.72160  0.84600  Biso   1.000  H
  C20      1.0000 0.01730  0.84490  0.87729  Biso   1.000  C
  H45      1.0000 0.00960  0.89900  0.83210  Biso   1.000  H
  H46      1.0000 0.01820  0.90550  0.91890  Biso   1.000  H
  C21      1.0000 0.93988  0.74800  0.86848  Biso   1.000  C
  H47      1.0000 0.94510  0.70210  0.91600  Biso   1.000  H
  H48      1.0000 0.94550  0.67990  0.83190  Biso   1.000  H
  H49      1.0000 0.22700  0.19900  0.70030  Biso   1.000  H
  V15      1.0000 0.74928  0.53062  0.78488  Biso   1.000  V
  V16      1.0000 0.33101  0.60983  0.91430  Biso   1.000  V
  P15      1.0000 0.70151  0.37179  0.91982  Biso   1.000  P
  P16      1.0000 0.33145  0.31965  0.84034  Biso   1.000  P
  O50      1.0000 0.31674  0.41862  0.89774  Biso   1.000  O
  O51      1.0000 0.78366  0.28922  0.92164  Biso   1.000  O
  O52      1.0000 0.70246  0.43350  0.99461  Biso   1.000  O
  O53      1.0000 0.69472  0.48789  0.86587  Biso   1.000  O
  O54      1.0000 0.32489  0.38447  0.76550  Biso   1.000  O
  O55      1.0000 0.26455  0.20658  0.83479  Biso   1.000  O
  O56      1.0000 0.71641  0.63252  0.69255  Biso   1.000  O
  C22      1.0000 0.60549  0.26881  0.89149  Biso   1.000  C
  H50      1.0000 0.60650  0.20130  0.93000  Biso   1.000  H
  H51      1.0000 0.60840  0.22160  0.84600  Biso   1.000  H
  C23      1.0000 0.51730  0.34490  0.87729  Biso   1.000  C
  H52      1.0000 0.50960  0.39900  0.83210  Biso   1.000  H
  H53      1.0000 0.51820  0.40550  0.91890  Biso   1.000  H
  C24      1.0000 0.43988  0.24800  0.86848  Biso   1.000  C
  H54      1.0000 0.44510  0.20210  0.91600  Biso   1.000  H
  H55      1.0000 0.44550  0.17990  0.83190  Biso   1.000  H
  H56      1.0000 0.72700  0.69900  0.70030  Biso   1.000  H
