data_image0
_cell_length_a       15.2003
_cell_length_b       10.2122
_cell_length_c       18.5903
_cell_angle_alpha    90
_cell_angle_beta     103.53
_cell_angle_gamma    90

_symmetry_space_group_name_H-M    "P 1"
_symmetry_int_tables_number       1

loop_
  _symmetry_equiv_pos_as_xyz
  'x, y, z'

loop_
  _atom_site_label
  _atom_site_occupancy
  _atom_site_fract_x
  _atom_site_fract_y
  _atom_site_fract_z
  _atom_site_thermal_displace_type
  _atom_site_B_iso_or_equiv
  _atom_site_type_symbol
  V1       1.0000 0.16025  0.38417  0.08394  Biso   1.000  V
  V2       1.0000 0.24790  0.45352  0.28394  Biso   1.000  V
  P1       1.0000 0.21364  0.37837  0.92221  Biso   1.000  P
  P2       1.0000 0.83657  0.33134  0.83572  Biso   1.000  P
  O1       1.0000 0.21142  0.42570  0.99987  Biso   1.000  O
  O2       1.0000 0.82529  0.42700  0.89613  Biso   1.000  O
  O3       1.0000 0.20250  0.35660  0.19155  Biso   1.000  O
  O4       1.0000 0.29814  0.29920  0.92159  Biso   1.000  O
  O5       1.0000 0.20981  0.50140  0.87420  Biso   1.000  O
  O6       1.0000 0.76704  0.22190  0.83032  Biso   1.000  O
  O7       1.0000 0.82841  0.39940  0.76113  Biso   1.000  O
  C1       1.0000 0.11600  0.27900  0.88770  Biso   1.000  C
  H1       1.0000 0.11400  0.20910  0.92420  Biso   1.000  H
  H2       1.0000 0.12240  0.23630  0.84140  Biso   1.000  H
  C2       1.0000 0.94680  0.25890  0.85990  Biso   1.000  C
  H3       1.0000 0.95240  0.19720  0.82010  Biso   1.000  H
  H4       1.0000 0.95170  0.20710  0.90560  Biso   1.000  H
  C3       1.0000 0.02630  0.35350  0.87220  Biso   1.000  C
  H5       1.0000 0.02130  0.40890  0.82770  Biso   1.000  H
  H6       1.0000 0.02480  0.41150  0.91450  Biso   1.000  H
  H7       1.0000 0.21400  0.29400  0.19600  Biso   1.000  H
  V3       1.0000 0.66025  0.88417  0.08394  Biso   1.000  V
  V4       1.0000 0.74790  0.95352  0.28394  Biso   1.000  V
  P3       1.0000 0.71364  0.87837  0.92221  Biso   1.000  P
  P4       1.0000 0.33657  0.83134  0.83572  Biso   1.000  P
  O8       1.0000 0.71142  0.92570  0.99987  Biso   1.000  O
  O9       1.0000 0.32529  0.92700  0.89613  Biso   1.000  O
  O10      1.0000 0.70250  0.85660  0.19155  Biso   1.000  O
  O11      1.0000 0.79814  0.79920  0.92159  Biso   1.000  O
  O12      1.0000 0.70981  0.00140  0.87420  Biso   1.000  O
  O13      1.0000 0.26704  0.72190  0.83032  Biso   1.000  O
  O14      1.0000 0.32841  0.89940  0.76113  Biso   1.000  O
  C4       1.0000 0.61600  0.77900  0.88770  Biso   1.000  C
  H8       1.0000 0.61400  0.70910  0.92420  Biso   1.000  H
  H9       1.0000 0.62240  0.73630  0.84140  Biso   1.000  H
  C5       1.0000 0.44680  0.75890  0.85990  Biso   1.000  C
  H10      1.0000 0.45240  0.69720  0.82010  Biso   1.000  H
  H11      1.0000 0.45170  0.70710  0.90560  Biso   1.000  H
  C6       1.0000 0.52630  0.85350  0.87220  Biso   1.000  C
  H12      1.0000 0.52130  0.90890  0.82770  Biso   1.000  H
  H13      1.0000 0.52480  0.91150  0.91450  Biso   1.000  H
  H14      1.0000 0.71400  0.79400  0.19600  Biso   1.000  H
  V5       1.0000 0.83975  0.38417  0.41606  Biso   1.000  V
  V6       1.0000 0.75210  0.45352  0.21606  Biso   1.000  V
  P5       1.0000 0.78636  0.37837  0.57779  Biso   1.000  P
  P6       1.0000 0.16343  0.33134  0.66428  Biso   1.000  P
  O15      1.0000 0.78858  0.42570  0.50013  Biso   1.000  O
  O16      1.0000 0.17471  0.42700  0.60387  Biso   1.000  O
  O17      1.0000 0.79750  0.35660  0.30845  Biso   1.000  O
  O18      1.0000 0.70186  0.29920  0.57841  Biso   1.000  O
  O19      1.0000 0.79019  0.50140  0.62580  Biso   1.000  O
  O20      1.0000 0.23296  0.22190  0.66968  Biso   1.000  O
  O21      1.0000 0.17159  0.39940  0.73887  Biso   1.000  O
  C7       1.0000 0.88400  0.27900  0.61230  Biso   1.000  C
  H15      1.0000 0.88600  0.20910  0.57580  Biso   1.000  H
  H16      1.0000 0.87760  0.23630  0.65860  Biso   1.000  H
  C8       1.0000 0.05320  0.25890  0.64010  Biso   1.000  C
  H17      1.0000 0.04760  0.19720  0.67990  Biso   1.000  H
  H18      1.0000 0.04830  0.20710  0.59440  Biso   1.000  H
  C9       1.0000 0.97370  0.35350  0.62780  Biso   1.000  C
  H19      1.0000 0.97870  0.40890  0.67230  Biso   1.000  H
  H20      1.0000 0.97520  0.41150  0.58550  Biso   1.000  H
  H21      1.0000 0.78600  0.29400  0.30400  Biso   1.000  H
  V7       1.0000 0.33975  0.88417  0.41606  Biso   1.000  V
  V8       1.0000 0.25210  0.95352  0.21606  Biso   1.000  V
  P7       1.0000 0.28636  0.87837  0.57779  Biso   1.000  P
  P8       1.0000 0.66343  0.83134  0.66428  Biso   1.000  P
  O22      1.0000 0.28858  0.92570  0.50013  Biso   1.000  O
  O23      1.0000 0.67471  0.92700  0.60387  Biso   1.000  O
  O24      1.0000 0.29750  0.85660  0.30845  Biso   1.000  O
  O25      1.0000 0.20186  0.79920  0.57841  Biso   1.000  O
  O26      1.0000 0.29019  0.00140  0.62580  Biso   1.000  O
  O27      1.0000 0.73296  0.72190  0.66968  Biso   1.000  O
  O28      1.0000 0.67159  0.89940  0.73887  Biso   1.000  O
  C10      1.0000 0.38400  0.77900  0.61230  Biso   1.000  C
  H22      1.0000 0.38600  0.70910  0.57580  Biso   1.000  H
  H23      1.0000 0.37760  0.73630  0.65860  Biso   1.000  H
  C11      1.0000 0.55320  0.75890  0.64010  Biso   1.000  C
  H24      1.0000 0.54760  0.69720  0.67990  Biso   1.000  H
  H25      1.0000 0.54830  0.70710  0.59440  Biso   1.000  H
  C12      1.0000 0.47370  0.85350  0.62780  Biso   1.000  C
  H26      1.0000 0.47870  0.90890  0.67230  Biso   1.000  H
  H27      1.0000 0.47520  0.91150  0.58550  Biso   1.000  H
  H28      1.0000 0.28600  0.79400  0.30400  Biso   1.000  H
  V9       1.0000 0.83975  0.61583  0.91606  Biso   1.000  V
  V10      1.0000 0.75210  0.54648  0.71606  Biso   1.000  V
  P9       1.0000 0.78636  0.62163  0.07779  Biso   1.000  P
  P10      1.0000 0.16343  0.66866  0.16428  Biso   1.000  P
  O29      1.0000 0.78858  0.57430  0.00013  Biso   1.000  O
  O30      1.0000 0.17471  0.57300  0.10387  Biso   1.000  O
  O31      1.0000 0.79750  0.64340  0.80845  Biso   1.000  O
  O32      1.0000 0.70186  0.70080  0.07841  Biso   1.000  O
  O33      1.0000 0.79019  0.49860  0.12580  Biso   1.000  O
  O34      1.0000 0.23296  0.77810  0.16968  Biso   1.000  O
  O35      1.0000 0.17159  0.60060  0.23887  Biso   1.000  O
  C13      1.0000 0.88400  0.72100  0.11230  Biso   1.000  C
  H29      1.0000 0.88600  0.79090  0.07580  Biso   1.000  H
  H30      1.0000 0.87760  0.76370  0.15860  Biso   1.000  H
  C14      1.0000 0.05320  0.74110  0.14010  Biso   1.000  C
  H31      1.0000 0.04760  0.80280  0.17990  Biso   1.000  H
  H32      1.0000 0.04830  0.79290  0.09440  Biso   1.000  H
  C15      1.0000 0.97370  0.64650  0.12780  Biso   1.000  C
  H33      1.0000 0.97870  0.59110  0.17230  Biso   1.000  H
  H34      1.0000 0.97520  0.58850  0.08550  Biso   1.000  H
  H35      1.0000 0.78600  0.70600  0.80400  Biso   1.000  H
  V11      1.0000 0.33975  0.11583  0.91606  Biso   1.000  V
  V12      1.0000 0.25210  0.04648  0.71606  Biso   1.000  V
  P11      1.0000 0.28636  0.12163  0.07779  Biso   1.000  P
  P12      1.0000 0.66343  0.16866  0.16428  Biso   1.000  P
  O36      1.0000 0.28858  0.07430  0.00013  Biso   1.000  O
  O37      1.0000 0.67471  0.07300  0.10387  Biso   1.000  O
  O38      1.0000 0.29750  0.14340  0.80845  Biso   1.000  O
  O39      1.0000 0.20186  0.20080  0.07841  Biso   1.000  O
  O40      1.0000 0.29019  0.99860  0.12580  Biso   1.000  O
  O41      1.0000 0.73296  0.27810  0.16968  Biso   1.000  O
  O42      1.0000 0.67159  0.10060  0.23887  Biso   1.000  O
  C16      1.0000 0.38400  0.22100  0.11230  Biso   1.000  C
  H36      1.0000 0.38600  0.29090  0.07580  Biso   1.000  H
  H37      1.0000 0.37760  0.26370  0.15860  Biso   1.000  H
  C17      1.0000 0.55320  0.24110  0.14010  Biso   1.000  C
  H38      1.0000 0.54760  0.30280  0.17990  Biso   1.000  H
  H39      1.0000 0.54830  0.29290  0.09440  Biso   1.000  H
  C18      1.0000 0.47370  0.14650  0.12780  Biso   1.000  C
  H40      1.0000 0.47870  0.09110  0.17230  Biso   1.000  H
  H41      1.0000 0.47520  0.08850  0.08550  Biso   1.000  H
  H42      1.0000 0.28600  0.20600  0.80400  Biso   1.000  H
  V13      1.0000 0.16025  0.61583  0.58394  Biso   1.000  V
  V14      1.0000 0.24790  0.54648  0.78394  Biso   1.000  V
  P13      1.0000 0.21364  0.62163  0.42221  Biso   1.000  P
  P14      1.0000 0.83657  0.66866  0.33572  Biso   1.000  P
  O43      1.0000 0.21142  0.57430  0.49987  Biso   1.000  O
  O44      1.0000 0.82529  0.57300  0.39613  Biso   1.000  O
  O45      1.0000 0.20250  0.64340  0.69155  Biso   1.000  O
  O46      1.0000 0.29814  0.70080  0.42159  Biso   1.000  O
  O47      1.0000 0.20981  0.49860  0.37420  Biso   1.000  O
  O48      1.0000 0.76704  0.77810  0.33032  Biso   1.000  O
  O49      1.0000 0.82841  0.60060  0.26113  Biso   1.000  O
  C19      1.0000 0.11600  0.72100  0.38770  Biso   1.000  C
  H43      1.0000 0.11400  0.79090  0.42420  Biso   1.000  H
  H44      1.0000 0.12240  0.76370  0.34140  Biso   1.000  H
  C20      1.0000 0.94680  0.74110  0.35990  Biso   1.000  C
  H45      1.0000 0.95240  0.80280  0.32010  Biso   1.000  H
  H46      1.0000 0.95170  0.79290  0.40560  Biso   1.000  H
  C21      1.0000 0.02630  0.64650  0.37220  Biso   1.000  C
  H47      1.0000 0.02130  0.59110  0.32770  Biso   1.000  H
  H48      1.0000 0.02480  0.58850  0.41450  Biso   1.000  H
  H49      1.0000 0.21400  0.70600  0.69600  Biso   1.000  H
  V15      1.0000 0.66025  0.11583  0.58394  Biso   1.000  V
  V16      1.0000 0.74790  0.04648  0.78394  Biso   1.000  V
  P15      1.0000 0.71364  0.12163  0.42221  Biso   1.000  P
  P16      1.0000 0.33657  0.16866  0.33572  Biso   1.000  P
  O50      1.0000 0.71142  0.07430  0.49987  Biso   1.000  O
  O51      1.0000 0.32529  0.07300  0.39613  Biso   1.000  O
  O52      1.0000 0.70250  0.14340  0.69155  Biso   1.000  O
  O53      1.0000 0.79814  0.20080  0.42159  Biso   1.000  O
  O54      1.0000 0.70981  0.99860  0.37420  Biso   1.000  O
  O55      1.0000 0.26704  0.27810  0.33032  Biso   1.000  O
  O56      1.0000 0.32841  0.10060  0.26113  Biso   1.000  O
  C22      1.0000 0.61600  0.22100  0.38770  Biso   1.000  C
  H50      1.0000 0.61400  0.29090  0.42420  Biso   1.000  H
  H51      1.0000 0.62240  0.26370  0.34140  Biso   1.000  H
  C23      1.0000 0.44680  0.24110  0.35990  Biso   1.000  C
  H52      1.0000 0.45240  0.30280  0.32010  Biso   1.000  H
  H53      1.0000 0.45170  0.29290  0.40560  Biso   1.000  H
  C24      1.0000 0.52630  0.14650  0.37220  Biso   1.000  C
  H54      1.0000 0.52130  0.09110  0.32770  Biso   1.000  H
  H55      1.0000 0.52480  0.08850  0.41450  Biso   1.000  H
  H56      1.0000 0.71400  0.20600  0.69600  Biso   1.000  H
