data_image0
_cell_length_a       15.6403
_cell_length_b       10.2112
_cell_length_c       18.6795
_cell_angle_alpha    90
_cell_angle_beta     105.484
_cell_angle_gamma    90

_symmetry_space_group_name_H-M    "P 1"
_symmetry_int_tables_number       1

loop_
  _symmetry_equiv_pos_as_xyz
  'x, y, z'

loop_
  _atom_site_label
  _atom_site_occupancy
  _atom_site_fract_x
  _atom_site_fract_y
  _atom_site_fract_z
  _atom_site_thermal_displace_type
  _atom_site_B_iso_or_equiv
  _atom_site_type_symbol
  V1       1.0000 0.16504  0.38063  0.08450  Biso   1.000  V
  V2       1.0000 0.24827  0.45311  0.28748  Biso   1.000  V
  P1       1.0000 0.20739  0.37992  0.92125  Biso   1.000  P
  P2       1.0000 0.83587  0.33230  0.83719  Biso   1.000  P
  O1       1.0000 0.20740  0.42730  0.99893  Biso   1.000  O
  O2       1.0000 0.28866  0.29860  0.92129  Biso   1.000  O
  O3       1.0000 0.82840  0.42880  0.89797  Biso   1.000  O
  O4       1.0000 0.21170  0.35710  0.19244  Biso   1.000  O
  O5       1.0000 0.82420  0.39850  0.76186  Biso   1.000  O
  O6       1.0000 0.76885  0.22230  0.83434  Biso   1.000  O
  O7       1.0000 0.20363  0.50340  0.87359  Biso   1.000  O
  C1       1.0000 0.11000  0.28240  0.88530  Biso   1.000  C
  H1       1.0000 0.11360  0.24270  0.83780  Biso   1.000  H
  H2       1.0000 0.10990  0.21010  0.92050  Biso   1.000  H
  C2       1.0000 0.94470  0.26120  0.86150  Biso   1.000  C
  H3       1.0000 0.94820  0.19770  0.82240  Biso   1.000  H
  H4       1.0000 0.95240  0.21150  0.90830  Biso   1.000  H
  C3       1.0000 0.02180  0.35690  0.87160  Biso   1.000  C
  H5       1.0000 0.01310  0.41200  0.82670  Biso   1.000  H
  H6       1.0000 0.02340  0.41510  0.91440  Biso   1.000  H
  H7       1.0000 0.21700  0.29000  0.19600  Biso   1.000  H
  V3       1.0000 0.66504  0.88063  0.08450  Biso   1.000  V
  V4       1.0000 0.74827  0.95311  0.28748  Biso   1.000  V
  P3       1.0000 0.70739  0.87992  0.92125  Biso   1.000  P
  P4       1.0000 0.33587  0.83230  0.83719  Biso   1.000  P
  O8       1.0000 0.70740  0.92730  0.99893  Biso   1.000  O
  O9       1.0000 0.78866  0.79860  0.92129  Biso   1.000  O
  O10      1.0000 0.32840  0.92880  0.89797  Biso   1.000  O
  O11      1.0000 0.71170  0.85710  0.19244  Biso   1.000  O
  O12      1.0000 0.32420  0.89850  0.76186  Biso   1.000  O
  O13      1.0000 0.26885  0.72230  0.83434  Biso   1.000  O
  O14      1.0000 0.70363  0.00340  0.87359  Biso   1.000  O
  C4       1.0000 0.61000  0.78240  0.88530  Biso   1.000  C
  H8       1.0000 0.61360  0.74270  0.83780  Biso   1.000  H
  H9       1.0000 0.60990  0.71010  0.92050  Biso   1.000  H
  C5       1.0000 0.44470  0.76120  0.86150  Biso   1.000  C
  H10      1.0000 0.44820  0.69770  0.82240  Biso   1.000  H
  H11      1.0000 0.45240  0.71150  0.90830  Biso   1.000  H
  C6       1.0000 0.52180  0.85690  0.87160  Biso   1.000  C
  H12      1.0000 0.51310  0.91200  0.82670  Biso   1.000  H
  H13      1.0000 0.52340  0.91510  0.91440  Biso   1.000  H
  H14      1.0000 0.71700  0.79000  0.19600  Biso   1.000  H
  V5       1.0000 0.83496  0.38063  0.41550  Biso   1.000  V
  V6       1.0000 0.75173  0.45311  0.21252  Biso   1.000  V
  P5       1.0000 0.79261  0.37992  0.57875  Biso   1.000  P
  P6       1.0000 0.16413  0.33230  0.66281  Biso   1.000  P
  O15      1.0000 0.79260  0.42730  0.50107  Biso   1.000  O
  O16      1.0000 0.71134  0.29860  0.57871  Biso   1.000  O
  O17      1.0000 0.17160  0.42880  0.60203  Biso   1.000  O
  O18      1.0000 0.78830  0.35710  0.30756  Biso   1.000  O
  O19      1.0000 0.17580  0.39850  0.73814  Biso   1.000  O
  O20      1.0000 0.23115  0.22230  0.66566  Biso   1.000  O
  O21      1.0000 0.79637  0.50340  0.62641  Biso   1.000  O
  C7       1.0000 0.89000  0.28240  0.61470  Biso   1.000  C
  H15      1.0000 0.88640  0.24270  0.66220  Biso   1.000  H
  H16      1.0000 0.89010  0.21010  0.57950  Biso   1.000  H
  C8       1.0000 0.05530  0.26120  0.63850  Biso   1.000  C
  H17      1.0000 0.05180  0.19770  0.67760  Biso   1.000  H
  H18      1.0000 0.04760  0.21150  0.59170  Biso   1.000  H
  C9       1.0000 0.97820  0.35690  0.62840  Biso   1.000  C
  H19      1.0000 0.98690  0.41200  0.67330  Biso   1.000  H
  H20      1.0000 0.97660  0.41510  0.58560  Biso   1.000  H
  H21      1.0000 0.78300  0.29000  0.30400  Biso   1.000  H
  V7       1.0000 0.33496  0.88063  0.41550  Biso   1.000  V
  V8       1.0000 0.25173  0.95311  0.21252  Biso   1.000  V
  P7       1.0000 0.29261  0.87992  0.57875  Biso   1.000  P
  P8       1.0000 0.66413  0.83230  0.66281  Biso   1.000  P
  O22      1.0000 0.29260  0.92730  0.50107  Biso   1.000  O
  O23      1.0000 0.21134  0.79860  0.57871  Biso   1.000  O
  O24      1.0000 0.67160  0.92880  0.60203  Biso   1.000  O
  O25      1.0000 0.28830  0.85710  0.30756  Biso   1.000  O
  O26      1.0000 0.67580  0.89850  0.73814  Biso   1.000  O
  O27      1.0000 0.73115  0.72230  0.66566  Biso   1.000  O
  O28      1.0000 0.29637  0.00340  0.62641  Biso   1.000  O
  C10      1.0000 0.39000  0.78240  0.61470  Biso   1.000  C
  H22      1.0000 0.38640  0.74270  0.66220  Biso   1.000  H
  H23      1.0000 0.39010  0.71010  0.57950  Biso   1.000  H
  C11      1.0000 0.55530  0.76120  0.63850  Biso   1.000  C
  H24      1.0000 0.55180  0.69770  0.67760  Biso   1.000  H
  H25      1.0000 0.54760  0.71150  0.59170  Biso   1.000  H
  C12      1.0000 0.47820  0.85690  0.62840  Biso   1.000  C
  H26      1.0000 0.48690  0.91200  0.67330  Biso   1.000  H
  H27      1.0000 0.47660  0.91510  0.58560  Biso   1.000  H
  H28      1.0000 0.28300  0.79000  0.30400  Biso   1.000  H
  V9       1.0000 0.83496  0.61937  0.91550  Biso   1.000  V
  V10      1.0000 0.75173  0.54689  0.71252  Biso   1.000  V
  P9       1.0000 0.79261  0.62008  0.07875  Biso   1.000  P
  P10      1.0000 0.16413  0.66770  0.16281  Biso   1.000  P
  O29      1.0000 0.79260  0.57270  0.00107  Biso   1.000  O
  O30      1.0000 0.71134  0.70140  0.07871  Biso   1.000  O
  O31      1.0000 0.17160  0.57120  0.10203  Biso   1.000  O
  O32      1.0000 0.78830  0.64290  0.80756  Biso   1.000  O
  O33      1.0000 0.17580  0.60150  0.23814  Biso   1.000  O
  O34      1.0000 0.23115  0.77770  0.16566  Biso   1.000  O
  O35      1.0000 0.79637  0.49660  0.12641  Biso   1.000  O
  C13      1.0000 0.89000  0.71760  0.11470  Biso   1.000  C
  H29      1.0000 0.88640  0.75730  0.16220  Biso   1.000  H
  H30      1.0000 0.89010  0.78990  0.07950  Biso   1.000  H
  C14      1.0000 0.05530  0.73880  0.13850  Biso   1.000  C
  H31      1.0000 0.05180  0.80230  0.17760  Biso   1.000  H
  H32      1.0000 0.04760  0.78850  0.09170  Biso   1.000  H
  C15      1.0000 0.97820  0.64310  0.12840  Biso   1.000  C
  H33      1.0000 0.98690  0.58800  0.17330  Biso   1.000  H
  H34      1.0000 0.97660  0.58490  0.08560  Biso   1.000  H
  H35      1.0000 0.78300  0.71000  0.80400  Biso   1.000  H
  V11      1.0000 0.33496  0.11937  0.91550  Biso   1.000  V
  V12      1.0000 0.25173  0.04689  0.71252  Biso   1.000  V
  P11      1.0000 0.29261  0.12008  0.07875  Biso   1.000  P
  P12      1.0000 0.66413  0.16770  0.16281  Biso   1.000  P
  O36      1.0000 0.29260  0.07270  0.00107  Biso   1.000  O
  O37      1.0000 0.21134  0.20140  0.07871  Biso   1.000  O
  O38      1.0000 0.67160  0.07120  0.10203  Biso   1.000  O
  O39      1.0000 0.28830  0.14290  0.80756  Biso   1.000  O
  O40      1.0000 0.67580  0.10150  0.23814  Biso   1.000  O
  O41      1.0000 0.73115  0.27770  0.16566  Biso   1.000  O
  O42      1.0000 0.29637  0.99660  0.12641  Biso   1.000  O
  C16      1.0000 0.39000  0.21760  0.11470  Biso   1.000  C
  H36      1.0000 0.38640  0.25730  0.16220  Biso   1.000  H
  H37      1.0000 0.39010  0.28990  0.07950  Biso   1.000  H
  C17      1.0000 0.55530  0.23880  0.13850  Biso   1.000  C
  H38      1.0000 0.55180  0.30230  0.17760  Biso   1.000  H
  H39      1.0000 0.54760  0.28850  0.09170  Biso   1.000  H
  C18      1.0000 0.47820  0.14310  0.12840  Biso   1.000  C
  H40      1.0000 0.48690  0.08800  0.17330  Biso   1.000  H
  H41      1.0000 0.47660  0.08490  0.08560  Biso   1.000  H
  H42      1.0000 0.28300  0.21000  0.80400  Biso   1.000  H
  V13      1.0000 0.16504  0.61937  0.58450  Biso   1.000  V
  V14      1.0000 0.24827  0.54689  0.78748  Biso   1.000  V
  P13      1.0000 0.20739  0.62008  0.42125  Biso   1.000  P
  P14      1.0000 0.83587  0.66770  0.33719  Biso   1.000  P
  O43      1.0000 0.20740  0.57270  0.49893  Biso   1.000  O
  O44      1.0000 0.28866  0.70140  0.42129  Biso   1.000  O
  O45      1.0000 0.82840  0.57120  0.39797  Biso   1.000  O
  O46      1.0000 0.21170  0.64290  0.69244  Biso   1.000  O
  O47      1.0000 0.82420  0.60150  0.26186  Biso   1.000  O
  O48      1.0000 0.76885  0.77770  0.33434  Biso   1.000  O
  O49      1.0000 0.20363  0.49660  0.37359  Biso   1.000  O
  C19      1.0000 0.11000  0.71760  0.38530  Biso   1.000  C
  H43      1.0000 0.11360  0.75730  0.33780  Biso   1.000  H
  H44      1.0000 0.10990  0.78990  0.42050  Biso   1.000  H
  C20      1.0000 0.94470  0.73880  0.36150  Biso   1.000  C
  H45      1.0000 0.94820  0.80230  0.32240  Biso   1.000  H
  H46      1.0000 0.95240  0.78850  0.40830  Biso   1.000  H
  C21      1.0000 0.02180  0.64310  0.37160  Biso   1.000  C
  H47      1.0000 0.01310  0.58800  0.32670  Biso   1.000  H
  H48      1.0000 0.02340  0.58490  0.41440  Biso   1.000  H
  H49      1.0000 0.21700  0.71000  0.69600  Biso   1.000  H
  V15      1.0000 0.66504  0.11937  0.58450  Biso   1.000  V
  V16      1.0000 0.74827  0.04689  0.78748  Biso   1.000  V
  P15      1.0000 0.70739  0.12008  0.42125  Biso   1.000  P
  P16      1.0000 0.33587  0.16770  0.33719  Biso   1.000  P
  O50      1.0000 0.70740  0.07270  0.49893  Biso   1.000  O
  O51      1.0000 0.78866  0.20140  0.42129  Biso   1.000  O
  O52      1.0000 0.32840  0.07120  0.39797  Biso   1.000  O
  O53      1.0000 0.71170  0.14290  0.69244  Biso   1.000  O
  O54      1.0000 0.32420  0.10150  0.26186  Biso   1.000  O
  O55      1.0000 0.26885  0.27770  0.33434  Biso   1.000  O
  O56      1.0000 0.70363  0.99660  0.37359  Biso   1.000  O
  C22      1.0000 0.61000  0.21760  0.38530  Biso   1.000  C
  H50      1.0000 0.61360  0.25730  0.33780  Biso   1.000  H
  H51      1.0000 0.60990  0.28990  0.42050  Biso   1.000  H
  C23      1.0000 0.44470  0.23880  0.36150  Biso   1.000  C
  H52      1.0000 0.44820  0.30230  0.32240  Biso   1.000  H
  H53      1.0000 0.45240  0.28850  0.40830  Biso   1.000  H
  C24      1.0000 0.52180  0.14310  0.37160  Biso   1.000  C
  H54      1.0000 0.51310  0.08800  0.32670  Biso   1.000  H
  H55      1.0000 0.52340  0.08490  0.41440  Biso   1.000  H
  H56      1.0000 0.71700  0.21000  0.69600  Biso   1.000  H
