data_image0
_cell_length_a       15.0877
_cell_length_b       10.2027
_cell_length_c       18.6376
_cell_angle_alpha    90
_cell_angle_beta     102.521
_cell_angle_gamma    90

_symmetry_space_group_name_H-M    "P 1"
_symmetry_int_tables_number       1

loop_
  _symmetry_equiv_pos_as_xyz
  'x, y, z'

loop_
  _atom_site_label
  _atom_site_occupancy
  _atom_site_fract_x
  _atom_site_fract_y
  _atom_site_fract_z
  _atom_site_thermal_displace_type
  _atom_site_B_iso_or_equiv
  _atom_site_type_symbol
  V1       1.0000 0.16060  0.61538  0.08485  Biso   1.000  V
  V2       1.0000 0.24829  0.54620  0.28319  Biso   1.000  V
  P1       1.0000 0.28632  0.87848  0.07721  Biso   1.000  P
  P2       1.0000 0.66411  0.83098  0.16562  Biso   1.000  P
  O1       1.0000 0.20149  0.79780  0.07685  Biso   1.000  O
  O2       1.0000 0.29072  0.92820  0.00058  Biso   1.000  O
  O3       1.0000 0.67506  0.92570  0.10450  Biso   1.000  O
  O4       1.0000 0.20282  0.64420  0.19135  Biso   1.000  O
  O5       1.0000 0.73425  0.72180  0.17027  Biso   1.000  O
  O6       1.0000 0.28878  0.00060  0.12552  Biso   1.000  O
  O7       1.0000 0.67100  0.90010  0.23946  Biso   1.000  O
  C1       1.0000 0.38400  0.77830  0.11120  Biso   1.000  C
  H1       1.0000 0.37620  0.73440  0.15680  Biso   1.000  H
  H2       1.0000 0.38710  0.70920  0.07450  Biso   1.000  H
  C2       1.0000 0.55390  0.75720  0.14274  Biso   1.000  C
  H3       1.0000 0.55050  0.70160  0.09870  Biso   1.000  H
  H4       1.0000 0.54700  0.69900  0.18370  Biso   1.000  H
  C3       1.0000 0.47390  0.85330  0.12749  Biso   1.000  C
  H5       1.0000 0.47660  0.91070  0.17070  Biso   1.000  H
  H6       1.0000 0.47790  0.90940  0.08500  Biso   1.000  H
  V3       1.0000 0.66060  0.11538  0.08485  Biso   1.000  V
  V4       1.0000 0.74829  0.04620  0.28319  Biso   1.000  V
  P3       1.0000 0.78632  0.37848  0.07721  Biso   1.000  P
  P4       1.0000 0.16411  0.33098  0.16562  Biso   1.000  P
  O8       1.0000 0.70149  0.29780  0.07685  Biso   1.000  O
  O9       1.0000 0.79072  0.42820  0.00058  Biso   1.000  O
  O10      1.0000 0.17506  0.42570  0.10450  Biso   1.000  O
  O11      1.0000 0.70282  0.14420  0.19135  Biso   1.000  O
  O12      1.0000 0.23425  0.22180  0.17027  Biso   1.000  O
  O13      1.0000 0.78878  0.50060  0.12552  Biso   1.000  O
  O14      1.0000 0.17100  0.40010  0.23946  Biso   1.000  O
  C4       1.0000 0.88400  0.27830  0.11120  Biso   1.000  C
  H7       1.0000 0.87620  0.23440  0.15680  Biso   1.000  H
  H8       1.0000 0.88710  0.20920  0.07450  Biso   1.000  H
  C5       1.0000 0.05390  0.25720  0.14274  Biso   1.000  C
  H9       1.0000 0.05050  0.20160  0.09870  Biso   1.000  H
  H10      1.0000 0.04700  0.19900  0.18370  Biso   1.000  H
  C6       1.0000 0.97390  0.35330  0.12749  Biso   1.000  C
  H11      1.0000 0.97660  0.41070  0.17070  Biso   1.000  H
  H12      1.0000 0.97790  0.40940  0.08500  Biso   1.000  H
  V5       1.0000 0.83940  0.61538  0.41515  Biso   1.000  V
  V6       1.0000 0.75171  0.54620  0.21681  Biso   1.000  V
  P5       1.0000 0.71368  0.87848  0.42279  Biso   1.000  P
  P6       1.0000 0.33589  0.83098  0.33438  Biso   1.000  P
  O15      1.0000 0.79851  0.79780  0.42315  Biso   1.000  O
  O16      1.0000 0.70928  0.92820  0.49942  Biso   1.000  O
  O17      1.0000 0.32494  0.92570  0.39550  Biso   1.000  O
  O18      1.0000 0.79718  0.64420  0.30865  Biso   1.000  O
  O19      1.0000 0.26575  0.72180  0.32973  Biso   1.000  O
  O20      1.0000 0.71122  0.00060  0.37448  Biso   1.000  O
  O21      1.0000 0.32900  0.90010  0.26054  Biso   1.000  O
  C7       1.0000 0.61600  0.77830  0.38880  Biso   1.000  C
  H13      1.0000 0.62380  0.73440  0.34320  Biso   1.000  H
  H14      1.0000 0.61290  0.70920  0.42550  Biso   1.000  H
  C8       1.0000 0.44610  0.75720  0.35726  Biso   1.000  C
  H15      1.0000 0.44950  0.70160  0.40130  Biso   1.000  H
  H16      1.0000 0.45300  0.69900  0.31630  Biso   1.000  H
  C9       1.0000 0.52610  0.85330  0.37251  Biso   1.000  C
  H17      1.0000 0.52340  0.91070  0.32930  Biso   1.000  H
  H18      1.0000 0.52210  0.90940  0.41500  Biso   1.000  H
  V7       1.0000 0.33940  0.11538  0.41515  Biso   1.000  V
  V8       1.0000 0.25171  0.04620  0.21681  Biso   1.000  V
  P7       1.0000 0.21368  0.37848  0.42279  Biso   1.000  P
  P8       1.0000 0.83589  0.33098  0.33438  Biso   1.000  P
  O22      1.0000 0.29851  0.29780  0.42315  Biso   1.000  O
  O23      1.0000 0.20928  0.42820  0.49942  Biso   1.000  O
  O24      1.0000 0.82494  0.42570  0.39550  Biso   1.000  O
  O25      1.0000 0.29718  0.14420  0.30865  Biso   1.000  O
  O26      1.0000 0.76575  0.22180  0.32973  Biso   1.000  O
  O27      1.0000 0.21122  0.50060  0.37448  Biso   1.000  O
  O28      1.0000 0.82900  0.40010  0.26054  Biso   1.000  O
  C10      1.0000 0.11600  0.27830  0.38880  Biso   1.000  C
  H19      1.0000 0.12380  0.23440  0.34320  Biso   1.000  H
  H20      1.0000 0.11290  0.20920  0.42550  Biso   1.000  H
  C11      1.0000 0.94610  0.25720  0.35726  Biso   1.000  C
  H21      1.0000 0.94950  0.20160  0.40130  Biso   1.000  H
  H22      1.0000 0.95300  0.19900  0.31630  Biso   1.000  H
  C12      1.0000 0.02610  0.35330  0.37251  Biso   1.000  C
  H23      1.0000 0.02340  0.41070  0.32930  Biso   1.000  H
  H24      1.0000 0.02210  0.40940  0.41500  Biso   1.000  H
  V9       1.0000 0.83940  0.38462  0.91515  Biso   1.000  V
  V10      1.0000 0.75171  0.45380  0.71681  Biso   1.000  V
  P9       1.0000 0.71368  0.12152  0.92279  Biso   1.000  P
  P10      1.0000 0.33589  0.16902  0.83438  Biso   1.000  P
  O29      1.0000 0.79851  0.20220  0.92315  Biso   1.000  O
  O30      1.0000 0.70928  0.07180  0.99942  Biso   1.000  O
  O31      1.0000 0.32494  0.07430  0.89550  Biso   1.000  O
  O32      1.0000 0.79718  0.35580  0.80865  Biso   1.000  O
  O33      1.0000 0.26575  0.27820  0.82973  Biso   1.000  O
  O34      1.0000 0.71122  0.99940  0.87448  Biso   1.000  O
  O35      1.0000 0.32900  0.09990  0.76054  Biso   1.000  O
  C13      1.0000 0.61600  0.22170  0.88880  Biso   1.000  C
  H25      1.0000 0.62380  0.26560  0.84320  Biso   1.000  H
  H26      1.0000 0.61290  0.29080  0.92550  Biso   1.000  H
  C14      1.0000 0.44610  0.24280  0.85726  Biso   1.000  C
  H27      1.0000 0.44950  0.29840  0.90130  Biso   1.000  H
  H28      1.0000 0.45300  0.30100  0.81630  Biso   1.000  H
  C15      1.0000 0.52610  0.14670  0.87251  Biso   1.000  C
  H29      1.0000 0.52340  0.08930  0.82930  Biso   1.000  H
  H30      1.0000 0.52210  0.09060  0.91500  Biso   1.000  H
  V11      1.0000 0.33940  0.88462  0.91515  Biso   1.000  V
  V12      1.0000 0.25171  0.95380  0.71681  Biso   1.000  V
  P11      1.0000 0.21368  0.62152  0.92279  Biso   1.000  P
  P12      1.0000 0.83589  0.66902  0.83438  Biso   1.000  P
  O36      1.0000 0.29851  0.70220  0.92315  Biso   1.000  O
  O37      1.0000 0.20928  0.57180  0.99942  Biso   1.000  O
  O38      1.0000 0.82494  0.57430  0.89550  Biso   1.000  O
  O39      1.0000 0.29718  0.85580  0.80865  Biso   1.000  O
  O40      1.0000 0.76575  0.77820  0.82973  Biso   1.000  O
  O41      1.0000 0.21122  0.49940  0.87448  Biso   1.000  O
  O42      1.0000 0.82900  0.59990  0.76054  Biso   1.000  O
  C16      1.0000 0.11600  0.72170  0.88880  Biso   1.000  C
  H31      1.0000 0.12380  0.76560  0.84320  Biso   1.000  H
  H32      1.0000 0.11290  0.79080  0.92550  Biso   1.000  H
  C17      1.0000 0.94610  0.74280  0.85726  Biso   1.000  C
  H33      1.0000 0.94950  0.79840  0.90130  Biso   1.000  H
  H34      1.0000 0.95300  0.80100  0.81630  Biso   1.000  H
  C18      1.0000 0.02610  0.64670  0.87251  Biso   1.000  C
  H35      1.0000 0.02340  0.58930  0.82930  Biso   1.000  H
  H36      1.0000 0.02210  0.59060  0.91500  Biso   1.000  H
  V13      1.0000 0.16060  0.38462  0.58485  Biso   1.000  V
  V14      1.0000 0.24829  0.45380  0.78319  Biso   1.000  V
  P13      1.0000 0.28632  0.12152  0.57721  Biso   1.000  P
  P14      1.0000 0.66411  0.16902  0.66562  Biso   1.000  P
  O43      1.0000 0.20149  0.20220  0.57685  Biso   1.000  O
  O44      1.0000 0.29072  0.07180  0.50058  Biso   1.000  O
  O45      1.0000 0.67506  0.07430  0.60450  Biso   1.000  O
  O46      1.0000 0.20282  0.35580  0.69135  Biso   1.000  O
  O47      1.0000 0.73425  0.27820  0.67027  Biso   1.000  O
  O48      1.0000 0.28878  0.99940  0.62552  Biso   1.000  O
  O49      1.0000 0.67100  0.09990  0.73946  Biso   1.000  O
  C19      1.0000 0.38400  0.22170  0.61120  Biso   1.000  C
  H37      1.0000 0.37620  0.26560  0.65680  Biso   1.000  H
  H38      1.0000 0.38710  0.29080  0.57450  Biso   1.000  H
  C20      1.0000 0.55390  0.24280  0.64274  Biso   1.000  C
  H39      1.0000 0.55050  0.29840  0.59870  Biso   1.000  H
  H40      1.0000 0.54700  0.30100  0.68370  Biso   1.000  H
  C21      1.0000 0.47390  0.14670  0.62749  Biso   1.000  C
  H41      1.0000 0.47660  0.08930  0.67070  Biso   1.000  H
  H42      1.0000 0.47790  0.09060  0.58500  Biso   1.000  H
  V15      1.0000 0.66060  0.88462  0.58485  Biso   1.000  V
  V16      1.0000 0.74829  0.95380  0.78319  Biso   1.000  V
  P15      1.0000 0.78632  0.62152  0.57721  Biso   1.000  P
  P16      1.0000 0.16411  0.66902  0.66562  Biso   1.000  P
  O50      1.0000 0.70149  0.70220  0.57685  Biso   1.000  O
  O51      1.0000 0.79072  0.57180  0.50058  Biso   1.000  O
  O52      1.0000 0.17506  0.57430  0.60450  Biso   1.000  O
  O53      1.0000 0.70282  0.85580  0.69135  Biso   1.000  O
  O54      1.0000 0.23425  0.77820  0.67027  Biso   1.000  O
  O55      1.0000 0.78878  0.49940  0.62552  Biso   1.000  O
  O56      1.0000 0.17100  0.59990  0.73946  Biso   1.000  O
  C22      1.0000 0.88400  0.72170  0.61120  Biso   1.000  C
  H43      1.0000 0.87620  0.76560  0.65680  Biso   1.000  H
  H44      1.0000 0.88710  0.79080  0.57450  Biso   1.000  H
  C23      1.0000 0.05390  0.74280  0.64274  Biso   1.000  C
  H45      1.0000 0.05050  0.79840  0.59870  Biso   1.000  H
  H46      1.0000 0.04700  0.80100  0.68370  Biso   1.000  H
  C24      1.0000 0.97390  0.64670  0.62749  Biso   1.000  C
  H47      1.0000 0.97660  0.58930  0.67070  Biso   1.000  H
  H48      1.0000 0.97790  0.59060  0.58500  Biso   1.000  H
