data_image0
_cell_length_a       15.003
_cell_length_b       10.126
_cell_length_c       18.604
_cell_angle_alpha    90
_cell_angle_beta     101
_cell_angle_gamma    90

_symmetry_space_group_name_H-M    "P 1"
_symmetry_int_tables_number       1

loop_
  _symmetry_equiv_pos_as_xyz
  'x, y, z'

loop_
  _atom_site_label
  _atom_site_occupancy
  _atom_site_fract_x
  _atom_site_fract_y
  _atom_site_fract_z
  _atom_site_thermal_displace_type
  _atom_site_B_iso_or_equiv
  _atom_site_type_symbol
  V1       1.0000 0.15898  0.38593  0.08585  Biso   1.000  V
  V2       1.0000 0.24682  0.45413  0.28135  Biso   1.000  V
  P1       1.0000 0.78574  0.62254  0.07702  Biso   1.000  P
  P2       1.0000 0.16260  0.66987  0.16686  Biso   1.000  P
  O1       1.0000 0.17600  0.57590  0.10549  Biso   1.000  O
  O2       1.0000 0.79210  0.57180  0.00090  Biso   1.000  O
  O3       1.0000 0.19920  0.35770  0.19110  Biso   1.000  O
  O4       1.0000 0.70000  0.70180  0.07700  Biso   1.000  O
  O5       1.0000 0.78730  0.50050  0.12562  Biso   1.000  O
  O6       1.0000 0.16660  0.59880  0.24010  Biso   1.000  O
  O7       1.0000 0.23420  0.77820  0.17240  Biso   1.000  O
  C1       1.0000 0.88260  0.72430  0.11020  Biso   1.000  C
  H1       1.0000 0.88670  0.79180  0.07400  Biso   1.000  H
  H2       1.0000 0.87340  0.76850  0.15450  Biso   1.000  H
  C2       1.0000 0.97240  0.64950  0.12680  Biso   1.000  C
  H3       1.0000 0.97860  0.59570  0.08490  Biso   1.000  H
  H4       1.0000 0.97270  0.59120  0.16820  Biso   1.000  H
  C3       1.0000 0.05270  0.74500  0.14430  Biso   1.000  C
  H5       1.0000 0.04410  0.80040  0.18490  Biso   1.000  H
  H6       1.0000 0.05160  0.80210  0.10220  Biso   1.000  H
  H7       1.0000 0.20800  0.30400  0.19800  Biso   1.000  H
  V3       1.0000 0.65898  0.88593  0.08585  Biso   1.000  V
  V4       1.0000 0.74682  0.95413  0.28135  Biso   1.000  V
  P3       1.0000 0.28574  0.12254  0.07702  Biso   1.000  P
  P4       1.0000 0.66260  0.16987  0.16686  Biso   1.000  P
  O8       1.0000 0.67600  0.07590  0.10549  Biso   1.000  O
  O9       1.0000 0.29210  0.07180  0.00090  Biso   1.000  O
  O10      1.0000 0.69920  0.85770  0.19110  Biso   1.000  O
  O11      1.0000 0.20000  0.20180  0.07700  Biso   1.000  O
  O12      1.0000 0.28730  0.00050  0.12562  Biso   1.000  O
  O13      1.0000 0.66660  0.09880  0.24010  Biso   1.000  O
  O14      1.0000 0.73420  0.27820  0.17240  Biso   1.000  O
  C4       1.0000 0.38260  0.22430  0.11020  Biso   1.000  C
  H8       1.0000 0.38670  0.29180  0.07400  Biso   1.000  H
  H9       1.0000 0.37340  0.26850  0.15450  Biso   1.000  H
  C5       1.0000 0.47240  0.14950  0.12680  Biso   1.000  C
  H10      1.0000 0.47860  0.09570  0.08490  Biso   1.000  H
  H11      1.0000 0.47270  0.09120  0.16820  Biso   1.000  H
  C6       1.0000 0.55270  0.24500  0.14430  Biso   1.000  C
  H12      1.0000 0.54410  0.30040  0.18490  Biso   1.000  H
  H13      1.0000 0.55160  0.30210  0.10220  Biso   1.000  H
  H14      1.0000 0.70800  0.80400  0.19800  Biso   1.000  H
  V5       1.0000 0.84102  0.38593  0.41415  Biso   1.000  V
  V6       1.0000 0.75318  0.45413  0.21865  Biso   1.000  V
  P5       1.0000 0.21426  0.62254  0.42298  Biso   1.000  P
  P6       1.0000 0.83740  0.66987  0.33314  Biso   1.000  P
  O15      1.0000 0.82400  0.57590  0.39451  Biso   1.000  O
  O16      1.0000 0.20790  0.57180  0.49910  Biso   1.000  O
  O17      1.0000 0.80080  0.35770  0.30890  Biso   1.000  O
  O18      1.0000 0.30000  0.70180  0.42300  Biso   1.000  O
  O19      1.0000 0.21270  0.50050  0.37438  Biso   1.000  O
  O20      1.0000 0.83340  0.59880  0.25990  Biso   1.000  O
  O21      1.0000 0.76580  0.77820  0.32760  Biso   1.000  O
  C7       1.0000 0.11740  0.72430  0.38980  Biso   1.000  C
  H15      1.0000 0.11330  0.79180  0.42600  Biso   1.000  H
  H16      1.0000 0.12660  0.76850  0.34550  Biso   1.000  H
  C8       1.0000 0.02760  0.64950  0.37320  Biso   1.000  C
  H17      1.0000 0.02140  0.59570  0.41510  Biso   1.000  H
  H18      1.0000 0.02730  0.59120  0.33180  Biso   1.000  H
  C9       1.0000 0.94730  0.74500  0.35570  Biso   1.000  C
  H19      1.0000 0.95590  0.80040  0.31510  Biso   1.000  H
  H20      1.0000 0.94840  0.80210  0.39780  Biso   1.000  H
  H21      1.0000 0.79200  0.30400  0.30200  Biso   1.000  H
  V7       1.0000 0.34102  0.88593  0.41415  Biso   1.000  V
  V8       1.0000 0.25318  0.95413  0.21865  Biso   1.000  V
  P7       1.0000 0.71426  0.12254  0.42298  Biso   1.000  P
  P8       1.0000 0.33740  0.16987  0.33314  Biso   1.000  P
  O22      1.0000 0.32400  0.07590  0.39451  Biso   1.000  O
  O23      1.0000 0.70790  0.07180  0.49910  Biso   1.000  O
  O24      1.0000 0.30080  0.85770  0.30890  Biso   1.000  O
  O25      1.0000 0.80000  0.20180  0.42300  Biso   1.000  O
  O26      1.0000 0.71270  0.00050  0.37438  Biso   1.000  O
  O27      1.0000 0.33340  0.09880  0.25990  Biso   1.000  O
  O28      1.0000 0.26580  0.27820  0.32760  Biso   1.000  O
  C10      1.0000 0.61740  0.22430  0.38980  Biso   1.000  C
  H22      1.0000 0.61330  0.29180  0.42600  Biso   1.000  H
  H23      1.0000 0.62660  0.26850  0.34550  Biso   1.000  H
  C11      1.0000 0.52760  0.14950  0.37320  Biso   1.000  C
  H24      1.0000 0.52140  0.09570  0.41510  Biso   1.000  H
  H25      1.0000 0.52730  0.09120  0.33180  Biso   1.000  H
  C12      1.0000 0.44730  0.24500  0.35570  Biso   1.000  C
  H26      1.0000 0.45590  0.30040  0.31510  Biso   1.000  H
  H27      1.0000 0.44840  0.30210  0.39780  Biso   1.000  H
  H28      1.0000 0.29200  0.80400  0.30200  Biso   1.000  H
  V9       1.0000 0.84102  0.61407  0.91415  Biso   1.000  V
  V10      1.0000 0.75318  0.54587  0.71865  Biso   1.000  V
  P9       1.0000 0.21426  0.37746  0.92298  Biso   1.000  P
  P10      1.0000 0.83740  0.33013  0.83314  Biso   1.000  P
  O29      1.0000 0.82400  0.42410  0.89451  Biso   1.000  O
  O30      1.0000 0.20790  0.42820  0.99910  Biso   1.000  O
  O31      1.0000 0.80080  0.64230  0.80890  Biso   1.000  O
  O32      1.0000 0.30000  0.29820  0.92300  Biso   1.000  O
  O33      1.0000 0.21270  0.49950  0.87438  Biso   1.000  O
  O34      1.0000 0.83340  0.40120  0.75990  Biso   1.000  O
  O35      1.0000 0.76580  0.22180  0.82760  Biso   1.000  O
  C13      1.0000 0.11740  0.27570  0.88980  Biso   1.000  C
  H29      1.0000 0.11330  0.20820  0.92600  Biso   1.000  H
  H30      1.0000 0.12660  0.23150  0.84550  Biso   1.000  H
  C14      1.0000 0.02760  0.35050  0.87320  Biso   1.000  C
  H31      1.0000 0.02140  0.40430  0.91510  Biso   1.000  H
  H32      1.0000 0.02730  0.40880  0.83180  Biso   1.000  H
  C15      1.0000 0.94730  0.25500  0.85570  Biso   1.000  C
  H33      1.0000 0.95590  0.19960  0.81510  Biso   1.000  H
  H34      1.0000 0.94840  0.19790  0.89780  Biso   1.000  H
  H35      1.0000 0.79200  0.69600  0.80200  Biso   1.000  H
  V11      1.0000 0.34102  0.11407  0.91415  Biso   1.000  V
  V12      1.0000 0.25318  0.04587  0.71865  Biso   1.000  V
  P11      1.0000 0.71426  0.87746  0.92298  Biso   1.000  P
  P12      1.0000 0.33740  0.83013  0.83314  Biso   1.000  P
  O36      1.0000 0.32400  0.92410  0.89451  Biso   1.000  O
  O37      1.0000 0.70790  0.92820  0.99910  Biso   1.000  O
  O38      1.0000 0.30080  0.14230  0.80890  Biso   1.000  O
  O39      1.0000 0.80000  0.79820  0.92300  Biso   1.000  O
  O40      1.0000 0.71270  0.99950  0.87438  Biso   1.000  O
  O41      1.0000 0.33340  0.90120  0.75990  Biso   1.000  O
  O42      1.0000 0.26580  0.72180  0.82760  Biso   1.000  O
  C16      1.0000 0.61740  0.77570  0.88980  Biso   1.000  C
  H36      1.0000 0.61330  0.70820  0.92600  Biso   1.000  H
  H37      1.0000 0.62660  0.73150  0.84550  Biso   1.000  H
  C17      1.0000 0.52760  0.85050  0.87320  Biso   1.000  C
  H38      1.0000 0.52140  0.90430  0.91510  Biso   1.000  H
  H39      1.0000 0.52730  0.90880  0.83180  Biso   1.000  H
  C18      1.0000 0.44730  0.75500  0.85570  Biso   1.000  C
  H40      1.0000 0.45590  0.69960  0.81510  Biso   1.000  H
  H41      1.0000 0.44840  0.69790  0.89780  Biso   1.000  H
  H42      1.0000 0.29200  0.19600  0.80200  Biso   1.000  H
  V13      1.0000 0.15898  0.61407  0.58585  Biso   1.000  V
  V14      1.0000 0.24682  0.54587  0.78135  Biso   1.000  V
  P13      1.0000 0.78574  0.37746  0.57702  Biso   1.000  P
  P14      1.0000 0.16260  0.33013  0.66686  Biso   1.000  P
  O43      1.0000 0.17600  0.42410  0.60549  Biso   1.000  O
  O44      1.0000 0.79210  0.42820  0.50090  Biso   1.000  O
  O45      1.0000 0.19920  0.64230  0.69110  Biso   1.000  O
  O46      1.0000 0.70000  0.29820  0.57700  Biso   1.000  O
  O47      1.0000 0.78730  0.49950  0.62562  Biso   1.000  O
  O48      1.0000 0.16660  0.40120  0.74010  Biso   1.000  O
  O49      1.0000 0.23420  0.22180  0.67240  Biso   1.000  O
  C19      1.0000 0.88260  0.27570  0.61020  Biso   1.000  C
  H43      1.0000 0.88670  0.20820  0.57400  Biso   1.000  H
  H44      1.0000 0.87340  0.23150  0.65450  Biso   1.000  H
  C20      1.0000 0.97240  0.35050  0.62680  Biso   1.000  C
  H45      1.0000 0.97860  0.40430  0.58490  Biso   1.000  H
  H46      1.0000 0.97270  0.40880  0.66820  Biso   1.000  H
  C21      1.0000 0.05270  0.25500  0.64430  Biso   1.000  C
  H47      1.0000 0.04410  0.19960  0.68490  Biso   1.000  H
  H48      1.0000 0.05160  0.19790  0.60220  Biso   1.000  H
  H49      1.0000 0.20800  0.69600  0.69800  Biso   1.000  H
  V15      1.0000 0.65898  0.11407  0.58585  Biso   1.000  V
  V16      1.0000 0.74682  0.04587  0.78135  Biso   1.000  V
  P15      1.0000 0.28574  0.87746  0.57702  Biso   1.000  P
  P16      1.0000 0.66260  0.83013  0.66686  Biso   1.000  P
  O50      1.0000 0.67600  0.92410  0.60549  Biso   1.000  O
  O51      1.0000 0.29210  0.92820  0.50090  Biso   1.000  O
  O52      1.0000 0.69920  0.14230  0.69110  Biso   1.000  O
  O53      1.0000 0.20000  0.79820  0.57700  Biso   1.000  O
  O54      1.0000 0.28730  0.99950  0.62562  Biso   1.000  O
  O55      1.0000 0.66660  0.90120  0.74010  Biso   1.000  O
  O56      1.0000 0.73420  0.72180  0.67240  Biso   1.000  O
  C22      1.0000 0.38260  0.77570  0.61020  Biso   1.000  C
  H50      1.0000 0.38670  0.70820  0.57400  Biso   1.000  H
  H51      1.0000 0.37340  0.73150  0.65450  Biso   1.000  H
  C23      1.0000 0.47240  0.85050  0.62680  Biso   1.000  C
  H52      1.0000 0.47860  0.90430  0.58490  Biso   1.000  H
  H53      1.0000 0.47270  0.90880  0.66820  Biso   1.000  H
  C24      1.0000 0.55270  0.75500  0.64430  Biso   1.000  C
  H54      1.0000 0.54410  0.69960  0.68490  Biso   1.000  H
  H55      1.0000 0.55160  0.69790  0.60220  Biso   1.000  H
  H56      1.0000 0.70800  0.19600  0.69800  Biso   1.000  H
