data_image0
_cell_length_a       16.3248
_cell_length_b       13.3361
_cell_length_c       10.1019
_cell_angle_alpha    90
_cell_angle_beta     89.994
_cell_angle_gamma    90

_symmetry_space_group_name_H-M    "P 1"
_symmetry_int_tables_number       1

loop_
  _symmetry_equiv_pos_as_xyz
  'x, y, z'

loop_
  _atom_site_label
  _atom_site_occupancy
  _atom_site_fract_x
  _atom_site_fract_y
  _atom_site_fract_z
  _atom_site_thermal_displace_type
  _atom_site_B_iso_or_equiv
  _atom_site_type_symbol
  V1       1.0000 0.02370  0.54667  0.24768  Biso   1.000  V
  V2       1.0000 0.25003  0.24997  0.53647  Biso   1.000  V
  V3       1.0000 0.47634  0.54669  0.74768  Biso   1.000  V
  P1       1.0000 0.08665  0.39478  0.49759  Biso   1.000  P
  P2       1.0000 0.08569  0.10619  0.51492  Biso   1.000  P
  P3       1.0000 0.41433  0.39385  0.51499  Biso   1.000  P
  P4       1.0000 0.41335  0.10517  0.49760  Biso   1.000  P
  O1       1.0000 0.07158  0.47978  0.40110  Biso   1.000  O
  O2       1.0000 0.09529  0.04260  0.64037  Biso   1.000  O
  O3       1.0000 0.07517  0.42831  0.64169  Biso   1.000  O
  O4       1.0000 0.05471  0.04468  0.39886  Biso   1.000  O
  O5       1.0000 0.16850  0.15138  0.47893  Biso   1.000  O
  O6       1.0000 0.32556  0.14287  0.48187  Biso   1.000  O
  O7       1.0000 0.17440  0.35714  0.48201  Biso   1.000  O
  O8       1.0000 0.33146  0.34857  0.47903  Biso   1.000  O
  O9       1.0000 0.40478  0.45765  0.64042  Biso   1.000  O
  O10      1.0000 0.42832  0.02006  0.40120  Biso   1.000  O
  O11      1.0000 0.44518  0.45531  0.39876  Biso   1.000  O
  O12      1.0000 0.42481  0.07157  0.64180  Biso   1.000  O
  C1       1.0000 0.01441  0.29675  0.46070  Biso   1.000  C
  H1       1.0000 0.95980  0.32550  0.46170  Biso   1.000  H
  H2       1.0000 0.02480  0.27320  0.37150  Biso   1.000  H
  C2       1.0000 0.01507  0.20551  0.55420  Biso   1.000  C
  H3       1.0000 0.96030  0.17740  0.55600  Biso   1.000  H
  H4       1.0000 0.02730  0.22910  0.64280  Biso   1.000  H
  C3       1.0000 0.48488  0.29457  0.55430  Biso   1.000  C
  H5       1.0000 0.53970  0.32270  0.55630  Biso   1.000  H
  H6       1.0000 0.47260  0.27090  0.64290  Biso   1.000  H
  C4       1.0000 0.48564  0.20328  0.46080  Biso   1.000  C
  H7       1.0000 0.47520  0.22680  0.37150  Biso   1.000  H
  H8       1.0000 0.54020  0.17460  0.46180  Biso   1.000  H
  V4       1.0000 0.97630  0.04667  0.25232  Biso   1.000  V
  V5       1.0000 0.74997  0.74997  0.96353  Biso   1.000  V
  V6       1.0000 0.52366  0.04669  0.75232  Biso   1.000  V
  P5       1.0000 0.91335  0.89478  0.00241  Biso   1.000  P
  P6       1.0000 0.91431  0.60619  0.98508  Biso   1.000  P
  P7       1.0000 0.58567  0.89385  0.98501  Biso   1.000  P
  P8       1.0000 0.58665  0.60517  0.00240  Biso   1.000  P
  O13      1.0000 0.92842  0.97978  0.09890  Biso   1.000  O
  O14      1.0000 0.90471  0.54260  0.85963  Biso   1.000  O
  O15      1.0000 0.92483  0.92831  0.85831  Biso   1.000  O
  O16      1.0000 0.94529  0.54468  0.10114  Biso   1.000  O
  O17      1.0000 0.83150  0.65138  0.02107  Biso   1.000  O
  O18      1.0000 0.67444  0.64287  0.01813  Biso   1.000  O
  O19      1.0000 0.82560  0.85714  0.01799  Biso   1.000  O
  O20      1.0000 0.66854  0.84857  0.02097  Biso   1.000  O
  O21      1.0000 0.59522  0.95765  0.85958  Biso   1.000  O
  O22      1.0000 0.57168  0.52006  0.09880  Biso   1.000  O
  O23      1.0000 0.55482  0.95531  0.10124  Biso   1.000  O
  O24      1.0000 0.57519  0.57157  0.85820  Biso   1.000  O
  C5       1.0000 0.98559  0.79675  0.03930  Biso   1.000  C
  H9       1.0000 0.04020  0.82550  0.03830  Biso   1.000  H
  H10      1.0000 0.97520  0.77320  0.12850  Biso   1.000  H
  C6       1.0000 0.98493  0.70551  0.94580  Biso   1.000  C
  H11      1.0000 0.03970  0.67740  0.94400  Biso   1.000  H
  H12      1.0000 0.97270  0.72910  0.85720  Biso   1.000  H
  C7       1.0000 0.51512  0.79457  0.94570  Biso   1.000  C
  H13      1.0000 0.46030  0.82270  0.94370  Biso   1.000  H
  H14      1.0000 0.52740  0.77090  0.85710  Biso   1.000  H
  C8       1.0000 0.51436  0.70328  0.03920  Biso   1.000  C
  H15      1.0000 0.52480  0.72680  0.12850  Biso   1.000  H
  H16      1.0000 0.45980  0.67460  0.03820  Biso   1.000  H
  V7       1.0000 0.97630  0.45333  0.75232  Biso   1.000  V
  V8       1.0000 0.74997  0.75003  0.46353  Biso   1.000  V
  V9       1.0000 0.52366  0.45331  0.25232  Biso   1.000  V
  P9       1.0000 0.91335  0.60522  0.50241  Biso   1.000  P
  P10      1.0000 0.91431  0.89381  0.48508  Biso   1.000  P
  P11      1.0000 0.58567  0.60615  0.48501  Biso   1.000  P
  P12      1.0000 0.58665  0.89483  0.50240  Biso   1.000  P
  O25      1.0000 0.92842  0.52022  0.59890  Biso   1.000  O
  O26      1.0000 0.90471  0.95740  0.35963  Biso   1.000  O
  O27      1.0000 0.92483  0.57169  0.35831  Biso   1.000  O
  O28      1.0000 0.94529  0.95532  0.60114  Biso   1.000  O
  O29      1.0000 0.83150  0.84862  0.52107  Biso   1.000  O
  O30      1.0000 0.67444  0.85713  0.51813  Biso   1.000  O
  O31      1.0000 0.82560  0.64286  0.51799  Biso   1.000  O
  O32      1.0000 0.66854  0.65143  0.52097  Biso   1.000  O
  O33      1.0000 0.59522  0.54235  0.35958  Biso   1.000  O
  O34      1.0000 0.57168  0.97994  0.59880  Biso   1.000  O
  O35      1.0000 0.55482  0.54469  0.60124  Biso   1.000  O
  O36      1.0000 0.57519  0.92843  0.35820  Biso   1.000  O
  C9       1.0000 0.98559  0.70325  0.53930  Biso   1.000  C
  H17      1.0000 0.04020  0.67450  0.53830  Biso   1.000  H
  H18      1.0000 0.97520  0.72680  0.62850  Biso   1.000  H
  C10      1.0000 0.98493  0.79449  0.44580  Biso   1.000  C
  H19      1.0000 0.03970  0.82260  0.44400  Biso   1.000  H
  H20      1.0000 0.97270  0.77090  0.35720  Biso   1.000  H
  C11      1.0000 0.51512  0.70543  0.44570  Biso   1.000  C
  H21      1.0000 0.46030  0.67730  0.44370  Biso   1.000  H
  H22      1.0000 0.52740  0.72910  0.35710  Biso   1.000  H
  C12      1.0000 0.51436  0.79672  0.53920  Biso   1.000  C
  H23      1.0000 0.52480  0.77320  0.62850  Biso   1.000  H
  H24      1.0000 0.45980  0.82540  0.53820  Biso   1.000  H
  V10      1.0000 0.02370  0.95333  0.74768  Biso   1.000  V
  V11      1.0000 0.25003  0.25003  0.03647  Biso   1.000  V
  V12      1.0000 0.47634  0.95331  0.24768  Biso   1.000  V
  P13      1.0000 0.08665  0.10522  0.99759  Biso   1.000  P
  P14      1.0000 0.08569  0.39381  0.01492  Biso   1.000  P
  P15      1.0000 0.41433  0.10615  0.01499  Biso   1.000  P
  P16      1.0000 0.41335  0.39483  0.99760  Biso   1.000  P
  O37      1.0000 0.07158  0.02022  0.90110  Biso   1.000  O
  O38      1.0000 0.09529  0.45740  0.14037  Biso   1.000  O
  O39      1.0000 0.07517  0.07169  0.14169  Biso   1.000  O
  O40      1.0000 0.05471  0.45532  0.89886  Biso   1.000  O
  O41      1.0000 0.16850  0.34862  0.97893  Biso   1.000  O
  O42      1.0000 0.32556  0.35713  0.98187  Biso   1.000  O
  O43      1.0000 0.17440  0.14286  0.98201  Biso   1.000  O
  O44      1.0000 0.33146  0.15143  0.97903  Biso   1.000  O
  O45      1.0000 0.40478  0.04235  0.14042  Biso   1.000  O
  O46      1.0000 0.42832  0.47994  0.90120  Biso   1.000  O
  O47      1.0000 0.44518  0.04469  0.89876  Biso   1.000  O
  O48      1.0000 0.42481  0.42843  0.14180  Biso   1.000  O
  C13      1.0000 0.01441  0.20325  0.96070  Biso   1.000  C
  H25      1.0000 0.95980  0.17450  0.96170  Biso   1.000  H
  H26      1.0000 0.02480  0.22680  0.87150  Biso   1.000  H
  C14      1.0000 0.01507  0.29449  0.05420  Biso   1.000  C
  H27      1.0000 0.96030  0.32260  0.05600  Biso   1.000  H
  H28      1.0000 0.02730  0.27090  0.14280  Biso   1.000  H
  C15      1.0000 0.48488  0.20543  0.05430  Biso   1.000  C
  H29      1.0000 0.53970  0.17730  0.05630  Biso   1.000  H
  H30      1.0000 0.47260  0.22910  0.14290  Biso   1.000  H
  C16      1.0000 0.48564  0.29672  0.96080  Biso   1.000  C
  H31      1.0000 0.47520  0.27320  0.87150  Biso   1.000  H
  H32      1.0000 0.54020  0.32540  0.96180  Biso   1.000  H
