data_ODAHIK_charged
_audit_creation_date              2014-07-02
_audit_creation_method            'Materials Studio'
_symmetry_space_group_name_H-M    'P1'
_symmetry_Int_Tables_number       1
_symmetry_cell_setting            triclinic
loop_
_symmetry_equiv_pos_as_xyz
  x,y,z
_cell_length_a                    10.4390
_cell_length_b                    14.4400
_cell_length_c                    28.4150
_cell_angle_alpha                 90.0000
_cell_angle_beta                  97.6700
_cell_angle_gamma                 90.0000
loop_
_atom_site_label
_atom_site_type_symbol
_atom_site_fract_x
_atom_site_fract_y
_atom_site_fract_z
_atom_site_U_iso_or_equiv
_atom_site_adp_type
_atom_site_occupancy
Cu1    Cu    0.32176   0.70672   0.17843   0.01267  Uiso   1.00
Cu2    Cu    0.82176   0.79328   0.67843   0.01267  Uiso   1.00
H1     H     0.57310   0.79450   0.17330   0.01267  Uiso   1.00
H2     H     0.69260   0.92620   0.19510   0.01267  Uiso   1.00
H3     H     0.37450   0.02820   0.24700   0.01267  Uiso   1.00
H4     H     0.26890   0.89540   0.22230   0.01267  Uiso   1.00
H5     H     0.69400   0.05700   0.26900   0.01267  Uiso   1.00
H6     H     0.58200   0.13400   0.25500   0.01267  Uiso   1.00
H7     H     0.60340   0.14270   0.17460   0.01267  Uiso   1.00
H8     H     0.73150   0.08100   0.18260   0.01267  Uiso   1.00
H9     H     0.70500   0.25780   0.22510   0.01267  Uiso   1.00
H10    H     0.83310   0.19550   0.23450   0.01267  Uiso   1.00
H11    H     0.72820   0.26890   0.14350   0.01267  Uiso   1.00
H12    H     0.85180   0.20280   0.15120   0.01267  Uiso   1.00
H13    H     0.97040   0.31900   0.19660   0.01267  Uiso   1.00
H14    H     0.84630   0.38520   0.19000   0.01267  Uiso   1.00
H15    H     0.97360   0.32280   0.11250   0.01267  Uiso   1.00
H16    H     0.85440   0.39360   0.10760   0.01267  Uiso   1.00
H17    H     0.89430   0.55710   0.13510   0.01267  Uiso   1.00
H18    H     0.04220   0.67570   0.15250   0.01267  Uiso   1.00
H19    H     0.33060   0.49910   0.16580   0.01267  Uiso   1.00
H20    H     0.19160   0.37680   0.14510   0.01267  Uiso   1.00
H21    H     0.24060   0.85920   0.11010   0.01267  Uiso   1.00
H22    H     0.22900   0.89150   0.02980   0.01267  Uiso   1.00
H23    H     0.37950   0.63490   0.01240   0.01267  Uiso   1.00
H24    H     0.37960   0.61310   0.09170   0.01267  Uiso   1.00
H25    H     0.21080   0.80410   0.94520   0.01267  Uiso   1.00
H26    H     0.32600   0.73200   0.94280   0.01267  Uiso   1.00
H27    H     0.35800   0.92450   0.96220   0.01267  Uiso   1.00
H28    H     0.38090   0.87540   0.91360   0.01267  Uiso   1.00
H29    H     0.55400   0.79040   0.95680   0.01267  Uiso   1.00
H30    H     0.53530   0.85010   0.00270   0.01267  Uiso   1.00
H31    H     0.70090   0.91640   0.97390   0.01267  Uiso   1.00
H32    H     0.58220   0.98480   0.95970   0.01267  Uiso   1.00
H33    H     0.56140   0.91280   0.88030   0.01267  Uiso   1.00
H34    H     0.68110   0.98170   0.89350   0.01267  Uiso   1.00
H35    H     0.70170   0.78480   0.90370   0.01267  Uiso   1.00
H36    H     0.82040   0.85550   0.91320   0.01267  Uiso   1.00
H37    H     0.91700   0.91620   0.84420   0.01267  Uiso   1.00
H38    H     0.94870   0.89550   0.76640   0.01267  Uiso   1.00
H39    H     0.63770   0.74250   0.74220   0.01267  Uiso   1.00
H40    H     0.60220   0.75410   0.82020   0.01267  Uiso   1.00
H41    H     0.55120   0.63270   0.15720   0.01267  Uiso   1.00
H42    H     0.51340   0.57320   0.18980   0.01267  Uiso   1.00
H43    H     0.07310   0.70550   0.67330   0.01267  Uiso   1.00
H44    H     0.19260   0.57380   0.69510   0.01267  Uiso   1.00
H45    H     0.87450   0.47180   0.74700   0.01267  Uiso   1.00
H46    H     0.76890   0.60460   0.72230   0.01267  Uiso   1.00
H47    H     0.19400   0.44300   0.76900   0.01267  Uiso   1.00
H48    H     0.08200   0.36600   0.75500   0.01267  Uiso   1.00
H49    H     0.10340   0.35730   0.67460   0.01267  Uiso   1.00
H50    H     0.23150   0.41900   0.68260   0.01267  Uiso   1.00
H51    H     0.20500   0.24220   0.72510   0.01267  Uiso   1.00
H52    H     0.33310   0.30450   0.73450   0.01267  Uiso   1.00
H53    H     0.22820   0.23110   0.64350   0.01267  Uiso   1.00
H54    H     0.35180   0.29720   0.65120   0.01267  Uiso   1.00
H55    H     0.47040   0.18100   0.69660   0.01267  Uiso   1.00
H56    H     0.34630   0.11480   0.69000   0.01267  Uiso   1.00
H57    H     0.47360   0.17720   0.61250   0.01267  Uiso   1.00
H58    H     0.35440   0.10640   0.60760   0.01267  Uiso   1.00
H59    H     0.39430   0.94290   0.63510   0.01267  Uiso   1.00
H60    H     0.54220   0.82430   0.65250   0.01267  Uiso   1.00
H61    H     0.83060   0.00090   0.66580   0.01267  Uiso   1.00
H62    H     0.69160   0.12320   0.64510   0.01267  Uiso   1.00
H63    H     0.74060   0.64080   0.61010   0.01267  Uiso   1.00
H64    H     0.72900   0.60850   0.52980   0.01267  Uiso   1.00
H65    H     0.87950   0.86510   0.51240   0.01267  Uiso   1.00
H66    H     0.87960   0.88690   0.59170   0.01267  Uiso   1.00
H67    H     0.71080   0.69590   0.44520   0.01267  Uiso   1.00
H68    H     0.82600   0.76800   0.44280   0.01267  Uiso   1.00
H69    H     0.85800   0.57550   0.46220   0.01267  Uiso   1.00
H70    H     0.88090   0.62460   0.41360   0.01267  Uiso   1.00
H71    H     0.05400   0.70960   0.45680   0.01267  Uiso   1.00
H72    H     0.03530   0.64990   0.50270   0.01267  Uiso   1.00
H73    H     0.20090   0.58360   0.47390   0.01267  Uiso   1.00
H74    H     0.08220   0.51520   0.45970   0.01267  Uiso   1.00
H75    H     0.06140   0.58720   0.38030   0.01267  Uiso   1.00
H76    H     0.18110   0.51830   0.39350   0.01267  Uiso   1.00
H77    H     0.20170   0.71520   0.40370   0.01267  Uiso   1.00
H78    H     0.32040   0.64450   0.41320   0.01267  Uiso   1.00
H79    H     0.41700   0.58380   0.34420   0.01267  Uiso   1.00
H80    H     0.44870   0.60450   0.26640   0.01267  Uiso   1.00
H81    H     0.13770   0.75750   0.24220   0.01267  Uiso   1.00
H82    H     0.10220   0.74590   0.32020   0.01267  Uiso   1.00
H83    H     0.05120   0.86730   0.65720   0.01267  Uiso   1.00
H84    H     0.01340   0.92680   0.68980   0.01267  Uiso   1.00
C1     C     0.53280   0.84280   0.18860   0.01267  Uiso   1.00
C2     C     0.60600   0.92150   0.20170   0.01267  Uiso   1.00
C3     C     0.55040   0.99300   0.22460   0.01267  Uiso   1.00
C4     C     0.41820   0.98120   0.23200   0.01267  Uiso   1.00
C5     C     0.35670   0.90160   0.21730   0.01267  Uiso   1.00
C6     C     0.62940   0.07820   0.23960   0.01267  Uiso   1.00
C7     C     0.67840   0.12560   0.19810   0.01267  Uiso   1.00
C8     C     0.75780   0.21120   0.21080   0.01267  Uiso   1.00
C9     C     0.80470   0.25170   0.16630   0.01267  Uiso   1.00
C10    C     0.89210   0.33600   0.17470   0.01267  Uiso   1.00
C11    C     0.93220   0.37300   0.12880   0.01267  Uiso   1.00
C12    C     0.02670   0.45450   0.13830   0.01267  Uiso   1.00
C13    C     0.98410   0.54360   0.14080   0.01267  Uiso   1.00
C14    C     0.07300   0.61390   0.15180   0.01267  Uiso   1.00
C15    C     0.24060   0.51120   0.15900   0.01267  Uiso   1.00
C16    C     0.15860   0.43780   0.14720   0.01267  Uiso   1.00
C17    C     0.26970   0.81360   0.08990   0.01267  Uiso   1.00
C18    C     0.26270   0.83370   0.04160   0.01267  Uiso   1.00
C19    C     0.30490   0.76950   0.01110   0.01267  Uiso   1.00
C20    C     0.35060   0.68270   0.03140   0.01267  Uiso   1.00
C21    C     0.35080   0.67130   0.07880   0.01267  Uiso   1.00
C22    C     0.30070   0.78870   0.95870   0.01267  Uiso   1.00
C23    C     0.38810   0.86670   0.94850   0.01267  Uiso   1.00
C24    C     0.52710   0.85170   0.96760   0.01267  Uiso   1.00
C25    C     0.61720   0.92310   0.95330   0.01267  Uiso   1.00
C26    C     0.64370   0.92150   0.90150   0.01267  Uiso   1.00
C27    C     0.73640   0.84420   0.89340   0.01267  Uiso   1.00
C28    C     0.75830   0.83590   0.84150   0.01267  Uiso   1.00
C29    C     0.85920   0.87810   0.82410   0.01267  Uiso   1.00
C30    C     0.87740   0.86560   0.77740   0.01267  Uiso   1.00
C31    C     0.69800   0.77640   0.76360   0.01267  Uiso   1.00
C32    C     0.67460   0.78400   0.81000   0.01267  Uiso   1.00
C33    C     0.03280   0.65720   0.68860   0.01267  Uiso   1.00
C34    C     0.10600   0.57850   0.70170   0.01267  Uiso   1.00
C35    C     0.05040   0.50700   0.72460   0.01267  Uiso   1.00
C36    C     0.91820   0.51880   0.73200   0.01267  Uiso   1.00
C37    C     0.85670   0.59840   0.71730   0.01267  Uiso   1.00
C38    C     0.12940   0.42180   0.73960   0.01267  Uiso   1.00
C39    C     0.17840   0.37440   0.69810   0.01267  Uiso   1.00
C40    C     0.25780   0.28880   0.71080   0.01267  Uiso   1.00
C41    C     0.30470   0.24830   0.66630   0.01267  Uiso   1.00
C42    C     0.39210   0.16400   0.67470   0.01267  Uiso   1.00
C43    C     0.43220   0.12700   0.62880   0.01267  Uiso   1.00
C44    C     0.52670   0.04550   0.63830   0.01267  Uiso   1.00
C45    C     0.48410   0.95640   0.64080   0.01267  Uiso   1.00
C46    C     0.57300   0.88610   0.65180   0.01267  Uiso   1.00
C47    C     0.74060   0.98880   0.65900   0.01267  Uiso   1.00
C48    C     0.65860   0.06220   0.64720   0.01267  Uiso   1.00
C49    C     0.76970   0.68640   0.58990   0.01267  Uiso   1.00
C50    C     0.76270   0.66630   0.54160   0.01267  Uiso   1.00
C51    C     0.80490   0.73050   0.51110   0.01267  Uiso   1.00
C52    C     0.85060   0.81730   0.53140   0.01267  Uiso   1.00
C53    C     0.85080   0.82870   0.57880   0.01267  Uiso   1.00
C54    C     0.80070   0.71130   0.45870   0.01267  Uiso   1.00
C55    C     0.88810   0.63330   0.44850   0.01267  Uiso   1.00
C56    C     0.02710   0.64830   0.46760   0.01267  Uiso   1.00
C57    C     0.11720   0.57690   0.45330   0.01267  Uiso   1.00
C58    C     0.14370   0.57850   0.40150   0.01267  Uiso   1.00
C59    C     0.23640   0.65580   0.39340   0.01267  Uiso   1.00
C60    C     0.25830   0.66410   0.34150   0.01267  Uiso   1.00
C61    C     0.35920   0.62190   0.32410   0.01267  Uiso   1.00
C62    C     0.37740   0.63440   0.27740   0.01267  Uiso   1.00
C63    C     0.19800   0.72360   0.26360   0.01267  Uiso   1.00
C64    C     0.17460   0.71600   0.31000   0.01267  Uiso   1.00
N1     N     0.41060   0.83000   0.19594   0.01267  Uiso   1.00
N2     N     0.20000   0.59920   0.16143   0.01267  Uiso   1.00
N3     N     0.31480   0.73380   0.10930   0.01267  Uiso   1.00
N4     N     0.79980   0.81350   0.74669   0.01267  Uiso   1.00
N5     N     0.91060   0.67000   0.69594   0.01267  Uiso   1.00
N6     N     0.70000   0.90080   0.66143   0.01267  Uiso   1.00
N7     N     0.81480   0.76620   0.60930   0.01267  Uiso   1.00
N8     N     0.29980   0.68650   0.24669   0.01267  Uiso   1.00
O1     O     0.50830   0.62860   0.18093   0.01267  Uiso   1.00
O2     O     0.00830   0.87140   0.68093   0.01267  Uiso   1.00
Cu3    Cu    0.17824   0.20672   0.32157   0.01267  Uiso   1.00
Cu4    Cu    0.67824   0.29328   0.82157   0.01267  Uiso   1.00
H85    H     0.92690   0.29450   0.32670   0.01267  Uiso   1.00
H86    H     0.80740   0.42620   0.30490   0.01267  Uiso   1.00
H87    H     0.12550   0.52820   0.25300   0.01267  Uiso   1.00
H88    H     0.23110   0.39540   0.27770   0.01267  Uiso   1.00
H89    H     0.80600   0.55700   0.23100   0.01267  Uiso   1.00
H90    H     0.91800   0.63400   0.24500   0.01267  Uiso   1.00
H91    H     0.89660   0.64270   0.32540   0.01267  Uiso   1.00
H92    H     0.76850   0.58100   0.31740   0.01267  Uiso   1.00
H93    H     0.79500   0.75780   0.27490   0.01267  Uiso   1.00
H94    H     0.66690   0.69550   0.26550   0.01267  Uiso   1.00
H95    H     0.77180   0.76890   0.35650   0.01267  Uiso   1.00
H96    H     0.64820   0.70280   0.34880   0.01267  Uiso   1.00
H97    H     0.52960   0.81900   0.30340   0.01267  Uiso   1.00
H98    H     0.65370   0.88520   0.31000   0.01267  Uiso   1.00
H99    H     0.52640   0.82280   0.38750   0.01267  Uiso   1.00
H100   H     0.64560   0.89360   0.39240   0.01267  Uiso   1.00
H101   H     0.60570   0.05710   0.36490   0.01267  Uiso   1.00
H102   H     0.45780   0.17570   0.34750   0.01267  Uiso   1.00
H103   H     0.16940   0.99910   0.33420   0.01267  Uiso   1.00
H104   H     0.30840   0.87680   0.35490   0.01267  Uiso   1.00
H105   H     0.25940   0.35920   0.38990   0.01267  Uiso   1.00
H106   H     0.27100   0.39150   0.47020   0.01267  Uiso   1.00
H107   H     0.12050   0.13490   0.48760   0.01267  Uiso   1.00
H108   H     0.12040   0.11310   0.40830   0.01267  Uiso   1.00
H109   H     0.28920   0.30410   0.55480   0.01267  Uiso   1.00
H110   H     0.17400   0.23200   0.55720   0.01267  Uiso   1.00
H111   H     0.14200   0.42450   0.53780   0.01267  Uiso   1.00
H112   H     0.11910   0.37540   0.58640   0.01267  Uiso   1.00
H113   H     0.94600   0.29040   0.54320   0.01267  Uiso   1.00
H114   H     0.96470   0.35010   0.49730   0.01267  Uiso   1.00
H115   H     0.79910   0.41640   0.52610   0.01267  Uiso   1.00
H116   H     0.91780   0.48480   0.54030   0.01267  Uiso   1.00
H117   H     0.93860   0.41280   0.61970   0.01267  Uiso   1.00
H118   H     0.81890   0.48170   0.60650   0.01267  Uiso   1.00
H119   H     0.79830   0.28480   0.59630   0.01267  Uiso   1.00
H120   H     0.67960   0.35550   0.58680   0.01267  Uiso   1.00
H121   H     0.58300   0.41620   0.65580   0.01267  Uiso   1.00
H122   H     0.55130   0.39550   0.73360   0.01267  Uiso   1.00
H123   H     0.86230   0.24250   0.75780   0.01267  Uiso   1.00
H124   H     0.89780   0.25410   0.67980   0.01267  Uiso   1.00
H125   H     0.94880   0.13270   0.34280   0.01267  Uiso   1.00
H126   H     0.98660   0.07320   0.31020   0.01267  Uiso   1.00
H127   H     0.42690   0.20550   0.82670   0.01267  Uiso   1.00
H128   H     0.30740   0.07380   0.80490   0.01267  Uiso   1.00
H129   H     0.62550   0.97180   0.75300   0.01267  Uiso   1.00
H130   H     0.73110   0.10460   0.77770   0.01267  Uiso   1.00
H131   H     0.30600   0.94300   0.73100   0.01267  Uiso   1.00
H132   H     0.41800   0.86600   0.74500   0.01267  Uiso   1.00
H133   H     0.39660   0.85730   0.82540   0.01267  Uiso   1.00
H134   H     0.26850   0.91900   0.81740   0.01267  Uiso   1.00
H135   H     0.29500   0.74220   0.77490   0.01267  Uiso   1.00
H136   H     0.16690   0.80450   0.76550   0.01267  Uiso   1.00
H137   H     0.27180   0.73110   0.85650   0.01267  Uiso   1.00
H138   H     0.14820   0.79720   0.84880   0.01267  Uiso   1.00
H139   H     0.02960   0.68100   0.80340   0.01267  Uiso   1.00
H140   H     0.15370   0.61480   0.81000   0.01267  Uiso   1.00
H141   H     0.02640   0.67720   0.88750   0.01267  Uiso   1.00
H142   H     0.14560   0.60640   0.89240   0.01267  Uiso   1.00
H143   H     0.10570   0.44290   0.86490   0.01267  Uiso   1.00
H144   H     0.95780   0.32430   0.84750   0.01267  Uiso   1.00
H145   H     0.66940   0.50090   0.83420   0.01267  Uiso   1.00
H146   H     0.80840   0.62320   0.85490   0.01267  Uiso   1.00
H147   H     0.75940   0.14080   0.88990   0.01267  Uiso   1.00
H148   H     0.77100   0.10850   0.97020   0.01267  Uiso   1.00
H149   H     0.62050   0.36510   0.98760   0.01267  Uiso   1.00
H150   H     0.62040   0.38690   0.90830   0.01267  Uiso   1.00
H151   H     0.78920   0.19590   0.05480   0.01267  Uiso   1.00
H152   H     0.67400   0.26800   0.05720   0.01267  Uiso   1.00
H153   H     0.64200   0.07550   0.03780   0.01267  Uiso   1.00
H154   H     0.61910   0.12460   0.08640   0.01267  Uiso   1.00
H155   H     0.44600   0.20960   0.04320   0.01267  Uiso   1.00
H156   H     0.46470   0.14990   0.99730   0.01267  Uiso   1.00
H157   H     0.29910   0.08360   0.02610   0.01267  Uiso   1.00
H158   H     0.41780   0.01520   0.04030   0.01267  Uiso   1.00
H159   H     0.43860   0.08720   0.11970   0.01267  Uiso   1.00
H160   H     0.31890   0.01830   0.10650   0.01267  Uiso   1.00
H161   H     0.29830   0.21520   0.09630   0.01267  Uiso   1.00
H162   H     0.17960   0.14450   0.08680   0.01267  Uiso   1.00
H163   H     0.08300   0.08380   0.15580   0.01267  Uiso   1.00
H164   H     0.05130   0.10450   0.23360   0.01267  Uiso   1.00
H165   H     0.36230   0.25750   0.25780   0.01267  Uiso   1.00
H166   H     0.39780   0.24590   0.17980   0.01267  Uiso   1.00
H167   H     0.44880   0.36730   0.84280   0.01267  Uiso   1.00
H168   H     0.48660   0.42680   0.81020   0.01267  Uiso   1.00
C65    C     0.96720   0.34280   0.31140   0.01267  Uiso   1.00
C66    C     0.89400   0.42150   0.29830   0.01267  Uiso   1.00
C67    C     0.94960   0.49300   0.27540   0.01267  Uiso   1.00
C68    C     0.08180   0.48120   0.26800   0.01267  Uiso   1.00
C69    C     0.14330   0.40160   0.28270   0.01267  Uiso   1.00
C70    C     0.87060   0.57820   0.26040   0.01267  Uiso   1.00
C71    C     0.82160   0.62560   0.30190   0.01267  Uiso   1.00
C72    C     0.74220   0.71120   0.28920   0.01267  Uiso   1.00
C73    C     0.69530   0.75170   0.33370   0.01267  Uiso   1.00
C74    C     0.60790   0.83600   0.32530   0.01267  Uiso   1.00
C75    C     0.56780   0.87300   0.37120   0.01267  Uiso   1.00
C76    C     0.47330   0.95450   0.36170   0.01267  Uiso   1.00
C77    C     0.51590   0.04360   0.35920   0.01267  Uiso   1.00
C78    C     0.42700   0.11390   0.34820   0.01267  Uiso   1.00
C79    C     0.25940   0.01120   0.34100   0.01267  Uiso   1.00
C80    C     0.34140   0.93780   0.35280   0.01267  Uiso   1.00
C81    C     0.23030   0.31360   0.41010   0.01267  Uiso   1.00
C82    C     0.23730   0.33370   0.45840   0.01267  Uiso   1.00
C83    C     0.19510   0.26950   0.48890   0.01267  Uiso   1.00
C84    C     0.14940   0.18270   0.46860   0.01267  Uiso   1.00
C85    C     0.14920   0.17130   0.42120   0.01267  Uiso   1.00
C86    C     0.19930   0.28870   0.54130   0.01267  Uiso   1.00
C87    C     0.11190   0.36670   0.55150   0.01267  Uiso   1.00
C88    C     0.97290   0.35170   0.53240   0.01267  Uiso   1.00
C89    C     0.88280   0.42310   0.54670   0.01267  Uiso   1.00
C90    C     0.85630   0.42150   0.59850   0.01267  Uiso   1.00
C91    C     0.76360   0.34420   0.60660   0.01267  Uiso   1.00
C92    C     0.74170   0.33590   0.65850   0.01267  Uiso   1.00
C93    C     0.64080   0.37810   0.67590   0.01267  Uiso   1.00
C94    C     0.62260   0.36560   0.72260   0.01267  Uiso   1.00
C95    C     0.80200   0.27640   0.73640   0.01267  Uiso   1.00
C96    C     0.82540   0.28400   0.69000   0.01267  Uiso   1.00
C97    C     0.46720   0.15720   0.81140   0.01267  Uiso   1.00
C98    C     0.39400   0.07850   0.79830   0.01267  Uiso   1.00
C99    C     0.44960   0.00700   0.77540   0.01267  Uiso   1.00
C100   C     0.58180   0.01880   0.76800   0.01267  Uiso   1.00
C101   C     0.64330   0.09840   0.78270   0.01267  Uiso   1.00
C102   C     0.37060   0.92180   0.76040   0.01267  Uiso   1.00
C103   C     0.32160   0.87440   0.80190   0.01267  Uiso   1.00
C104   C     0.24220   0.78880   0.78920   0.01267  Uiso   1.00
C105   C     0.19530   0.74830   0.83370   0.01267  Uiso   1.00
C106   C     0.10790   0.66400   0.82530   0.01267  Uiso   1.00
C107   C     0.06780   0.62700   0.87120   0.01267  Uiso   1.00
C108   C     0.97330   0.54550   0.86170   0.01267  Uiso   1.00
C109   C     0.01590   0.45640   0.85920   0.01267  Uiso   1.00
C110   C     0.92700   0.38610   0.84820   0.01267  Uiso   1.00
C111   C     0.75940   0.48880   0.84100   0.01267  Uiso   1.00
C112   C     0.84140   0.56220   0.85280   0.01267  Uiso   1.00
C113   C     0.73030   0.18640   0.91010   0.01267  Uiso   1.00
C114   C     0.73730   0.16630   0.95840   0.01267  Uiso   1.00
C115   C     0.69510   0.23050   0.98890   0.01267  Uiso   1.00
C116   C     0.64940   0.31730   0.96860   0.01267  Uiso   1.00
C117   C     0.64920   0.32870   0.92120   0.01267  Uiso   1.00
C118   C     0.69930   0.21130   0.04130   0.01267  Uiso   1.00
C119   C     0.61190   0.13330   0.05150   0.01267  Uiso   1.00
C120   C     0.47290   0.14830   0.03240   0.01267  Uiso   1.00
C121   C     0.38280   0.07690   0.04670   0.01267  Uiso   1.00
C122   C     0.35630   0.07850   0.09850   0.01267  Uiso   1.00
C123   C     0.26360   0.15580   0.10660   0.01267  Uiso   1.00
C124   C     0.24170   0.16410   0.15850   0.01267  Uiso   1.00
C125   C     0.14080   0.12190   0.17590   0.01267  Uiso   1.00
C126   C     0.12260   0.13440   0.22260   0.01267  Uiso   1.00
C127   C     0.30200   0.22360   0.23640   0.01267  Uiso   1.00
C128   C     0.32540   0.21600   0.19000   0.01267  Uiso   1.00
N9     N     0.08940   0.33000   0.30406   0.01267  Uiso   1.00
N10    N     0.30000   0.09920   0.33857   0.01267  Uiso   1.00
N11    N     0.18520   0.23380   0.39070   0.01267  Uiso   1.00
N12    N     0.70020   0.31350   0.75331   0.01267  Uiso   1.00
N13    N     0.58940   0.17000   0.80406   0.01267  Uiso   1.00
N14    N     0.80000   0.40080   0.83857   0.01267  Uiso   1.00
N15    N     0.68520   0.26620   0.89070   0.01267  Uiso   1.00
N16    N     0.20020   0.18650   0.25331   0.01267  Uiso   1.00
O3     O     0.99170   0.12860   0.31907   0.01267  Uiso   1.00
O4     O     0.49170   0.37140   0.81907   0.01267  Uiso   1.00
N17    N     0.98630   0.88310   0.18036   0.01267  Uiso   1.00
O5     O     0.07400   0.84860   0.16190   0.01267  Uiso   1.00
O6     O     0.95170   0.84520   0.21510   0.01267  Uiso   1.00
O7     O     0.92520   0.95060   0.16370   0.01267  Uiso   1.00
N18    N     0.49360   0.41130   0.09920   0.01267  Uiso   1.00
O8     O     0.60680   0.43730   0.11140   0.01267  Uiso   1.00
O9     O     0.43130   0.44830   0.06380   0.01267  Uiso   1.00
O10    O     0.44590   0.34880   0.12000   0.01267  Uiso   1.00
N19    N     0.51370   0.38310   0.31964   0.01267  Uiso   1.00
O11    O     0.42600   0.34860   0.33810   0.01267  Uiso   1.00
O12    O     0.54830   0.34520   0.28490   0.01267  Uiso   1.00
O13    O     0.57480   0.45060   0.33630   0.01267  Uiso   1.00
N20    N     0.00640   0.91130   0.40080   0.01267  Uiso   1.00
O14    O     0.89320   0.93730   0.38860   0.01267  Uiso   1.00
O15    O     0.06870   0.94830   0.43620   0.01267  Uiso   1.00
O16    O     0.05410   0.84880   0.38000   0.01267  Uiso   1.00
N21    N     0.01370   0.11690   0.81964   0.01267  Uiso   1.00
O17    O     0.92600   0.15140   0.83810   0.01267  Uiso   1.00
O18    O     0.04830   0.15480   0.78490   0.01267  Uiso   1.00
O19    O     0.07480   0.04940   0.83630   0.01267  Uiso   1.00
N22    N     0.50640   0.58870   0.90080   0.01267  Uiso   1.00
O20    O     0.39320   0.56270   0.88860   0.01267  Uiso   1.00
O21    O     0.56870   0.55170   0.93620   0.01267  Uiso   1.00
O22    O     0.55410   0.65120   0.88000   0.01267  Uiso   1.00
N23    N     0.48630   0.61690   0.68036   0.01267  Uiso   1.00
O23    O     0.57400   0.65140   0.66190   0.01267  Uiso   1.00
O24    O     0.45170   0.65480   0.71510   0.01267  Uiso   1.00
O25    O     0.42520   0.54940   0.66370   0.01267  Uiso   1.00
N24    N     0.99360   0.08870   0.59920   0.01267  Uiso   1.00
O26    O     0.10680   0.06270   0.61140   0.01267  Uiso   1.00
O27    O     0.93130   0.05170   0.56380   0.01267  Uiso   1.00
O28    O     0.94590   0.15120   0.62000   0.01267  Uiso   1.00
