data_image0
_cell_length_a       9.4692
_cell_length_b       9.1622
_cell_length_c       9.7063
_cell_angle_alpha    90
_cell_angle_beta     117.562
_cell_angle_gamma    90

_symmetry_space_group_name_H-M    "P 1"
_symmetry_int_tables_number       1

loop_
  _symmetry_equiv_pos_as_xyz
  'x, y, z'

loop_
  _atom_site_label
  _atom_site_occupancy
  _atom_site_fract_x
  _atom_site_fract_y
  _atom_site_fract_z
  _atom_site_thermal_displace_type
  _atom_site_B_iso_or_equiv
  _atom_site_type_symbol
  P1       1.0000 0.14504  0.65606  0.47293  Biso   1.000  P
  P2       1.0000 0.66957  0.89780  0.43683  Biso   1.000  P
  O1       1.0000 0.24850  0.72990  0.41250  Biso   1.000  O
  O2       1.0000 0.99740  0.58650  0.34660  Biso   1.000  O
  O3       1.0000 0.08880  0.77410  0.55640  Biso   1.000  O
  H1       1.0000 0.15710  0.83760  0.59440  Biso   1.000  H
  O4       1.0000 0.25230  0.54850  0.59520  Biso   1.000  O
  O5       1.0000 0.50140  0.84730  0.38640  Biso   1.000  O
  O6       1.0000 0.65580  0.03430  0.33340  Biso   1.000  O
  O7       1.0000 0.75530  0.93990  0.60840  Biso   1.000  O
  O8       1.0000 0.77060  0.77930  0.41250  Biso   1.000  O
  H2       1.0000 0.86120  0.81020  0.44090  Biso   1.000  H
  P3       1.0000 0.35496  0.65606  0.02707  Biso   1.000  P
  P4       1.0000 0.83043  0.89780  0.06317  Biso   1.000  P
  O9       1.0000 0.25150  0.72990  0.08750  Biso   1.000  O
  O10      1.0000 0.50260  0.58650  0.15340  Biso   1.000  O
  O11      1.0000 0.41120  0.77410  0.94360  Biso   1.000  O
  H3       1.0000 0.34290  0.83760  0.90560  Biso   1.000  H
  O12      1.0000 0.24770  0.54850  0.90480  Biso   1.000  O
  O13      1.0000 0.99860  0.84730  0.11360  Biso   1.000  O
  O14      1.0000 0.84420  0.03430  0.16660  Biso   1.000  O
  O15      1.0000 0.74470  0.93990  0.89160  Biso   1.000  O
  O16      1.0000 0.72940  0.77930  0.08750  Biso   1.000  O
  H4       1.0000 0.63880  0.81020  0.05910  Biso   1.000  H
  P5       1.0000 0.85496  0.34394  0.52707  Biso   1.000  P
  P6       1.0000 0.33043  0.10220  0.56317  Biso   1.000  P
  O17      1.0000 0.75150  0.27010  0.58750  Biso   1.000  O
  O18      1.0000 0.00260  0.41350  0.65340  Biso   1.000  O
  O19      1.0000 0.91120  0.22590  0.44360  Biso   1.000  O
  H5       1.0000 0.84290  0.16240  0.40560  Biso   1.000  H
  O20      1.0000 0.74770  0.45150  0.40480  Biso   1.000  O
  O21      1.0000 0.49860  0.15270  0.61360  Biso   1.000  O
  O22      1.0000 0.34420  0.96570  0.66660  Biso   1.000  O
  O23      1.0000 0.24470  0.06010  0.39160  Biso   1.000  O
  O24      1.0000 0.22940  0.22070  0.58750  Biso   1.000  O
  H6       1.0000 0.13880  0.18980  0.55910  Biso   1.000  H
  P7       1.0000 0.64504  0.34394  0.97293  Biso   1.000  P
  P8       1.0000 0.16957  0.10220  0.93683  Biso   1.000  P
  O25      1.0000 0.74850  0.27010  0.91250  Biso   1.000  O
  O26      1.0000 0.49740  0.41350  0.84660  Biso   1.000  O
  O27      1.0000 0.58880  0.22590  0.05640  Biso   1.000  O
  H7       1.0000 0.65710  0.16240  0.09440  Biso   1.000  H
  O28      1.0000 0.75230  0.45150  0.09520  Biso   1.000  O
  O29      1.0000 0.00140  0.15270  0.88640  Biso   1.000  O
  O30      1.0000 0.15580  0.96570  0.83340  Biso   1.000  O
  O31      1.0000 0.25530  0.06010  0.10840  Biso   1.000  O
  O32      1.0000 0.27060  0.22070  0.91250  Biso   1.000  O
  H8       1.0000 0.36120  0.18980  0.94090  Biso   1.000  H
  In1      1.0000 0.25000  0.88223  0.25000  Biso   1.000  In
  In2      1.0000 0.75000  0.11777  0.75000  Biso   1.000  In
  In3      1.0000 0.75000  0.60944  0.25000  Biso   1.000  In
  In4      1.0000 0.25000  0.39056  0.75000  Biso   1.000  In
  Li1      1.0000 0.25000  0.87120  0.75000  Biso   1.000  Li
  Li2      1.0000 0.75000  0.12880  0.25000  Biso   1.000  Li
