data_image0
_cell_length_a       16.3113
_cell_length_b       16.3113
_cell_length_c       16.3113
_cell_angle_alpha    90
_cell_angle_beta     90
_cell_angle_gamma    90

_symmetry_space_group_name_H-M    "P 1"
_symmetry_int_tables_number       1

loop_
  _symmetry_equiv_pos_as_xyz
  'x, y, z'

loop_
  _atom_site_label
  _atom_site_occupancy
  _atom_site_fract_x
  _atom_site_fract_y
  _atom_site_fract_z
  _atom_site_thermal_displace_type
  _atom_site_B_iso_or_equiv
  _atom_site_type_symbol
  N1       1.0000 0.68707  0.30446  0.58572  Biso   1.000  N
  C1       1.0000 0.70786  0.38182  0.60647  Biso   1.000  C
  H1       1.0000 0.90906  0.07816  0.24917  Biso   1.000  H
  N2       1.0000 0.81293  0.19554  0.58572  Biso   1.000  N
  C2       1.0000 0.79214  0.11818  0.60647  Biso   1.000  C
  H2       1.0000 0.59094  0.42184  0.24917  Biso   1.000  H
  N3       1.0000 0.81293  0.30446  0.91428  Biso   1.000  N
  C3       1.0000 0.79214  0.38182  0.89353  Biso   1.000  C
  H3       1.0000 0.59094  0.07816  0.25083  Biso   1.000  H
  N4       1.0000 0.68707  0.19554  0.91428  Biso   1.000  N
  C4       1.0000 0.70786  0.11818  0.89353  Biso   1.000  C
  H4       1.0000 0.90906  0.42184  0.25083  Biso   1.000  H
  N5       1.0000 0.58572  0.68707  0.30446  Biso   1.000  N
  C5       1.0000 0.60647  0.70786  0.38182  Biso   1.000  C
  H5       1.0000 0.24917  0.90906  0.07816  Biso   1.000  H
  N6       1.0000 0.58572  0.81293  0.19554  Biso   1.000  N
  C6       1.0000 0.60647  0.79214  0.11818  Biso   1.000  C
  H6       1.0000 0.24917  0.59094  0.42184  Biso   1.000  H
  N7       1.0000 0.91428  0.81293  0.30446  Biso   1.000  N
  C7       1.0000 0.89353  0.79214  0.38182  Biso   1.000  C
  H7       1.0000 0.25083  0.59094  0.07816  Biso   1.000  H
  N8       1.0000 0.91428  0.68707  0.19554  Biso   1.000  N
  C8       1.0000 0.89353  0.70786  0.11818  Biso   1.000  C
  H8       1.0000 0.25083  0.90906  0.42184  Biso   1.000  H
  N9       1.0000 0.30446  0.58572  0.68707  Biso   1.000  N
  C9       1.0000 0.38182  0.60647  0.70786  Biso   1.000  C
  H9       1.0000 0.07816  0.24917  0.90906  Biso   1.000  H
  N10      1.0000 0.19554  0.58572  0.81293  Biso   1.000  N
  C10      1.0000 0.11818  0.60647  0.79214  Biso   1.000  C
  H10      1.0000 0.42184  0.24917  0.59094  Biso   1.000  H
  N11      1.0000 0.30446  0.91428  0.81293  Biso   1.000  N
  C11      1.0000 0.38182  0.89353  0.79214  Biso   1.000  C
  H11      1.0000 0.07816  0.25083  0.59094  Biso   1.000  H
  N12      1.0000 0.19554  0.91428  0.68707  Biso   1.000  N
  C12      1.0000 0.11818  0.89353  0.70786  Biso   1.000  C
  H12      1.0000 0.42184  0.25083  0.90906  Biso   1.000  H
  N13      1.0000 0.80446  0.18707  0.41428  Biso   1.000  N
  C13      1.0000 0.88182  0.20786  0.39353  Biso   1.000  C
  H13      1.0000 0.57816  0.40906  0.75083  Biso   1.000  H
  N14      1.0000 0.69554  0.31293  0.41428  Biso   1.000  N
  C14      1.0000 0.61818  0.29214  0.39353  Biso   1.000  C
  H14      1.0000 0.92184  0.09094  0.75083  Biso   1.000  H
  N15      1.0000 0.80446  0.31293  0.08572  Biso   1.000  N
  C15      1.0000 0.88182  0.29214  0.10647  Biso   1.000  C
  H15      1.0000 0.57816  0.09094  0.74917  Biso   1.000  H
  N16      1.0000 0.69554  0.18707  0.08572  Biso   1.000  N
  C16      1.0000 0.61818  0.20786  0.10647  Biso   1.000  C
  H16      1.0000 0.92184  0.40906  0.74917  Biso   1.000  H
  N17      1.0000 0.18707  0.08572  0.69554  Biso   1.000  N
  C17      1.0000 0.20786  0.10647  0.61818  Biso   1.000  C
  H17      1.0000 0.40906  0.74917  0.92184  Biso   1.000  H
  N18      1.0000 0.31293  0.08572  0.80446  Biso   1.000  N
  C18      1.0000 0.29214  0.10647  0.88182  Biso   1.000  C
  H18      1.0000 0.09094  0.74917  0.57816  Biso   1.000  H
  N19      1.0000 0.31293  0.41428  0.69554  Biso   1.000  N
  C19      1.0000 0.29214  0.39353  0.61818  Biso   1.000  C
  H19      1.0000 0.09094  0.75083  0.92184  Biso   1.000  H
  N20      1.0000 0.18707  0.41428  0.80446  Biso   1.000  N
  C20      1.0000 0.20786  0.39353  0.88182  Biso   1.000  C
  H20      1.0000 0.40906  0.75083  0.57816  Biso   1.000  H
  N21      1.0000 0.08572  0.80446  0.31293  Biso   1.000  N
  C21      1.0000 0.10647  0.88182  0.29214  Biso   1.000  C
  H21      1.0000 0.74917  0.57816  0.09094  Biso   1.000  H
  N22      1.0000 0.08572  0.69554  0.18707  Biso   1.000  N
  C22      1.0000 0.10647  0.61818  0.20786  Biso   1.000  C
  H22      1.0000 0.74917  0.92184  0.40906  Biso   1.000  H
  N23      1.0000 0.41428  0.80446  0.18707  Biso   1.000  N
  C23      1.0000 0.39353  0.88182  0.20786  Biso   1.000  C
  H23      1.0000 0.75083  0.57816  0.40906  Biso   1.000  H
  N24      1.0000 0.41428  0.69554  0.31293  Biso   1.000  N
  C24      1.0000 0.39353  0.61818  0.29214  Biso   1.000  C
  H24      1.0000 0.75083  0.92184  0.09094  Biso   1.000  H
  N25      1.0000 0.31293  0.69554  0.41428  Biso   1.000  N
  C25      1.0000 0.29214  0.61818  0.39353  Biso   1.000  C
  H25      1.0000 0.09094  0.92184  0.75083  Biso   1.000  H
  N26      1.0000 0.18707  0.80446  0.41428  Biso   1.000  N
  C26      1.0000 0.20786  0.88182  0.39353  Biso   1.000  C
  H26      1.0000 0.40906  0.57816  0.75083  Biso   1.000  H
  N27      1.0000 0.18707  0.69554  0.08572  Biso   1.000  N
  C27      1.0000 0.20786  0.61818  0.10647  Biso   1.000  C
  H27      1.0000 0.40906  0.92184  0.74917  Biso   1.000  H
  N28      1.0000 0.31293  0.80446  0.08572  Biso   1.000  N
  C28      1.0000 0.29214  0.88182  0.10647  Biso   1.000  C
  H28      1.0000 0.09094  0.57816  0.74917  Biso   1.000  H
  N29      1.0000 0.41428  0.31293  0.69554  Biso   1.000  N
  C29      1.0000 0.39353  0.29214  0.61818  Biso   1.000  C
  H29      1.0000 0.75083  0.09094  0.92184  Biso   1.000  H
  N30      1.0000 0.41428  0.18707  0.80446  Biso   1.000  N
  C30      1.0000 0.39353  0.20786  0.88182  Biso   1.000  C
  H30      1.0000 0.75083  0.40906  0.57816  Biso   1.000  H
  N31      1.0000 0.08572  0.18707  0.69554  Biso   1.000  N
  C31      1.0000 0.10647  0.20786  0.61818  Biso   1.000  C
  H31      1.0000 0.74917  0.40906  0.92184  Biso   1.000  H
  N32      1.0000 0.08572  0.31293  0.80446  Biso   1.000  N
  C32      1.0000 0.10647  0.29214  0.88182  Biso   1.000  C
  H32      1.0000 0.74917  0.09094  0.57816  Biso   1.000  H
  N33      1.0000 0.69554  0.41428  0.31293  Biso   1.000  N
  C33      1.0000 0.61818  0.39353  0.29214  Biso   1.000  C
  H33      1.0000 0.92184  0.75083  0.09094  Biso   1.000  H
  N34      1.0000 0.80446  0.41428  0.18707  Biso   1.000  N
  C34      1.0000 0.88182  0.39353  0.20786  Biso   1.000  C
  H34      1.0000 0.57816  0.75083  0.40906  Biso   1.000  H
  N35      1.0000 0.69554  0.08572  0.18707  Biso   1.000  N
  C35      1.0000 0.61818  0.10647  0.20786  Biso   1.000  C
  H35      1.0000 0.92184  0.74917  0.40906  Biso   1.000  H
  N36      1.0000 0.80446  0.08572  0.31293  Biso   1.000  N
  C36      1.0000 0.88182  0.10647  0.29214  Biso   1.000  C
  H36      1.0000 0.57816  0.74917  0.09094  Biso   1.000  H
  N37      1.0000 0.19554  0.81293  0.58572  Biso   1.000  N
  C37      1.0000 0.11818  0.79214  0.60647  Biso   1.000  C
  H37      1.0000 0.42184  0.59094  0.24917  Biso   1.000  H
  N38      1.0000 0.30446  0.68707  0.58572  Biso   1.000  N
  C38      1.0000 0.38182  0.70786  0.60647  Biso   1.000  C
  H38      1.0000 0.07816  0.90906  0.24917  Biso   1.000  H
  N39      1.0000 0.19554  0.68707  0.91428  Biso   1.000  N
  C39      1.0000 0.11818  0.70786  0.89353  Biso   1.000  C
  H39      1.0000 0.42184  0.90906  0.25083  Biso   1.000  H
  N40      1.0000 0.30446  0.81293  0.91428  Biso   1.000  N
  C40      1.0000 0.38182  0.79214  0.89353  Biso   1.000  C
  H40      1.0000 0.07816  0.59094  0.25083  Biso   1.000  H
  N41      1.0000 0.81293  0.91428  0.30446  Biso   1.000  N
  C41      1.0000 0.79214  0.89353  0.38182  Biso   1.000  C
  H41      1.0000 0.59094  0.25083  0.07816  Biso   1.000  H
  N42      1.0000 0.68707  0.91428  0.19554  Biso   1.000  N
  C42      1.0000 0.70786  0.89353  0.11818  Biso   1.000  C
  H42      1.0000 0.90906  0.25083  0.42184  Biso   1.000  H
  N43      1.0000 0.68707  0.58572  0.30446  Biso   1.000  N
  C43      1.0000 0.70786  0.60647  0.38182  Biso   1.000  C
  H43      1.0000 0.90906  0.24917  0.07816  Biso   1.000  H
  N44      1.0000 0.81293  0.58572  0.19554  Biso   1.000  N
  C44      1.0000 0.79214  0.60647  0.11818  Biso   1.000  C
  H44      1.0000 0.59094  0.24917  0.42184  Biso   1.000  H
  N45      1.0000 0.91428  0.19554  0.68707  Biso   1.000  N
  C45      1.0000 0.89353  0.11818  0.70786  Biso   1.000  C
  H45      1.0000 0.25083  0.42184  0.90906  Biso   1.000  H
  N46      1.0000 0.91428  0.30446  0.81293  Biso   1.000  N
  C46      1.0000 0.89353  0.38182  0.79214  Biso   1.000  C
  H46      1.0000 0.25083  0.07816  0.59094  Biso   1.000  H
  N47      1.0000 0.58572  0.19554  0.81293  Biso   1.000  N
  C47      1.0000 0.60647  0.11818  0.79214  Biso   1.000  C
  H47      1.0000 0.24917  0.42184  0.59094  Biso   1.000  H
  N48      1.0000 0.58572  0.30446  0.68707  Biso   1.000  N
  C48      1.0000 0.60647  0.38182  0.70786  Biso   1.000  C
  H48      1.0000 0.24917  0.07816  0.90906  Biso   1.000  H
  Pd1      1.0000 0.75000  0.25000  0.50000  Biso   1.000  Pd
  Pd2      1.0000 0.75000  0.25000  0.00000  Biso   1.000  Pd
  Pd3      1.0000 0.50000  0.75000  0.25000  Biso   1.000  Pd
  Pd4      1.0000 0.00000  0.75000  0.25000  Biso   1.000  Pd
  Pd5      1.0000 0.25000  0.50000  0.75000  Biso   1.000  Pd
  Pd6      1.0000 0.25000  0.00000  0.75000  Biso   1.000  Pd
  Pd7      1.0000 0.25000  0.75000  0.50000  Biso   1.000  Pd
  Pd8      1.0000 0.25000  0.75000  0.00000  Biso   1.000  Pd
  Pd9      1.0000 0.50000  0.25000  0.75000  Biso   1.000  Pd
  Pd10     1.0000 0.00000  0.25000  0.75000  Biso   1.000  Pd
  Pd11     1.0000 0.75000  0.50000  0.25000  Biso   1.000  Pd
  Pd12     1.0000 0.75000  0.00000  0.25000  Biso   1.000  Pd
  C49      1.0000 0.62599  0.26577  0.62599  Biso   1.000  C
  C50      1.0000 0.66756  0.42051  0.66756  Biso   1.000  C
  O1       1.0000 0.60675  0.19414  0.60675  Biso   1.000  O
  F1       1.0000 0.68835  0.49787  0.68835  Biso   1.000  F
  C51      1.0000 0.87401  0.23423  0.62599  Biso   1.000  C
  C52      1.0000 0.83244  0.07949  0.66756  Biso   1.000  C
  O2       1.0000 0.89325  0.30586  0.60675  Biso   1.000  O
  F2       1.0000 0.81165  0.00213  0.68835  Biso   1.000  F
  C53      1.0000 0.87401  0.26577  0.87401  Biso   1.000  C
  C54      1.0000 0.83244  0.42051  0.83244  Biso   1.000  C
  O3       1.0000 0.89325  0.19414  0.89325  Biso   1.000  O
  F3       1.0000 0.81165  0.49787  0.81165  Biso   1.000  F
  C55      1.0000 0.62599  0.23423  0.87401  Biso   1.000  C
  C56      1.0000 0.66756  0.07949  0.83244  Biso   1.000  C
  O4       1.0000 0.60675  0.30586  0.89325  Biso   1.000  O
  F4       1.0000 0.68835  0.00213  0.81165  Biso   1.000  F
  C57      1.0000 0.62599  0.62599  0.26577  Biso   1.000  C
  C58      1.0000 0.66756  0.66756  0.42051  Biso   1.000  C
  O5       1.0000 0.60675  0.60675  0.19414  Biso   1.000  O
  F5       1.0000 0.68835  0.68835  0.49787  Biso   1.000  F
  C59      1.0000 0.62599  0.87401  0.23423  Biso   1.000  C
  C60      1.0000 0.66756  0.83244  0.07949  Biso   1.000  C
  O6       1.0000 0.60675  0.89325  0.30586  Biso   1.000  O
  F6       1.0000 0.68835  0.81165  0.00213  Biso   1.000  F
  C61      1.0000 0.87401  0.87401  0.26577  Biso   1.000  C
  C62      1.0000 0.83244  0.83244  0.42051  Biso   1.000  C
  O7       1.0000 0.89325  0.89325  0.19414  Biso   1.000  O
  F7       1.0000 0.81165  0.81165  0.49787  Biso   1.000  F
  C63      1.0000 0.87401  0.62599  0.23423  Biso   1.000  C
  C64      1.0000 0.83244  0.66756  0.07949  Biso   1.000  C
  O8       1.0000 0.89325  0.60675  0.30586  Biso   1.000  O
  F8       1.0000 0.81165  0.68835  0.00213  Biso   1.000  F
  C65      1.0000 0.26577  0.62599  0.62599  Biso   1.000  C
  C66      1.0000 0.42051  0.66756  0.66756  Biso   1.000  C
  O9       1.0000 0.19414  0.60675  0.60675  Biso   1.000  O
  F9       1.0000 0.49787  0.68835  0.68835  Biso   1.000  F
  C67      1.0000 0.23423  0.62599  0.87401  Biso   1.000  C
  C68      1.0000 0.07949  0.66756  0.83244  Biso   1.000  C
  O10      1.0000 0.30586  0.60675  0.89325  Biso   1.000  O
  F10      1.0000 0.00213  0.68835  0.81165  Biso   1.000  F
  C69      1.0000 0.26577  0.87401  0.87401  Biso   1.000  C
  C70      1.0000 0.42051  0.83244  0.83244  Biso   1.000  C
  O11      1.0000 0.19414  0.89325  0.89325  Biso   1.000  O
  F11      1.0000 0.49787  0.81165  0.81165  Biso   1.000  F
  C71      1.0000 0.23423  0.87401  0.62599  Biso   1.000  C
  C72      1.0000 0.07949  0.83244  0.66756  Biso   1.000  C
  O12      1.0000 0.30586  0.89325  0.60675  Biso   1.000  O
  F12      1.0000 0.00213  0.81165  0.68835  Biso   1.000  F
  C73      1.0000 0.76577  0.12599  0.37401  Biso   1.000  C
  C74      1.0000 0.92051  0.16756  0.33244  Biso   1.000  C
  O13      1.0000 0.69414  0.10675  0.39325  Biso   1.000  O
  F13      1.0000 0.99787  0.18835  0.31165  Biso   1.000  F
  C75      1.0000 0.73423  0.37401  0.37401  Biso   1.000  C
  C76      1.0000 0.57949  0.33244  0.33244  Biso   1.000  C
  O14      1.0000 0.80586  0.39325  0.39325  Biso   1.000  O
  F14      1.0000 0.50213  0.31165  0.31165  Biso   1.000  F
  C77      1.0000 0.76577  0.37401  0.12599  Biso   1.000  C
  C78      1.0000 0.92051  0.33244  0.16756  Biso   1.000  C
  O15      1.0000 0.69414  0.39325  0.10675  Biso   1.000  O
  F15      1.0000 0.99787  0.31165  0.18835  Biso   1.000  F
  C79      1.0000 0.73423  0.12599  0.12599  Biso   1.000  C
  C80      1.0000 0.57949  0.16756  0.16756  Biso   1.000  C
  O16      1.0000 0.80586  0.10675  0.10675  Biso   1.000  O
  F16      1.0000 0.50213  0.18835  0.18835  Biso   1.000  F
  C81      1.0000 0.12599  0.12599  0.73423  Biso   1.000  C
  C82      1.0000 0.16756  0.16756  0.57949  Biso   1.000  C
  O17      1.0000 0.10675  0.10675  0.80586  Biso   1.000  O
  F17      1.0000 0.18835  0.18835  0.50213  Biso   1.000  F
  C83      1.0000 0.37401  0.12599  0.76577  Biso   1.000  C
  C84      1.0000 0.33244  0.16756  0.92051  Biso   1.000  C
  O18      1.0000 0.39325  0.10675  0.69414  Biso   1.000  O
  F18      1.0000 0.31165  0.18835  0.99787  Biso   1.000  F
  C85      1.0000 0.37401  0.37401  0.73423  Biso   1.000  C
  C86      1.0000 0.33244  0.33244  0.57949  Biso   1.000  C
  O19      1.0000 0.39325  0.39325  0.80586  Biso   1.000  O
  F19      1.0000 0.31165  0.31165  0.50213  Biso   1.000  F
  C87      1.0000 0.12599  0.37401  0.76577  Biso   1.000  C
  C88      1.0000 0.16756  0.33244  0.92051  Biso   1.000  C
  O20      1.0000 0.10675  0.39325  0.69414  Biso   1.000  O
  F20      1.0000 0.18835  0.31165  0.99787  Biso   1.000  F
  C89      1.0000 0.12599  0.76577  0.37401  Biso   1.000  C
  C90      1.0000 0.16756  0.92051  0.33244  Biso   1.000  C
  O21      1.0000 0.10675  0.69414  0.39325  Biso   1.000  O
  F21      1.0000 0.18835  0.99787  0.31165  Biso   1.000  F
  C91      1.0000 0.12599  0.73423  0.12599  Biso   1.000  C
  C92      1.0000 0.16756  0.57949  0.16756  Biso   1.000  C
  O22      1.0000 0.10675  0.80586  0.10675  Biso   1.000  O
  F22      1.0000 0.18835  0.50213  0.18835  Biso   1.000  F
  C93      1.0000 0.37401  0.76577  0.12599  Biso   1.000  C
  C94      1.0000 0.33244  0.92051  0.16756  Biso   1.000  C
  O23      1.0000 0.39325  0.69414  0.10675  Biso   1.000  O
  F23      1.0000 0.31165  0.99787  0.18835  Biso   1.000  F
  C95      1.0000 0.37401  0.73423  0.37401  Biso   1.000  C
  C96      1.0000 0.33244  0.57949  0.33244  Biso   1.000  C
  O24      1.0000 0.39325  0.80586  0.39325  Biso   1.000  O
  F24      1.0000 0.31165  0.50213  0.31165  Biso   1.000  F
