data_image0
_cell_length_a       18.6401
_cell_length_b       18.6401
_cell_length_c       39.748
_cell_angle_alpha    90
_cell_angle_beta     90
_cell_angle_gamma    120

_symmetry_space_group_name_H-M    "P 1"
_symmetry_int_tables_number       1

loop_
  _symmetry_equiv_pos_as_xyz
  'x, y, z'

loop_
  _atom_site_label
  _atom_site_occupancy
  _atom_site_fract_x
  _atom_site_fract_y
  _atom_site_fract_z
  _atom_site_thermal_displace_type
  _atom_site_B_iso_or_equiv
  _atom_site_type_symbol
  O1       1.0000 0.51856  0.89021  0.00301  Biso   1.000  O
  O2       1.0000 0.55919  0.96967  0.95706  Biso   1.000  O
  C1       1.0000 0.54907  0.90821  0.97418  Biso   1.000  C
  C2       1.0000 0.57560  0.85279  0.95832  Biso   1.000  C
  C3       1.0000 0.61849  0.87344  0.92776  Biso   1.000  C
  H1       1.0000 0.63190  0.92330  0.91740  Biso   1.000  H
  H2       1.0000 0.90180  0.90880  0.90770  Biso   1.000  H
  O3       1.0000 0.18523  0.22354  0.33634  Biso   1.000  O
  O4       1.0000 0.22586  0.30300  0.29039  Biso   1.000  O
  C4       1.0000 0.21574  0.24154  0.30751  Biso   1.000  C
  C5       1.0000 0.24227  0.18612  0.29165  Biso   1.000  C
  C6       1.0000 0.28516  0.20677  0.26109  Biso   1.000  C
  H3       1.0000 0.29857  0.25663  0.25073  Biso   1.000  H
  H4       1.0000 0.56847  0.24213  0.24103  Biso   1.000  H
  O5       1.0000 0.85189  0.55688  0.66968  Biso   1.000  O
  O6       1.0000 0.89252  0.63634  0.62373  Biso   1.000  O
  C7       1.0000 0.88240  0.57488  0.64085  Biso   1.000  C
  C8       1.0000 0.90893  0.51946  0.62499  Biso   1.000  C
  C9       1.0000 0.95182  0.54011  0.59443  Biso   1.000  C
  H5       1.0000 0.96523  0.58997  0.58407  Biso   1.000  H
  H6       1.0000 0.23513  0.57547  0.57437  Biso   1.000  H
  O7       1.0000 0.10979  0.62835  0.00301  Biso   1.000  O
  O8       1.0000 0.03033  0.58952  0.95706  Biso   1.000  O
  C10      1.0000 0.09179  0.64086  0.97418  Biso   1.000  C
  C11      1.0000 0.14721  0.72281  0.95832  Biso   1.000  C
  C12      1.0000 0.12656  0.74505  0.92776  Biso   1.000  C
  H7       1.0000 0.07670  0.70860  0.91740  Biso   1.000  H
  H8       1.0000 0.09120  0.99300  0.90770  Biso   1.000  H
  O9       1.0000 0.77646  0.96168  0.33634  Biso   1.000  O
  O10      1.0000 0.69700  0.92285  0.29039  Biso   1.000  O
  C13      1.0000 0.75846  0.97419  0.30751  Biso   1.000  C
  C14      1.0000 0.81388  0.05614  0.29165  Biso   1.000  C
  C15      1.0000 0.79323  0.07838  0.26109  Biso   1.000  C
  H9       1.0000 0.74337  0.04193  0.25073  Biso   1.000  H
  H10      1.0000 0.75787  0.32633  0.24103  Biso   1.000  H
  O11      1.0000 0.44312  0.29502  0.66968  Biso   1.000  O
  O12      1.0000 0.36366  0.25619  0.62373  Biso   1.000  O
  C16      1.0000 0.42512  0.30753  0.64085  Biso   1.000  C
  C17      1.0000 0.48054  0.38948  0.62499  Biso   1.000  C
  C18      1.0000 0.45989  0.41172  0.59443  Biso   1.000  C
  H11      1.0000 0.41003  0.37527  0.58407  Biso   1.000  H
  H12      1.0000 0.42453  0.65967  0.57437  Biso   1.000  H
  O13      1.0000 0.37165  0.48144  0.00301  Biso   1.000  O
  O14      1.0000 0.41048  0.44081  0.95706  Biso   1.000  O
  C19      1.0000 0.35914  0.45093  0.97418  Biso   1.000  C
  C20      1.0000 0.27719  0.42440  0.95832  Biso   1.000  C
  C21      1.0000 0.25495  0.38151  0.92776  Biso   1.000  C
  H13      1.0000 0.29140  0.36810  0.91740  Biso   1.000  H
  H14      1.0000 0.00700  0.09820  0.90770  Biso   1.000  H
  O15      1.0000 0.03832  0.81477  0.33634  Biso   1.000  O
  O16      1.0000 0.07715  0.77414  0.29039  Biso   1.000  O
  C22      1.0000 0.02581  0.78426  0.30751  Biso   1.000  C
  C23      1.0000 0.94386  0.75773  0.29165  Biso   1.000  C
  C24      1.0000 0.92162  0.71484  0.26109  Biso   1.000  C
  H15      1.0000 0.95807  0.70143  0.25073  Biso   1.000  H
  H16      1.0000 0.67367  0.43153  0.24103  Biso   1.000  H
  O17      1.0000 0.70498  0.14811  0.66968  Biso   1.000  O
  O18      1.0000 0.74381  0.10748  0.62373  Biso   1.000  O
  C25      1.0000 0.69247  0.11760  0.64085  Biso   1.000  C
  C26      1.0000 0.61052  0.09107  0.62499  Biso   1.000  C
  C27      1.0000 0.58828  0.04818  0.59443  Biso   1.000  C
  H17      1.0000 0.62473  0.03477  0.58407  Biso   1.000  H
  H18      1.0000 0.34033  0.76487  0.57437  Biso   1.000  H
  O19      1.0000 0.89021  0.51856  0.99699  Biso   1.000  O
  O20      1.0000 0.96967  0.55919  0.04294  Biso   1.000  O
  C28      1.0000 0.90821  0.54907  0.02582  Biso   1.000  C
  C29      1.0000 0.85279  0.57560  0.04168  Biso   1.000  C
  C30      1.0000 0.87344  0.61849  0.07224  Biso   1.000  C
  H19      1.0000 0.92330  0.63190  0.08260  Biso   1.000  H
  H20      1.0000 0.90880  0.90180  0.09230  Biso   1.000  H
  O21      1.0000 0.55688  0.85189  0.33032  Biso   1.000  O
  O22      1.0000 0.63634  0.89252  0.37627  Biso   1.000  O
  C31      1.0000 0.57488  0.88240  0.35915  Biso   1.000  C
  C32      1.0000 0.51946  0.90893  0.37501  Biso   1.000  C
  C33      1.0000 0.54011  0.95182  0.40557  Biso   1.000  C
  H21      1.0000 0.58997  0.96523  0.41593  Biso   1.000  H
  H22      1.0000 0.57547  0.23513  0.42563  Biso   1.000  H
  O23      1.0000 0.22354  0.18523  0.66366  Biso   1.000  O
  O24      1.0000 0.30300  0.22586  0.70961  Biso   1.000  O
  C34      1.0000 0.24154  0.21574  0.69249  Biso   1.000  C
  C35      1.0000 0.18612  0.24227  0.70835  Biso   1.000  C
  C36      1.0000 0.20677  0.28516  0.73891  Biso   1.000  C
  H23      1.0000 0.25663  0.29857  0.74927  Biso   1.000  H
  H24      1.0000 0.24213  0.56847  0.75897  Biso   1.000  H
  O25      1.0000 0.62835  0.10979  0.99699  Biso   1.000  O
  O26      1.0000 0.58952  0.03033  0.04294  Biso   1.000  O
  C37      1.0000 0.64086  0.09179  0.02582  Biso   1.000  C
  C38      1.0000 0.72281  0.14721  0.04168  Biso   1.000  C
  C39      1.0000 0.74505  0.12656  0.07224  Biso   1.000  C
  H25      1.0000 0.70860  0.07670  0.08260  Biso   1.000  H
  H26      1.0000 0.99300  0.09120  0.09230  Biso   1.000  H
  O27      1.0000 0.29502  0.44312  0.33032  Biso   1.000  O
  O28      1.0000 0.25619  0.36366  0.37627  Biso   1.000  O
  C40      1.0000 0.30753  0.42512  0.35915  Biso   1.000  C
  C41      1.0000 0.38948  0.48054  0.37501  Biso   1.000  C
  C42      1.0000 0.41172  0.45989  0.40557  Biso   1.000  C
  H27      1.0000 0.37527  0.41003  0.41593  Biso   1.000  H
  H28      1.0000 0.65967  0.42453  0.42563  Biso   1.000  H
  O29      1.0000 0.96168  0.77646  0.66366  Biso   1.000  O
  O30      1.0000 0.92285  0.69700  0.70961  Biso   1.000  O
  C43      1.0000 0.97419  0.75846  0.69249  Biso   1.000  C
  C44      1.0000 0.05614  0.81388  0.70835  Biso   1.000  C
  C45      1.0000 0.07838  0.79323  0.73891  Biso   1.000  C
  H29      1.0000 0.04193  0.74337  0.74927  Biso   1.000  H
  H30      1.0000 0.32633  0.75787  0.75897  Biso   1.000  H
  O31      1.0000 0.48144  0.37165  0.99699  Biso   1.000  O
  O32      1.0000 0.44081  0.41048  0.04294  Biso   1.000  O
  C46      1.0000 0.45093  0.35914  0.02582  Biso   1.000  C
  C47      1.0000 0.42440  0.27719  0.04168  Biso   1.000  C
  C48      1.0000 0.38151  0.25495  0.07224  Biso   1.000  C
  H31      1.0000 0.36810  0.29140  0.08260  Biso   1.000  H
  H32      1.0000 0.09820  0.00700  0.09230  Biso   1.000  H
  O33      1.0000 0.14811  0.70498  0.33032  Biso   1.000  O
  O34      1.0000 0.10748  0.74381  0.37627  Biso   1.000  O
  C49      1.0000 0.11760  0.69247  0.35915  Biso   1.000  C
  C50      1.0000 0.09107  0.61052  0.37501  Biso   1.000  C
  C51      1.0000 0.04818  0.58828  0.40557  Biso   1.000  C
  H33      1.0000 0.03477  0.62473  0.41593  Biso   1.000  H
  H34      1.0000 0.76487  0.34033  0.42563  Biso   1.000  H
  O35      1.0000 0.81477  0.03832  0.66366  Biso   1.000  O
  O36      1.0000 0.77414  0.07715  0.70961  Biso   1.000  O
  C52      1.0000 0.78426  0.02581  0.69249  Biso   1.000  C
  C53      1.0000 0.75773  0.94386  0.70835  Biso   1.000  C
  C54      1.0000 0.71484  0.92162  0.73891  Biso   1.000  C
  H35      1.0000 0.70143  0.95807  0.74927  Biso   1.000  H
  H36      1.0000 0.43153  0.67367  0.75897  Biso   1.000  H
  O37      1.0000 0.48144  0.10979  0.99699  Biso   1.000  O
  O38      1.0000 0.44081  0.03033  0.04294  Biso   1.000  O
  C55      1.0000 0.45093  0.09179  0.02582  Biso   1.000  C
  C56      1.0000 0.42440  0.14721  0.04168  Biso   1.000  C
  C57      1.0000 0.38151  0.12656  0.07224  Biso   1.000  C
  H37      1.0000 0.36810  0.07670  0.08260  Biso   1.000  H
  H38      1.0000 0.09820  0.09120  0.09230  Biso   1.000  H
  O39      1.0000 0.14811  0.44312  0.33032  Biso   1.000  O
  O40      1.0000 0.10748  0.36366  0.37627  Biso   1.000  O
  C58      1.0000 0.11760  0.42512  0.35915  Biso   1.000  C
  C59      1.0000 0.09107  0.48054  0.37501  Biso   1.000  C
  C60      1.0000 0.04818  0.45989  0.40557  Biso   1.000  C
  H39      1.0000 0.03477  0.41003  0.41593  Biso   1.000  H
  H40      1.0000 0.76487  0.42453  0.42563  Biso   1.000  H
  O41      1.0000 0.81477  0.77646  0.66366  Biso   1.000  O
  O42      1.0000 0.77414  0.69700  0.70961  Biso   1.000  O
  C61      1.0000 0.78426  0.75846  0.69249  Biso   1.000  C
  C62      1.0000 0.75773  0.81388  0.70835  Biso   1.000  C
  C63      1.0000 0.71484  0.79323  0.73891  Biso   1.000  C
  H41      1.0000 0.70143  0.74337  0.74927  Biso   1.000  H
  H42      1.0000 0.43153  0.75787  0.75897  Biso   1.000  H
  O43      1.0000 0.89021  0.37165  0.99699  Biso   1.000  O
  O44      1.0000 0.96967  0.41048  0.04294  Biso   1.000  O
  C64      1.0000 0.90821  0.35914  0.02582  Biso   1.000  C
  C65      1.0000 0.85279  0.27719  0.04168  Biso   1.000  C
  C66      1.0000 0.87344  0.25495  0.07224  Biso   1.000  C
  H43      1.0000 0.92330  0.29140  0.08260  Biso   1.000  H
  H44      1.0000 0.90880  0.00700  0.09230  Biso   1.000  H
  O45      1.0000 0.55688  0.70498  0.33032  Biso   1.000  O
  O46      1.0000 0.63634  0.74381  0.37627  Biso   1.000  O
  C67      1.0000 0.57488  0.69247  0.35915  Biso   1.000  C
  C68      1.0000 0.51946  0.61052  0.37501  Biso   1.000  C
  C69      1.0000 0.54011  0.58828  0.40557  Biso   1.000  C
  H45      1.0000 0.58997  0.62473  0.41593  Biso   1.000  H
  H46      1.0000 0.57547  0.34033  0.42563  Biso   1.000  H
  O47      1.0000 0.22354  0.03832  0.66366  Biso   1.000  O
  O48      1.0000 0.30300  0.07715  0.70961  Biso   1.000  O
  C70      1.0000 0.24154  0.02581  0.69249  Biso   1.000  C
  C71      1.0000 0.18612  0.94386  0.70835  Biso   1.000  C
  C72      1.0000 0.20677  0.92162  0.73891  Biso   1.000  C
  H47      1.0000 0.25663  0.95807  0.74927  Biso   1.000  H
  H48      1.0000 0.24213  0.67367  0.75897  Biso   1.000  H
  O49      1.0000 0.62835  0.51856  0.99699  Biso   1.000  O
  O50      1.0000 0.58952  0.55919  0.04294  Biso   1.000  O
  C73      1.0000 0.64086  0.54907  0.02582  Biso   1.000  C
  C74      1.0000 0.72281  0.57560  0.04168  Biso   1.000  C
  C75      1.0000 0.74505  0.61849  0.07224  Biso   1.000  C
  H49      1.0000 0.70860  0.63190  0.08260  Biso   1.000  H
  H50      1.0000 0.99300  0.90180  0.09230  Biso   1.000  H
  O51      1.0000 0.29502  0.85189  0.33032  Biso   1.000  O
  O52      1.0000 0.25619  0.89252  0.37627  Biso   1.000  O
  C76      1.0000 0.30753  0.88240  0.35915  Biso   1.000  C
  C77      1.0000 0.38948  0.90893  0.37501  Biso   1.000  C
  C78      1.0000 0.41172  0.95182  0.40557  Biso   1.000  C
  H51      1.0000 0.37527  0.96523  0.41593  Biso   1.000  H
  H52      1.0000 0.65967  0.23513  0.42563  Biso   1.000  H
  O53      1.0000 0.96168  0.18523  0.66366  Biso   1.000  O
  O54      1.0000 0.92285  0.22586  0.70961  Biso   1.000  O
  C79      1.0000 0.97419  0.21574  0.69249  Biso   1.000  C
  C80      1.0000 0.05614  0.24227  0.70835  Biso   1.000  C
  C81      1.0000 0.07838  0.28516  0.73891  Biso   1.000  C
  H53      1.0000 0.04193  0.29857  0.74927  Biso   1.000  H
  H54      1.0000 0.32633  0.56847  0.75897  Biso   1.000  H
  O55      1.0000 0.10979  0.48144  0.00301  Biso   1.000  O
  O56      1.0000 0.03033  0.44081  0.95706  Biso   1.000  O
  C82      1.0000 0.09179  0.45093  0.97418  Biso   1.000  C
  C83      1.0000 0.14721  0.42440  0.95832  Biso   1.000  C
  C84      1.0000 0.12656  0.38151  0.92776  Biso   1.000  C
  H55      1.0000 0.07670  0.36810  0.91740  Biso   1.000  H
  H56      1.0000 0.09120  0.09820  0.90770  Biso   1.000  H
  O57      1.0000 0.77646  0.81477  0.33634  Biso   1.000  O
  O58      1.0000 0.69700  0.77414  0.29039  Biso   1.000  O
  C85      1.0000 0.75846  0.78426  0.30751  Biso   1.000  C
  C86      1.0000 0.81388  0.75773  0.29165  Biso   1.000  C
  C87      1.0000 0.79323  0.71484  0.26109  Biso   1.000  C
  H57      1.0000 0.74337  0.70143  0.25073  Biso   1.000  H
  H58      1.0000 0.75787  0.43153  0.24103  Biso   1.000  H
  O59      1.0000 0.44312  0.14811  0.66968  Biso   1.000  O
  O60      1.0000 0.36366  0.10748  0.62373  Biso   1.000  O
  C88      1.0000 0.42512  0.11760  0.64085  Biso   1.000  C
  C89      1.0000 0.48054  0.09107  0.62499  Biso   1.000  C
  C90      1.0000 0.45989  0.04818  0.59443  Biso   1.000  C
  H59      1.0000 0.41003  0.03477  0.58407  Biso   1.000  H
  H60      1.0000 0.42453  0.76487  0.57437  Biso   1.000  H
  O61      1.0000 0.37165  0.89021  0.00301  Biso   1.000  O
  O62      1.0000 0.41048  0.96967  0.95706  Biso   1.000  O
  C91      1.0000 0.35914  0.90821  0.97418  Biso   1.000  C
  C92      1.0000 0.27719  0.85279  0.95832  Biso   1.000  C
  C93      1.0000 0.25495  0.87344  0.92776  Biso   1.000  C
  H61      1.0000 0.29140  0.92330  0.91740  Biso   1.000  H
  H62      1.0000 0.00700  0.90880  0.90770  Biso   1.000  H
  O63      1.0000 0.03832  0.22354  0.33634  Biso   1.000  O
  O64      1.0000 0.07715  0.30300  0.29039  Biso   1.000  O
  C94      1.0000 0.02581  0.24154  0.30751  Biso   1.000  C
  C95      1.0000 0.94386  0.18612  0.29165  Biso   1.000  C
  C96      1.0000 0.92162  0.20677  0.26109  Biso   1.000  C
  H63      1.0000 0.95807  0.25663  0.25073  Biso   1.000  H
  H64      1.0000 0.67367  0.24213  0.24103  Biso   1.000  H
  O65      1.0000 0.70498  0.55688  0.66968  Biso   1.000  O
  O66      1.0000 0.74381  0.63634  0.62373  Biso   1.000  O
  C97      1.0000 0.69247  0.57488  0.64085  Biso   1.000  C
  C98      1.0000 0.61052  0.51946  0.62499  Biso   1.000  C
  C99      1.0000 0.58828  0.54011  0.59443  Biso   1.000  C
  H65      1.0000 0.62473  0.58997  0.58407  Biso   1.000  H
  H66      1.0000 0.34033  0.57547  0.57437  Biso   1.000  H
  O67      1.0000 0.51856  0.62835  0.00301  Biso   1.000  O
  O68      1.0000 0.55919  0.58952  0.95706  Biso   1.000  O
  C100     1.0000 0.54907  0.64086  0.97418  Biso   1.000  C
  C101     1.0000 0.57560  0.72281  0.95832  Biso   1.000  C
  C102     1.0000 0.61849  0.74505  0.92776  Biso   1.000  C
  H67      1.0000 0.63190  0.70860  0.91740  Biso   1.000  H
  H68      1.0000 0.90180  0.99300  0.90770  Biso   1.000  H
  O69      1.0000 0.18523  0.96168  0.33634  Biso   1.000  O
  O70      1.0000 0.22586  0.92285  0.29039  Biso   1.000  O
  C103     1.0000 0.21574  0.97419  0.30751  Biso   1.000  C
  C104     1.0000 0.24227  0.05614  0.29165  Biso   1.000  C
  C105     1.0000 0.28516  0.07838  0.26109  Biso   1.000  C
  H69      1.0000 0.29857  0.04193  0.25073  Biso   1.000  H
  H70      1.0000 0.56847  0.32633  0.24103  Biso   1.000  H
  O71      1.0000 0.85189  0.29502  0.66968  Biso   1.000  O
  O72      1.0000 0.89252  0.25619  0.62373  Biso   1.000  O
  C106     1.0000 0.88240  0.30753  0.64085  Biso   1.000  C
  C107     1.0000 0.90893  0.38948  0.62499  Biso   1.000  C
  C108     1.0000 0.95182  0.41172  0.59443  Biso   1.000  C
  H71      1.0000 0.96523  0.37527  0.58407  Biso   1.000  H
  H72      1.0000 0.23513  0.65967  0.57437  Biso   1.000  H
  Cu1      1.0000 0.47644  0.95287  0.02739  Biso   1.000  Cu
  Cu2      1.0000 0.14310  0.28620  0.36072  Biso   1.000  Cu
  Cu3      1.0000 0.80977  0.61954  0.69405  Biso   1.000  Cu
  Cu4      1.0000 0.04713  0.52356  0.02739  Biso   1.000  Cu
  Cu5      1.0000 0.71380  0.85690  0.36072  Biso   1.000  Cu
  Cu6      1.0000 0.38046  0.19023  0.69405  Biso   1.000  Cu
  Cu7      1.0000 0.47644  0.52356  0.02739  Biso   1.000  Cu
  Cu8      1.0000 0.14310  0.85690  0.36072  Biso   1.000  Cu
  Cu9      1.0000 0.80977  0.19023  0.69405  Biso   1.000  Cu
  Cu10     1.0000 0.95287  0.47644  0.97261  Biso   1.000  Cu
  Cu11     1.0000 0.61954  0.80977  0.30595  Biso   1.000  Cu
  Cu12     1.0000 0.28620  0.14310  0.63928  Biso   1.000  Cu
  Cu13     1.0000 0.52356  0.04713  0.97261  Biso   1.000  Cu
  Cu14     1.0000 0.19023  0.38046  0.30595  Biso   1.000  Cu
  Cu15     1.0000 0.85690  0.71380  0.63928  Biso   1.000  Cu
  Cu16     1.0000 0.52356  0.47644  0.97261  Biso   1.000  Cu
  Cu17     1.0000 0.19023  0.80977  0.30595  Biso   1.000  Cu
  Cu18     1.0000 0.85690  0.14310  0.63928  Biso   1.000  Cu
  O73      1.0000 0.80900  0.90450  0.91000  Biso   1.000  O
  C109     1.0000 0.55560  0.77780  0.97377  Biso   1.000  C
  H73      1.0000 0.52890  0.76445  0.99450  Biso   1.000  H
  C110     1.0000 0.64130  0.82065  0.91267  Biso   1.000  C
  C111     1.0000 0.55710  0.77855  0.84676  Biso   1.000  C
  H74      1.0000 0.52620  0.76310  0.86650  Biso   1.000  H
  C112     1.0000 0.64560  0.82280  0.84891  Biso   1.000  C
  C113     1.0000 0.68690  0.84345  0.87990  Biso   1.000  C
  C114     1.0000 0.77060  0.88530  0.87973  Biso   1.000  C
  C115     1.0000 0.81550  0.90775  0.84923  Biso   1.000  C
  H75      1.0000 0.87310  0.93655  0.84970  Biso   1.000  H
  C116     1.0000 0.86920  0.93460  0.91830  Biso   1.000  C
  H76      1.0000 0.88430  0.94215  0.94110  Biso   1.000  H
  O74      1.0000 0.47567  0.23783  0.24333  Biso   1.000  O
  C117     1.0000 0.22227  0.11113  0.30710  Biso   1.000  C
  H77      1.0000 0.19557  0.09778  0.32783  Biso   1.000  H
  C118     1.0000 0.30797  0.15398  0.24600  Biso   1.000  C
  C119     1.0000 0.22377  0.11188  0.18009  Biso   1.000  C
  H78      1.0000 0.19287  0.09643  0.19983  Biso   1.000  H
  C120     1.0000 0.31227  0.15613  0.18224  Biso   1.000  C
  C121     1.0000 0.35357  0.17678  0.21323  Biso   1.000  C
  C122     1.0000 0.43727  0.21863  0.21306  Biso   1.000  C
  C123     1.0000 0.48217  0.24108  0.18256  Biso   1.000  C
  H79      1.0000 0.53977  0.26988  0.18303  Biso   1.000  H
  C124     1.0000 0.53587  0.26793  0.25163  Biso   1.000  C
  H80      1.0000 0.55097  0.27548  0.27443  Biso   1.000  H
  O75      1.0000 0.14233  0.57117  0.57667  Biso   1.000  O
  C125     1.0000 0.88893  0.44447  0.64044  Biso   1.000  C
  H81      1.0000 0.86223  0.43112  0.66117  Biso   1.000  H
  C126     1.0000 0.97463  0.48732  0.57934  Biso   1.000  C
  C127     1.0000 0.89043  0.44522  0.51343  Biso   1.000  C
  H82      1.0000 0.85953  0.42977  0.53317  Biso   1.000  H
  C128     1.0000 0.97893  0.48947  0.51558  Biso   1.000  C
  C129     1.0000 0.02023  0.51012  0.54657  Biso   1.000  C
  C130     1.0000 0.10393  0.55197  0.54640  Biso   1.000  C
  C131     1.0000 0.14883  0.57442  0.51590  Biso   1.000  C
  H83      1.0000 0.20643  0.60322  0.51637  Biso   1.000  H
  C132     1.0000 0.20253  0.60127  0.58497  Biso   1.000  C
  H84      1.0000 0.21763  0.60882  0.60777  Biso   1.000  H
  O76      1.0000 0.09550  0.90450  0.91000  Biso   1.000  O
  C133     1.0000 0.22220  0.77780  0.97377  Biso   1.000  C
  H85      1.0000 0.23555  0.76445  0.99450  Biso   1.000  H
  C134     1.0000 0.17935  0.82065  0.91267  Biso   1.000  C
  C135     1.0000 0.22145  0.77855  0.84676  Biso   1.000  C
  H86      1.0000 0.23690  0.76310  0.86650  Biso   1.000  H
  C136     1.0000 0.17720  0.82280  0.84891  Biso   1.000  C
  C137     1.0000 0.15655  0.84345  0.87990  Biso   1.000  C
  C138     1.0000 0.11470  0.88530  0.87973  Biso   1.000  C
  C139     1.0000 0.09225  0.90775  0.84923  Biso   1.000  C
  H87      1.0000 0.06345  0.93655  0.84970  Biso   1.000  H
  C140     1.0000 0.06540  0.93460  0.91830  Biso   1.000  C
  H88      1.0000 0.05785  0.94215  0.94110  Biso   1.000  H
  O77      1.0000 0.76217  0.23783  0.24333  Biso   1.000  O
  C141     1.0000 0.88887  0.11113  0.30710  Biso   1.000  C
  H89      1.0000 0.90222  0.09778  0.32783  Biso   1.000  H
  C142     1.0000 0.84602  0.15398  0.24600  Biso   1.000  C
  C143     1.0000 0.88812  0.11188  0.18009  Biso   1.000  C
  H90      1.0000 0.90357  0.09643  0.19983  Biso   1.000  H
  C144     1.0000 0.84387  0.15613  0.18224  Biso   1.000  C
  C145     1.0000 0.82322  0.17678  0.21323  Biso   1.000  C
  C146     1.0000 0.78137  0.21863  0.21306  Biso   1.000  C
  C147     1.0000 0.75892  0.24108  0.18256  Biso   1.000  C
  H91      1.0000 0.73012  0.26988  0.18303  Biso   1.000  H
  C148     1.0000 0.73207  0.26793  0.25163  Biso   1.000  C
  H92      1.0000 0.72452  0.27548  0.27443  Biso   1.000  H
  O78      1.0000 0.42883  0.57117  0.57667  Biso   1.000  O
  C149     1.0000 0.55553  0.44447  0.64044  Biso   1.000  C
  H93      1.0000 0.56888  0.43112  0.66117  Biso   1.000  H
  C150     1.0000 0.51268  0.48732  0.57934  Biso   1.000  C
  C151     1.0000 0.55478  0.44522  0.51343  Biso   1.000  C
  H94      1.0000 0.57023  0.42977  0.53317  Biso   1.000  H
  C152     1.0000 0.51053  0.48947  0.51558  Biso   1.000  C
  C153     1.0000 0.48988  0.51012  0.54657  Biso   1.000  C
  C154     1.0000 0.44803  0.55197  0.54640  Biso   1.000  C
  C155     1.0000 0.42558  0.57442  0.51590  Biso   1.000  C
  H95      1.0000 0.39678  0.60322  0.51637  Biso   1.000  H
  C156     1.0000 0.39873  0.60127  0.58497  Biso   1.000  C
  H96      1.0000 0.39118  0.60882  0.60777  Biso   1.000  H
  O79      1.0000 0.09550  0.19100  0.91000  Biso   1.000  O
  C157     1.0000 0.22220  0.44440  0.97377  Biso   1.000  C
  H97      1.0000 0.23555  0.47110  0.99450  Biso   1.000  H
  C158     1.0000 0.17935  0.35870  0.91267  Biso   1.000  C
  C159     1.0000 0.22145  0.44290  0.84676  Biso   1.000  C
  H98      1.0000 0.23690  0.47380  0.86650  Biso   1.000  H
  C160     1.0000 0.17720  0.35440  0.84891  Biso   1.000  C
  C161     1.0000 0.15655  0.31310  0.87990  Biso   1.000  C
  C162     1.0000 0.11470  0.22940  0.87973  Biso   1.000  C
  C163     1.0000 0.09225  0.18450  0.84923  Biso   1.000  C
  H99      1.0000 0.06345  0.12690  0.84970  Biso   1.000  H
  C164     1.0000 0.06540  0.13080  0.91830  Biso   1.000  C
  H100     1.0000 0.05785  0.11570  0.94110  Biso   1.000  H
  O80      1.0000 0.76217  0.52433  0.24333  Biso   1.000  O
  C165     1.0000 0.88887  0.77773  0.30710  Biso   1.000  C
  H101     1.0000 0.90222  0.80443  0.32783  Biso   1.000  H
  C166     1.0000 0.84602  0.69203  0.24600  Biso   1.000  C
  C167     1.0000 0.88812  0.77623  0.18009  Biso   1.000  C
  H102     1.0000 0.90357  0.80713  0.19983  Biso   1.000  H
  C168     1.0000 0.84387  0.68773  0.18224  Biso   1.000  C
  C169     1.0000 0.82322  0.64643  0.21323  Biso   1.000  C
  C170     1.0000 0.78137  0.56273  0.21306  Biso   1.000  C
  C171     1.0000 0.75892  0.51783  0.18256  Biso   1.000  C
  H103     1.0000 0.73012  0.46023  0.18303  Biso   1.000  H
  C172     1.0000 0.73207  0.46413  0.25163  Biso   1.000  C
  H104     1.0000 0.72452  0.44903  0.27443  Biso   1.000  H
  O81      1.0000 0.42883  0.85767  0.57667  Biso   1.000  O
  C173     1.0000 0.55553  0.11107  0.64044  Biso   1.000  C
  H105     1.0000 0.56888  0.13777  0.66117  Biso   1.000  H
  C174     1.0000 0.51268  0.02537  0.57934  Biso   1.000  C
  C175     1.0000 0.55478  0.10957  0.51343  Biso   1.000  C
  H106     1.0000 0.57023  0.14047  0.53317  Biso   1.000  H
  C176     1.0000 0.51053  0.02107  0.51558  Biso   1.000  C
  C177     1.0000 0.48988  0.97977  0.54657  Biso   1.000  C
  C178     1.0000 0.44803  0.89607  0.54640  Biso   1.000  C
  C179     1.0000 0.42558  0.85117  0.51590  Biso   1.000  C
  H107     1.0000 0.39678  0.79357  0.51637  Biso   1.000  H
  C180     1.0000 0.39873  0.79747  0.58497  Biso   1.000  C
  H108     1.0000 0.39118  0.78237  0.60777  Biso   1.000  H
  O82      1.0000 0.90450  0.80900  0.09000  Biso   1.000  O
  C181     1.0000 0.77780  0.55560  0.02623  Biso   1.000  C
  H109     1.0000 0.76445  0.52890  0.00550  Biso   1.000  H
  C182     1.0000 0.82065  0.64130  0.08733  Biso   1.000  C
  C183     1.0000 0.77855  0.55710  0.15324  Biso   1.000  C
  H110     1.0000 0.76310  0.52620  0.13350  Biso   1.000  H
  C184     1.0000 0.82280  0.64560  0.15109  Biso   1.000  C
  C185     1.0000 0.84345  0.68690  0.12010  Biso   1.000  C
  C186     1.0000 0.88530  0.77060  0.12027  Biso   1.000  C
  C187     1.0000 0.90775  0.81550  0.15077  Biso   1.000  C
  H111     1.0000 0.93655  0.87310  0.15030  Biso   1.000  H
  C188     1.0000 0.93460  0.86920  0.08170  Biso   1.000  C
  H112     1.0000 0.94215  0.88430  0.05890  Biso   1.000  H
  O83      1.0000 0.57117  0.14233  0.42333  Biso   1.000  O
  C189     1.0000 0.44447  0.88893  0.35956  Biso   1.000  C
  H113     1.0000 0.43112  0.86223  0.33883  Biso   1.000  H
  C190     1.0000 0.48732  0.97463  0.42066  Biso   1.000  C
  C191     1.0000 0.44522  0.89043  0.48657  Biso   1.000  C
  H114     1.0000 0.42977  0.85953  0.46683  Biso   1.000  H
  C192     1.0000 0.48947  0.97893  0.48442  Biso   1.000  C
  C193     1.0000 0.51012  0.02023  0.45343  Biso   1.000  C
  C194     1.0000 0.55197  0.10393  0.45360  Biso   1.000  C
  C195     1.0000 0.57442  0.14883  0.48410  Biso   1.000  C
  H115     1.0000 0.60322  0.20643  0.48363  Biso   1.000  H
  C196     1.0000 0.60127  0.20253  0.41503  Biso   1.000  C
  H116     1.0000 0.60882  0.21763  0.39223  Biso   1.000  H
  O84      1.0000 0.23783  0.47567  0.75667  Biso   1.000  O
  C197     1.0000 0.11113  0.22227  0.69290  Biso   1.000  C
  H117     1.0000 0.09778  0.19557  0.67217  Biso   1.000  H
  C198     1.0000 0.15398  0.30797  0.75400  Biso   1.000  C
  C199     1.0000 0.11188  0.22377  0.81991  Biso   1.000  C
  H118     1.0000 0.09643  0.19287  0.80017  Biso   1.000  H
  C200     1.0000 0.15613  0.31227  0.81776  Biso   1.000  C
  C201     1.0000 0.17678  0.35357  0.78677  Biso   1.000  C
  C202     1.0000 0.21863  0.43727  0.78694  Biso   1.000  C
  C203     1.0000 0.24108  0.48217  0.81744  Biso   1.000  C
  H119     1.0000 0.26988  0.53977  0.81697  Biso   1.000  H
  C204     1.0000 0.26793  0.53587  0.74837  Biso   1.000  C
  H120     1.0000 0.27548  0.55097  0.72557  Biso   1.000  H
  O85      1.0000 0.90450  0.09550  0.09000  Biso   1.000  O
  C205     1.0000 0.77780  0.22220  0.02623  Biso   1.000  C
  H121     1.0000 0.76445  0.23555  0.00550  Biso   1.000  H
  C206     1.0000 0.82065  0.17935  0.08733  Biso   1.000  C
  C207     1.0000 0.77855  0.22145  0.15324  Biso   1.000  C
  H122     1.0000 0.76310  0.23690  0.13350  Biso   1.000  H
  C208     1.0000 0.82280  0.17720  0.15109  Biso   1.000  C
  C209     1.0000 0.84345  0.15655  0.12010  Biso   1.000  C
  C210     1.0000 0.88530  0.11470  0.12027  Biso   1.000  C
  C211     1.0000 0.90775  0.09225  0.15077  Biso   1.000  C
  H123     1.0000 0.93655  0.06345  0.15030  Biso   1.000  H
  C212     1.0000 0.93460  0.06540  0.08170  Biso   1.000  C
  H124     1.0000 0.94215  0.05785  0.05890  Biso   1.000  H
  O86      1.0000 0.57117  0.42883  0.42333  Biso   1.000  O
  C213     1.0000 0.44447  0.55553  0.35956  Biso   1.000  C
  H125     1.0000 0.43112  0.56888  0.33883  Biso   1.000  H
  C214     1.0000 0.48732  0.51268  0.42066  Biso   1.000  C
  C215     1.0000 0.44522  0.55478  0.48657  Biso   1.000  C
  H126     1.0000 0.42977  0.57023  0.46683  Biso   1.000  H
  C216     1.0000 0.48947  0.51053  0.48442  Biso   1.000  C
  C217     1.0000 0.51012  0.48988  0.45343  Biso   1.000  C
  C218     1.0000 0.55197  0.44803  0.45360  Biso   1.000  C
  C219     1.0000 0.57442  0.42558  0.48410  Biso   1.000  C
  H127     1.0000 0.60322  0.39678  0.48363  Biso   1.000  H
  C220     1.0000 0.60127  0.39873  0.41503  Biso   1.000  C
  H128     1.0000 0.60882  0.39118  0.39223  Biso   1.000  H
  O87      1.0000 0.23783  0.76217  0.75667  Biso   1.000  O
  C221     1.0000 0.11113  0.88887  0.69290  Biso   1.000  C
  H129     1.0000 0.09778  0.90222  0.67217  Biso   1.000  H
  C222     1.0000 0.15398  0.84602  0.75400  Biso   1.000  C
  C223     1.0000 0.11188  0.88812  0.81991  Biso   1.000  C
  H130     1.0000 0.09643  0.90357  0.80017  Biso   1.000  H
  C224     1.0000 0.15613  0.84387  0.81776  Biso   1.000  C
  C225     1.0000 0.17678  0.82322  0.78677  Biso   1.000  C
  C226     1.0000 0.21863  0.78137  0.78694  Biso   1.000  C
  C227     1.0000 0.24108  0.75892  0.81744  Biso   1.000  C
  H131     1.0000 0.26988  0.73012  0.81697  Biso   1.000  H
  C228     1.0000 0.26793  0.73207  0.74837  Biso   1.000  C
  H132     1.0000 0.27548  0.72452  0.72557  Biso   1.000  H
  O88      1.0000 0.19100  0.09550  0.09000  Biso   1.000  O
  C229     1.0000 0.44440  0.22220  0.02623  Biso   1.000  C
  H133     1.0000 0.47110  0.23555  0.00550  Biso   1.000  H
  C230     1.0000 0.35870  0.17935  0.08733  Biso   1.000  C
  C231     1.0000 0.44290  0.22145  0.15324  Biso   1.000  C
  H134     1.0000 0.47380  0.23690  0.13350  Biso   1.000  H
  C232     1.0000 0.35440  0.17720  0.15109  Biso   1.000  C
  C233     1.0000 0.31310  0.15655  0.12010  Biso   1.000  C
  C234     1.0000 0.22940  0.11470  0.12027  Biso   1.000  C
  C235     1.0000 0.18450  0.09225  0.15077  Biso   1.000  C
  H135     1.0000 0.12690  0.06345  0.15030  Biso   1.000  H
  C236     1.0000 0.13080  0.06540  0.08170  Biso   1.000  C
  H136     1.0000 0.11570  0.05785  0.05890  Biso   1.000  H
  O89      1.0000 0.85767  0.42883  0.42333  Biso   1.000  O
  C237     1.0000 0.11107  0.55553  0.35956  Biso   1.000  C
  H137     1.0000 0.13777  0.56888  0.33883  Biso   1.000  H
  C238     1.0000 0.02537  0.51268  0.42066  Biso   1.000  C
  C239     1.0000 0.10957  0.55478  0.48657  Biso   1.000  C
  H138     1.0000 0.14047  0.57023  0.46683  Biso   1.000  H
  C240     1.0000 0.02107  0.51053  0.48442  Biso   1.000  C
  C241     1.0000 0.97977  0.48988  0.45343  Biso   1.000  C
  C242     1.0000 0.89607  0.44803  0.45360  Biso   1.000  C
  C243     1.0000 0.85117  0.42558  0.48410  Biso   1.000  C
  H139     1.0000 0.79357  0.39678  0.48363  Biso   1.000  H
  C244     1.0000 0.79747  0.39873  0.41503  Biso   1.000  C
  H140     1.0000 0.78237  0.39118  0.39223  Biso   1.000  H
  O90      1.0000 0.52433  0.76217  0.75667  Biso   1.000  O
  C245     1.0000 0.77773  0.88887  0.69290  Biso   1.000  C
  H141     1.0000 0.80443  0.90222  0.67217  Biso   1.000  H
  C246     1.0000 0.69203  0.84602  0.75400  Biso   1.000  C
  C247     1.0000 0.77623  0.88812  0.81991  Biso   1.000  C
  H142     1.0000 0.80713  0.90357  0.80017  Biso   1.000  H
  C248     1.0000 0.68773  0.84387  0.81776  Biso   1.000  C
  C249     1.0000 0.64643  0.82322  0.78677  Biso   1.000  C
  C250     1.0000 0.56273  0.78137  0.78694  Biso   1.000  C
  C251     1.0000 0.51783  0.75892  0.81744  Biso   1.000  C
  H143     1.0000 0.46023  0.73012  0.81697  Biso   1.000  H
  C252     1.0000 0.46413  0.73207  0.74837  Biso   1.000  C
  H144     1.0000 0.44903  0.72452  0.72557  Biso   1.000  H
