data_image0
_cell_length_a       17.724
_cell_length_b       19.705
_cell_length_c       13.139
_cell_angle_alpha    90
_cell_angle_beta     127.496
_cell_angle_gamma    90

_symmetry_space_group_name_H-M    "P 1"
_symmetry_int_tables_number       1

loop_
  _symmetry_equiv_pos_as_xyz
  'x, y, z'

loop_
  _atom_site_label
  _atom_site_occupancy
  _atom_site_fract_x
  _atom_site_fract_y
  _atom_site_fract_z
  _atom_site_thermal_displace_type
  _atom_site_B_iso_or_equiv
  _atom_site_type_symbol
  O1       1.0000 0.45455  0.42353  0.32120  Biso   1.000  O
  O2       1.0000 0.59419  0.42848  0.51480  Biso   1.000  O
  O3       1.0000 0.40490  0.22206  0.03350  Biso   1.000  O
  O4       1.0000 0.52120  0.14670  0.13560  Biso   1.000  O
  N1       1.0000 0.11609  0.46438  0.08380  Biso   1.000  N
  N2       1.0000 0.23620  0.38032  0.18940  Biso   1.000  N
  H1       1.0000 0.19530  0.34790  0.15310  Biso   1.000  H
  H2       1.0000 0.29590  0.37130  0.24210  Biso   1.000  H
  C1       1.0000 0.53740  0.40273  0.40640  Biso   1.000  C
  C2       1.0000 0.57090  0.34051  0.37780  Biso   1.000  C
  C3       1.0000 0.66410  0.31913  0.46970  Biso   1.000  C
  H3       1.0000 0.70310  0.34380  0.54530  Biso   1.000  H
  C4       1.0000 0.70030  0.26160  0.45110  Biso   1.000  C
  C5       1.0000 0.63840  0.22620  0.33720  Biso   1.000  C
  H4       1.0000 0.66040  0.18740  0.32250  Biso   1.000  H
  C6       1.0000 0.54530  0.24610  0.24500  Biso   1.000  C
  C7       1.0000 0.51130  0.30460  0.26450  Biso   1.000  C
  H5       1.0000 0.44940  0.31930  0.20220  Biso   1.000  H
  C8       1.0000 0.48420  0.20340  0.12620  Biso   1.000  C
  C9       1.0000 0.20620  0.44616  0.16330  Biso   1.000  C
  O5       1.0000 0.95455  0.92353  0.32120  Biso   1.000  O
  O6       1.0000 0.09419  0.92848  0.51480  Biso   1.000  O
  O7       1.0000 0.90490  0.72206  0.03350  Biso   1.000  O
  O8       1.0000 0.02120  0.64670  0.13560  Biso   1.000  O
  N3       1.0000 0.61609  0.96438  0.08380  Biso   1.000  N
  N4       1.0000 0.73620  0.88032  0.18940  Biso   1.000  N
  H6       1.0000 0.69530  0.84790  0.15310  Biso   1.000  H
  H7       1.0000 0.79590  0.87130  0.24210  Biso   1.000  H
  C10      1.0000 0.03740  0.90273  0.40640  Biso   1.000  C
  C11      1.0000 0.07090  0.84051  0.37780  Biso   1.000  C
  C12      1.0000 0.16410  0.81913  0.46970  Biso   1.000  C
  H8       1.0000 0.20310  0.84380  0.54530  Biso   1.000  H
  C13      1.0000 0.20030  0.76160  0.45110  Biso   1.000  C
  C14      1.0000 0.13840  0.72620  0.33720  Biso   1.000  C
  H9       1.0000 0.16040  0.68740  0.32250  Biso   1.000  H
  C15      1.0000 0.04530  0.74610  0.24500  Biso   1.000  C
  C16      1.0000 0.01130  0.80460  0.26450  Biso   1.000  C
  H10      1.0000 0.94940  0.81930  0.20220  Biso   1.000  H
  C17      1.0000 0.98420  0.70340  0.12620  Biso   1.000  C
  C18      1.0000 0.70620  0.94616  0.16330  Biso   1.000  C
  O9       1.0000 0.54545  0.42353  0.67880  Biso   1.000  O
  O10      1.0000 0.40581  0.42848  0.48520  Biso   1.000  O
  O11      1.0000 0.59510  0.22206  0.96650  Biso   1.000  O
  O12      1.0000 0.47880  0.14670  0.86440  Biso   1.000  O
  N5       1.0000 0.88391  0.46438  0.91620  Biso   1.000  N
  N6       1.0000 0.76380  0.38032  0.81060  Biso   1.000  N
  H11      1.0000 0.80470  0.34790  0.84690  Biso   1.000  H
  H12      1.0000 0.70410  0.37130  0.75790  Biso   1.000  H
  C19      1.0000 0.46260  0.40273  0.59360  Biso   1.000  C
  C20      1.0000 0.42910  0.34051  0.62220  Biso   1.000  C
  C21      1.0000 0.33590  0.31913  0.53030  Biso   1.000  C
  H13      1.0000 0.29690  0.34380  0.45470  Biso   1.000  H
  C22      1.0000 0.29970  0.26160  0.54890  Biso   1.000  C
  C23      1.0000 0.36160  0.22620  0.66280  Biso   1.000  C
  H14      1.0000 0.33960  0.18740  0.67750  Biso   1.000  H
  C24      1.0000 0.45470  0.24610  0.75500  Biso   1.000  C
  C25      1.0000 0.48870  0.30460  0.73550  Biso   1.000  C
  H15      1.0000 0.55060  0.31930  0.79780  Biso   1.000  H
  C26      1.0000 0.51580  0.20340  0.87380  Biso   1.000  C
  C27      1.0000 0.79380  0.44616  0.83670  Biso   1.000  C
  O13      1.0000 0.04545  0.92353  0.67880  Biso   1.000  O
  O14      1.0000 0.90581  0.92848  0.48520  Biso   1.000  O
  O15      1.0000 0.09510  0.72206  0.96650  Biso   1.000  O
  O16      1.0000 0.97880  0.64670  0.86440  Biso   1.000  O
  N7       1.0000 0.38391  0.96438  0.91620  Biso   1.000  N
  N8       1.0000 0.26380  0.88032  0.81060  Biso   1.000  N
  H16      1.0000 0.30470  0.84790  0.84690  Biso   1.000  H
  H17      1.0000 0.20410  0.87130  0.75790  Biso   1.000  H
  C28      1.0000 0.96260  0.90273  0.59360  Biso   1.000  C
  C29      1.0000 0.92910  0.84051  0.62220  Biso   1.000  C
  C30      1.0000 0.83590  0.81913  0.53030  Biso   1.000  C
  H18      1.0000 0.79690  0.84380  0.45470  Biso   1.000  H
  C31      1.0000 0.79970  0.76160  0.54890  Biso   1.000  C
  C32      1.0000 0.86160  0.72620  0.66280  Biso   1.000  C
  H19      1.0000 0.83960  0.68740  0.67750  Biso   1.000  H
  C33      1.0000 0.95470  0.74610  0.75500  Biso   1.000  C
  C34      1.0000 0.98870  0.80460  0.73550  Biso   1.000  C
  H20      1.0000 0.05060  0.81930  0.79780  Biso   1.000  H
  C35      1.0000 0.01580  0.70340  0.87380  Biso   1.000  C
  C36      1.0000 0.29380  0.94616  0.83670  Biso   1.000  C
  O17      1.0000 0.54545  0.57647  0.67880  Biso   1.000  O
  O18      1.0000 0.40581  0.57152  0.48520  Biso   1.000  O
  O19      1.0000 0.59510  0.77794  0.96650  Biso   1.000  O
  O20      1.0000 0.47880  0.85330  0.86440  Biso   1.000  O
  N9       1.0000 0.88391  0.53562  0.91620  Biso   1.000  N
  N10      1.0000 0.76380  0.61968  0.81060  Biso   1.000  N
  H21      1.0000 0.80470  0.65210  0.84690  Biso   1.000  H
  H22      1.0000 0.70410  0.62870  0.75790  Biso   1.000  H
  C37      1.0000 0.46260  0.59727  0.59360  Biso   1.000  C
  C38      1.0000 0.42910  0.65949  0.62220  Biso   1.000  C
  C39      1.0000 0.33590  0.68087  0.53030  Biso   1.000  C
  H23      1.0000 0.29690  0.65620  0.45470  Biso   1.000  H
  C40      1.0000 0.29970  0.73840  0.54890  Biso   1.000  C
  C41      1.0000 0.36160  0.77380  0.66280  Biso   1.000  C
  H24      1.0000 0.33960  0.81260  0.67750  Biso   1.000  H
  C42      1.0000 0.45470  0.75390  0.75500  Biso   1.000  C
  C43      1.0000 0.48870  0.69540  0.73550  Biso   1.000  C
  H25      1.0000 0.55060  0.68070  0.79780  Biso   1.000  H
  C44      1.0000 0.51580  0.79660  0.87380  Biso   1.000  C
  C45      1.0000 0.79380  0.55384  0.83670  Biso   1.000  C
  O21      1.0000 0.04545  0.07647  0.67880  Biso   1.000  O
  O22      1.0000 0.90581  0.07152  0.48520  Biso   1.000  O
  O23      1.0000 0.09510  0.27794  0.96650  Biso   1.000  O
  O24      1.0000 0.97880  0.35330  0.86440  Biso   1.000  O
  N11      1.0000 0.38391  0.03562  0.91620  Biso   1.000  N
  N12      1.0000 0.26380  0.11968  0.81060  Biso   1.000  N
  H26      1.0000 0.30470  0.15210  0.84690  Biso   1.000  H
  H27      1.0000 0.20410  0.12870  0.75790  Biso   1.000  H
  C46      1.0000 0.96260  0.09727  0.59360  Biso   1.000  C
  C47      1.0000 0.92910  0.15949  0.62220  Biso   1.000  C
  C48      1.0000 0.83590  0.18087  0.53030  Biso   1.000  C
  H28      1.0000 0.79690  0.15620  0.45470  Biso   1.000  H
  C49      1.0000 0.79970  0.23840  0.54890  Biso   1.000  C
  C50      1.0000 0.86160  0.27380  0.66280  Biso   1.000  C
  H29      1.0000 0.83960  0.31260  0.67750  Biso   1.000  H
  C51      1.0000 0.95470  0.25390  0.75500  Biso   1.000  C
  C52      1.0000 0.98870  0.19540  0.73550  Biso   1.000  C
  H30      1.0000 0.05060  0.18070  0.79780  Biso   1.000  H
  C53      1.0000 0.01580  0.29660  0.87380  Biso   1.000  C
  C54      1.0000 0.29380  0.05384  0.83670  Biso   1.000  C
  O25      1.0000 0.45455  0.57647  0.32120  Biso   1.000  O
  O26      1.0000 0.59419  0.57152  0.51480  Biso   1.000  O
  O27      1.0000 0.40490  0.77794  0.03350  Biso   1.000  O
  O28      1.0000 0.52120  0.85330  0.13560  Biso   1.000  O
  N13      1.0000 0.11609  0.53562  0.08380  Biso   1.000  N
  N14      1.0000 0.23620  0.61968  0.18940  Biso   1.000  N
  H31      1.0000 0.19530  0.65210  0.15310  Biso   1.000  H
  H32      1.0000 0.29590  0.62870  0.24210  Biso   1.000  H
  C55      1.0000 0.53740  0.59727  0.40640  Biso   1.000  C
  C56      1.0000 0.57090  0.65949  0.37780  Biso   1.000  C
  C57      1.0000 0.66410  0.68087  0.46970  Biso   1.000  C
  H33      1.0000 0.70310  0.65620  0.54530  Biso   1.000  H
  C58      1.0000 0.70030  0.73840  0.45110  Biso   1.000  C
  C59      1.0000 0.63840  0.77380  0.33720  Biso   1.000  C
  H34      1.0000 0.66040  0.81260  0.32250  Biso   1.000  H
  C60      1.0000 0.54530  0.75390  0.24500  Biso   1.000  C
  C61      1.0000 0.51130  0.69540  0.26450  Biso   1.000  C
  H35      1.0000 0.44940  0.68070  0.20220  Biso   1.000  H
  C62      1.0000 0.48420  0.79660  0.12620  Biso   1.000  C
  C63      1.0000 0.20620  0.55384  0.16330  Biso   1.000  C
  O29      1.0000 0.95455  0.07647  0.32120  Biso   1.000  O
  O30      1.0000 0.09419  0.07152  0.51480  Biso   1.000  O
  O31      1.0000 0.90490  0.27794  0.03350  Biso   1.000  O
  O32      1.0000 0.02120  0.35330  0.13560  Biso   1.000  O
  N15      1.0000 0.61609  0.03562  0.08380  Biso   1.000  N
  N16      1.0000 0.73620  0.11968  0.18940  Biso   1.000  N
  H36      1.0000 0.69530  0.15210  0.15310  Biso   1.000  H
  H37      1.0000 0.79590  0.12870  0.24210  Biso   1.000  H
  C64      1.0000 0.03740  0.09727  0.40640  Biso   1.000  C
  C65      1.0000 0.07090  0.15949  0.37780  Biso   1.000  C
  C66      1.0000 0.16410  0.18087  0.46970  Biso   1.000  C
  H38      1.0000 0.20310  0.15620  0.54530  Biso   1.000  H
  C67      1.0000 0.20030  0.23840  0.45110  Biso   1.000  C
  C68      1.0000 0.13840  0.27380  0.33720  Biso   1.000  C
  H39      1.0000 0.16040  0.31260  0.32250  Biso   1.000  H
  C69      1.0000 0.04530  0.25390  0.24500  Biso   1.000  C
  C70      1.0000 0.01130  0.19540  0.26450  Biso   1.000  C
  H40      1.0000 0.94940  0.18070  0.20220  Biso   1.000  H
  C71      1.0000 0.98420  0.29660  0.12620  Biso   1.000  C
  C72      1.0000 0.70620  0.05384  0.16330  Biso   1.000  C
  Zn1      1.0000 0.40437  0.50000  0.36862  Biso   1.000  Zn
  N17      1.0000 0.26560  0.50000  0.21730  Biso   1.000  N
  Zn2      1.0000 0.90437  0.00000  0.36862  Biso   1.000  Zn
  N18      1.0000 0.76560  0.00000  0.21730  Biso   1.000  N
  Zn3      1.0000 0.59563  0.50000  0.63138  Biso   1.000  Zn
  N19      1.0000 0.73440  0.50000  0.78270  Biso   1.000  N
  Zn4      1.0000 0.09563  0.00000  0.63138  Biso   1.000  Zn
  N20      1.0000 0.23440  0.00000  0.78270  Biso   1.000  N
  Zn5      1.0000 0.00000  0.40852  0.00000  Biso   1.000  Zn
  Zn6      1.0000 0.50000  0.90852  0.00000  Biso   1.000  Zn
  Zn7      1.0000 0.00000  0.59148  0.00000  Biso   1.000  Zn
  Zn8      1.0000 0.50000  0.09148  0.00000  Biso   1.000  Zn
