data_ODODIW_clean
_audit_creation_date              2014-07-02
_audit_creation_method            'Materials Studio'
_symmetry_space_group_name_H-M    'P1'
_symmetry_Int_Tables_number       1
_symmetry_cell_setting            triclinic
loop_
_symmetry_equiv_pos_as_xyz
  x,y,z
_cell_length_a                    13.9350
_cell_length_b                    14.1960
_cell_length_c                    14.6708
_cell_angle_alpha                 107.9880
_cell_angle_beta                  113.7350
_cell_angle_gamma                 100.2980
loop_
_atom_site_label
_atom_site_type_symbol
_atom_site_fract_x
_atom_site_fract_y
_atom_site_fract_z
_atom_site_U_iso_or_equiv
_atom_site_adp_type
_atom_site_occupancy
Zn1    Zn    0.47125   0.79671   0.55655   0.01267  Uiso   1.00
Zn2    Zn    0.69670   0.00416   0.73580   0.01267  Uiso   1.00
Zn3    Zn    0.52875   0.20329   0.44345   0.01267  Uiso   1.00
Zn4    Zn    0.30330   0.99584   0.26420   0.01267  Uiso   1.00
Zn5    Zn    0.50000   0.00000   0.50000   0.01267  Uiso   1.00
Si1    Si    0.76383   0.63431   0.12000   0.01267  Uiso   1.00
Si2    Si    0.23617   0.36569   0.88000   0.01267  Uiso   1.00
H1     H     0.11430   0.75880   0.45850   0.01267  Uiso   1.00
H2     H     0.92080   0.69150   0.34600   0.01267  Uiso   1.00
H3     H     0.96020   0.70770   0.09110   0.01267  Uiso   1.00
H4     H     0.15170   0.78140   0.20460   0.01267  Uiso   1.00
H5     H     0.52670   0.61640   0.75570   0.01267  Uiso   1.00
H6     H     0.58910   0.55070   0.88730   0.01267  Uiso   1.00
H7     H     0.83380   0.83280   0.10380   0.01267  Uiso   1.00
H8     H     0.78220   0.89520   0.96900   0.01267  Uiso   1.00
H9     H     0.52150   0.25810   0.91780   0.01267  Uiso   1.00
H10    H     0.56170   0.43930   0.01120   0.01267  Uiso   1.00
H11    H     0.88360   0.49700   0.07930   0.01267  Uiso   1.00
H12    H     0.84090   0.31780   0.97810   0.01267  Uiso   1.00
H13    H     0.57090   0.61470   0.33690   0.01267  Uiso   1.00
H14    H     0.64210   0.54450   0.22210   0.01267  Uiso   1.00
H15    H     0.74540   0.83110   0.22390   0.01267  Uiso   1.00
H16    H     0.67740   0.90020   0.33880   0.01267  Uiso   1.00
H17    H     0.51900   0.98700   0.68300   0.01267  Uiso   1.00
H18    H     0.88570   0.24120   0.54150   0.01267  Uiso   1.00
H19    H     0.07920   0.30850   0.65400   0.01267  Uiso   1.00
H20    H     0.03980   0.29230   0.90890   0.01267  Uiso   1.00
H21    H     0.84830   0.21860   0.79540   0.01267  Uiso   1.00
H22    H     0.47330   0.38360   0.24430   0.01267  Uiso   1.00
H23    H     0.41090   0.44930   0.11270   0.01267  Uiso   1.00
H24    H     0.16620   0.16720   0.89620   0.01267  Uiso   1.00
H25    H     0.21780   0.10480   0.03100   0.01267  Uiso   1.00
H26    H     0.47850   0.74190   0.08220   0.01267  Uiso   1.00
H27    H     0.43830   0.56070   0.98880   0.01267  Uiso   1.00
H28    H     0.11640   0.50300   0.92070   0.01267  Uiso   1.00
H29    H     0.15910   0.68220   0.02190   0.01267  Uiso   1.00
H30    H     0.42910   0.38530   0.66310   0.01267  Uiso   1.00
H31    H     0.35790   0.45550   0.77790   0.01267  Uiso   1.00
H32    H     0.25460   0.16890   0.77610   0.01267  Uiso   1.00
H33    H     0.32260   0.09980   0.66120   0.01267  Uiso   1.00
H34    H     0.48100   0.01300   0.31700   0.01267  Uiso   1.00
C1     C     0.27750   0.81570   0.41280   0.01267  Uiso   1.00
C2     C     0.15400   0.77580   0.34280   0.01267  Uiso   1.00
C3     C     0.08320   0.74950   0.38420   0.01267  Uiso   1.00
C4     C     0.96750   0.70980   0.31700   0.01267  Uiso   1.00
C5     C     0.91940   0.69640   0.20880   0.01267  Uiso   1.00
C6     C     0.99120   0.72040   0.16630   0.01267  Uiso   1.00
C7     C     0.10510   0.76180   0.23320   0.01267  Uiso   1.00
C8     C     0.61610   0.80620   0.76450   0.01267  Uiso   1.00
C9     C     0.64890   0.76300   0.85030   0.01267  Uiso   1.00
C10    C     0.59050   0.65980   0.82570   0.01267  Uiso   1.00
C11    C     0.62690   0.62180   0.90500   0.01267  Uiso   1.00
C12    C     0.71790   0.68500   0.01070   0.01267  Uiso   1.00
C13    C     0.77280   0.78770   0.03250   0.01267  Uiso   1.00
C14    C     0.74100   0.82580   0.95310   0.01267  Uiso   1.00
C15    C     0.64820   0.15760   0.86470   0.01267  Uiso   1.00
C16    C     0.67650   0.27050   0.93440   0.01267  Uiso   1.00
C17    C     0.59430   0.30670   0.94770   0.01267  Uiso   1.00
C18    C     0.61910   0.41500   0.00530   0.01267  Uiso   1.00
C19    C     0.72750   0.48830   0.05450   0.01267  Uiso   1.00
C20    C     0.80910   0.44960   0.04460   0.01267  Uiso   1.00
C21    C     0.78370   0.34210   0.98460   0.01267  Uiso   1.00
C22    C     0.57070   0.81200   0.42120   0.01267  Uiso   1.00
C23    C     0.61720   0.76500   0.34900   0.01267  Uiso   1.00
C24    C     0.60660   0.65860   0.31400   0.01267  Uiso   1.00
C25    C     0.64880   0.61680   0.24500   0.01267  Uiso   1.00
C26    C     0.70050   0.67930   0.20910   0.01267  Uiso   1.00
C27    C     0.71010   0.78650   0.24650   0.01267  Uiso   1.00
C28    C     0.66950   0.82760   0.31470   0.01267  Uiso   1.00
C29    C     0.72250   0.18430   0.58720   0.01267  Uiso   1.00
C30    C     0.84600   0.22420   0.65720   0.01267  Uiso   1.00
C31    C     0.91680   0.25050   0.61580   0.01267  Uiso   1.00
C32    C     0.03250   0.29020   0.68300   0.01267  Uiso   1.00
C33    C     0.08060   0.30360   0.79120   0.01267  Uiso   1.00
C34    C     0.00880   0.27960   0.83370   0.01267  Uiso   1.00
C35    C     0.89490   0.23820   0.76680   0.01267  Uiso   1.00
C36    C     0.38390   0.19380   0.23550   0.01267  Uiso   1.00
C37    C     0.35110   0.23700   0.14970   0.01267  Uiso   1.00
C38    C     0.40950   0.34020   0.17430   0.01267  Uiso   1.00
C39    C     0.37310   0.37820   0.09500   0.01267  Uiso   1.00
C40    C     0.28210   0.31500   0.98930   0.01267  Uiso   1.00
C41    C     0.22720   0.21230   0.96750   0.01267  Uiso   1.00
C42    C     0.25900   0.17420   0.04690   0.01267  Uiso   1.00
C43    C     0.35180   0.84240   0.13530   0.01267  Uiso   1.00
C44    C     0.32350   0.72950   0.06560   0.01267  Uiso   1.00
C45    C     0.40570   0.69330   0.05230   0.01267  Uiso   1.00
C46    C     0.38090   0.58500   0.99470   0.01267  Uiso   1.00
C47    C     0.27250   0.51170   0.94550   0.01267  Uiso   1.00
C48    C     0.19090   0.55040   0.95540   0.01267  Uiso   1.00
C49    C     0.21630   0.65790   0.01540   0.01267  Uiso   1.00
C50    C     0.42930   0.18800   0.57880   0.01267  Uiso   1.00
C51    C     0.38280   0.23500   0.65100   0.01267  Uiso   1.00
C52    C     0.39340   0.34140   0.68600   0.01267  Uiso   1.00
C53    C     0.35120   0.38320   0.75500   0.01267  Uiso   1.00
C54    C     0.29950   0.32070   0.79090   0.01267  Uiso   1.00
C55    C     0.28990   0.21350   0.75350   0.01267  Uiso   1.00
C56    C     0.33050   0.17240   0.68530   0.01267  Uiso   1.00
O1     O     0.31430   0.78050   0.48660   0.01267  Uiso   1.00
O2     O     0.33620   0.87730   0.39500   0.01267  Uiso   1.00
O3     O     0.68770   0.88950   0.78610   0.01267  Uiso   1.00
O4     O     0.52490   0.75570   0.67890   0.01267  Uiso   1.00
O5     O     0.72960   0.13580   0.85120   0.01267  Uiso   1.00
O6     O     0.55230   0.09280   0.82220   0.01267  Uiso   1.00
O7     O     0.53490   0.75660   0.46050   0.01267  Uiso   1.00
O8     O     0.57300   0.90490   0.43740   0.01267  Uiso   1.00
O9     O     0.53580   0.95510   0.62560   0.01267  Uiso   1.00
O10    O     0.68570   0.21950   0.51340   0.01267  Uiso   1.00
O11    O     0.66380   0.12270   0.60500   0.01267  Uiso   1.00
O12    O     0.31230   0.11050   0.21390   0.01267  Uiso   1.00
O13    O     0.47510   0.24430   0.32110   0.01267  Uiso   1.00
O14    O     0.27040   0.86420   0.14880   0.01267  Uiso   1.00
O15    O     0.44770   0.90720   0.17780   0.01267  Uiso   1.00
O16    O     0.46510   0.24340   0.53950   0.01267  Uiso   1.00
O17    O     0.42700   0.09510   0.56260   0.01267  Uiso   1.00
O18    O     0.46420   0.04490   0.37440   0.01267  Uiso   1.00
