data_ODODES_clean
_audit_creation_date              2014-07-02
_audit_creation_method            'Materials Studio'
_symmetry_space_group_name_H-M    'P1'
_symmetry_Int_Tables_number       1
_symmetry_cell_setting            triclinic
loop_
_symmetry_equiv_pos_as_xyz
  x,y,z
_cell_length_a                    13.8443
_cell_length_b                    14.5615
_cell_length_c                    23.9659
_cell_angle_alpha                 79.2299
_cell_angle_beta                  73.2119
_cell_angle_gamma                 61.6164
loop_
_atom_site_label
_atom_site_type_symbol
_atom_site_fract_x
_atom_site_fract_y
_atom_site_fract_z
_atom_site_U_iso_or_equiv
_atom_site_adp_type
_atom_site_occupancy
Zn1    Zn    0.26978   0.08502   0.95488   0.01267  Uiso   1.00
Zn2    Zn    0.30968   0.41498   0.54512   0.01267  Uiso   1.00
Zn3    Zn    0.73022   0.91498   0.04512   0.01267  Uiso   1.00
Zn4    Zn    0.69032   0.58502   0.45488   0.01267  Uiso   1.00
Zn5    Zn    0.50000  -0.00000   0.00000   0.01267  Uiso   1.00
Zn6    Zn    0.50000   0.50000   0.50000   0.01267  Uiso   1.00
Si1    Si    0.64702   0.44778   0.83480   0.01267  Uiso   1.00
Si2    Si    0.92960   0.05222   0.66520   0.01267  Uiso   1.00
Si3    Si    0.35298   0.55222   0.16520   0.01267  Uiso   1.00
Si4    Si    0.07040   0.94778   0.33480   0.01267  Uiso   1.00
H1     H     0.26260   0.17020   0.86420   0.01267  Uiso   1.00
H2     H     0.47050   0.83050   0.82710   0.01267  Uiso   1.00
H3     H     0.55450   0.66790   0.78890   0.01267  Uiso   1.00
H4     H     0.59350   0.52900   0.94780   0.01267  Uiso   1.00
H5     H     0.51540   0.69330   0.98530   0.01267  Uiso   1.00
H6     H     0.55210   0.15600   0.88300   0.01267  Uiso   1.00
H7     H     0.41490   0.50770   0.91050   0.01267  Uiso   1.00
H8     H     0.30020   0.42580   0.94660   0.01267  Uiso   1.00
H9     H     0.80460   0.45370   0.71930   0.01267  Uiso   1.00
H10    H     0.78900   0.49060   0.62280   0.01267  Uiso   1.00
H11    H     0.46870   0.52740   0.67340   0.01267  Uiso   1.00
H12    H     0.48570   0.48780   0.77000   0.01267  Uiso   1.00
H13    H     0.77030   0.25240   0.90020   0.01267  Uiso   1.00
H14    H     0.94790   0.15880   0.92100   0.01267  Uiso   1.00
H15    H     0.03710   0.37430   0.81690   0.01267  Uiso   1.00
H16    H     0.85790   0.46460   0.79780   0.01267  Uiso   1.00
H17    H     0.66820   0.23690   0.84310   0.01267  Uiso   1.00
H18    H     0.29700   0.32980   0.63580   0.01267  Uiso   1.00
H19    H     0.12810   0.66950   0.67290   0.01267  Uiso   1.00
H20    H     0.01130   0.83210   0.71110   0.01267  Uiso   1.00
H21    H     0.07030   0.97100   0.55220   0.01267  Uiso   1.00
H22    H     0.19400   0.80670   0.51470   0.01267  Uiso   1.00
H23    H     0.59110   0.34400   0.61700   0.01267  Uiso   1.00
H24    H     0.83310   0.99230   0.58950   0.01267  Uiso   1.00
H25    H     0.67260   0.07420   0.55340   0.01267  Uiso   1.00
H26    H     0.97760   0.04630   0.78070   0.01267  Uiso   1.00
H27    H     0.90240   0.00940   0.87720   0.01267  Uiso   1.00
H28    H     0.66950   0.97260   0.82660   0.01267  Uiso   1.00
H29    H     0.74350   0.01220   0.73000   0.01267  Uiso   1.00
H30    H     0.92290   0.24760   0.59980   0.01267  Uiso   1.00
H31    H     0.02770   0.34120   0.57900   0.01267  Uiso   1.00
H32    H     0.22830   0.12570   0.68310   0.01267  Uiso   1.00
H33    H     0.12030   0.03540   0.70220   0.01267  Uiso   1.00
H34    H     0.74820   0.26310   0.65690   0.01267  Uiso   1.00
H35    H     0.73740   0.82980   0.13580   0.01267  Uiso   1.00
H36    H     0.52950   0.16950   0.17290   0.01267  Uiso   1.00
H37    H     0.44550   0.33210   0.21110   0.01267  Uiso   1.00
H38    H     0.40650   0.47100   0.05220   0.01267  Uiso   1.00
H39    H     0.48460   0.30670   0.01470   0.01267  Uiso   1.00
H40    H     0.44790   0.84400   0.11700   0.01267  Uiso   1.00
H41    H     0.58510   0.49230   0.08950   0.01267  Uiso   1.00
H42    H     0.69980   0.57420   0.05340   0.01267  Uiso   1.00
H43    H     0.19540   0.54630   0.28070   0.01267  Uiso   1.00
H44    H     0.21100   0.50940   0.37720   0.01267  Uiso   1.00
H45    H     0.53130   0.47260   0.32660   0.01267  Uiso   1.00
H46    H     0.51430   0.51220   0.23000   0.01267  Uiso   1.00
H47    H     0.22970   0.74760   0.09980   0.01267  Uiso   1.00
H48    H     0.05210   0.84120   0.07900   0.01267  Uiso   1.00
H49    H     0.96290   0.62570   0.18310   0.01267  Uiso   1.00
H50    H     0.14210   0.53540   0.20220   0.01267  Uiso   1.00
H51    H     0.33180   0.76310   0.15690   0.01267  Uiso   1.00
H52    H     0.70300   0.67020   0.36420   0.01267  Uiso   1.00
H53    H     0.87190   0.33050   0.32710   0.01267  Uiso   1.00
H54    H     0.98870   0.16790   0.28890   0.01267  Uiso   1.00
H55    H     0.92970   0.02900   0.44780   0.01267  Uiso   1.00
H56    H     0.80600   0.19330   0.48530   0.01267  Uiso   1.00
H57    H     0.40890   0.65600   0.38300   0.01267  Uiso   1.00
H58    H     0.16690   0.00770   0.41050   0.01267  Uiso   1.00
H59    H     0.32740   0.92580   0.44660   0.01267  Uiso   1.00
H60    H     0.02240   0.95370   0.21930   0.01267  Uiso   1.00
H61    H     0.09760   0.99060   0.12280   0.01267  Uiso   1.00
H62    H     0.33050   0.02740   0.17340   0.01267  Uiso   1.00
H63    H     0.25650   0.98780   0.27000   0.01267  Uiso   1.00
H64    H     0.07710   0.75240   0.40020   0.01267  Uiso   1.00
H65    H     0.97230   0.65880   0.42100   0.01267  Uiso   1.00
H66    H     0.77170   0.87430   0.31690   0.01267  Uiso   1.00
H67    H     0.87970   0.96460   0.29780   0.01267  Uiso   1.00
H68    H     0.25180   0.73690   0.34310   0.01267  Uiso   1.00
C1     C     0.43738   0.88150   0.93434   0.01267  Uiso   1.00
C2     C     0.48929   0.77647   0.90955   0.01267  Uiso   1.00
C3     C     0.49796   0.76883   0.85165   0.01267  Uiso   1.00
C4     C     0.54653   0.67187   0.82927   0.01267  Uiso   1.00
C5     C     0.58361   0.58067   0.86391   0.01267  Uiso   1.00
C6     C     0.57030   0.59030   0.92250   0.01267  Uiso   1.00
C7     C     0.52330   0.68850   0.94510   0.01267  Uiso   1.00
C8     C     0.41683   0.28193   0.92121   0.01267  Uiso   1.00
C9     C     0.52461   0.22770   0.88888   0.01267  Uiso   1.00
C10    C     0.55573   0.38162   0.87152   0.01267  Uiso   1.00
C11    C     0.44375   0.43595   0.90415   0.01267  Uiso   1.00
C12    C     0.37640   0.38663   0.92677   0.01267  Uiso   1.00
C13    C     0.34226   0.22887   0.94701   0.01267  Uiso   1.00
C14    C     0.73590   0.46847   0.71033   0.01267  Uiso   1.00
C15    C     0.72651   0.49069   0.65269   0.01267  Uiso   1.00
C16    C     0.62835   0.51262   0.63828   0.01267  Uiso   1.00
C17    C     0.53727   0.51212   0.68254   0.01267  Uiso   1.00
C18    C     0.54764   0.48899   0.74013   0.01267  Uiso   1.00
C19    C     0.64672   0.46755   0.75481   0.01267  Uiso   1.00
C20    C     0.79313   0.36853   0.84701   0.01267  Uiso   1.00
C21    C     0.00938   0.25854   0.87050   0.01267  Uiso   1.00
C22    C     0.12472   0.19983   0.88313   0.01267  Uiso   1.00
C23    C     0.82498   0.27754   0.88310   0.01267  Uiso   1.00
C24    C     0.93050   0.22060   0.89600   0.01267  Uiso   1.00
C25    C     0.98249   0.34918   0.83404   0.01267  Uiso   1.00
C26    C     0.87541   0.40281   0.82277   0.01267  Uiso   1.00
C27    C     0.61678   0.53457   0.57627   0.01267  Uiso   1.00
C28    C     0.59359   0.27630   0.86472   0.01267  Uiso   1.00
C29    C     0.25322   0.61850   0.56566   0.01267  Uiso   1.00
C30    C     0.17531   0.72353   0.59045   0.01267  Uiso   1.00
C31    C     0.11844   0.73117   0.64835   0.01267  Uiso   1.00
C32    C     0.04767   0.82813   0.67073   0.01267  Uiso   1.00
C33    C     0.02819   0.91933   0.63609   0.01267  Uiso   1.00
C34    C     0.08310   0.90970   0.57750   0.01267  Uiso   1.00
C35    C     0.15690   0.81150   0.55490   0.01267  Uiso   1.00
C36    C     0.61997   0.21807   0.57879   0.01267  Uiso   1.00
C37    C     0.64119   0.27230   0.61112   0.01267  Uiso   1.00
C38    C     0.80887   0.11838   0.62848   0.01267  Uiso   1.00
C39    C     0.78385   0.06405   0.59585   0.01267  Uiso   1.00
C40    C     0.68980   0.11337   0.57323   0.01267  Uiso   1.00
C41    C     0.51814   0.27113   0.55299   0.01267  Uiso   1.00
C42    C     0.91470   0.03153   0.78967   0.01267  Uiso   1.00
C43    C     0.86989   0.00931   0.84731   0.01267  Uiso   1.00
C44    C     0.77925   0.98738   0.86172   0.01267  Uiso   1.00
C45    C     0.73193   0.98788   0.81746   0.01267  Uiso   1.00
C46    C     0.77676   0.01101   0.75987   0.01267  Uiso   1.00
C47    C     0.86908   0.03245   0.74519   0.01267  Uiso   1.00
C48    C     0.00867   0.13147   0.65299   0.01267  Uiso   1.00
C49    C     0.13842   0.24146   0.62950   0.01267  Uiso   1.00
C50    C     0.20768   0.30017   0.61687   0.01267  Uiso   1.00
C51    C     0.98562   0.22246   0.61690   0.01267  Uiso   1.00
C52    C     0.04710   0.27940   0.60400   0.01267  Uiso   1.00
C53    C     0.16571   0.15082   0.66596   0.01267  Uiso   1.00
C54    C     0.10099   0.09719   0.67723   0.01267  Uiso   1.00
C55    C     0.72762   0.96543   0.92373   0.01267  Uiso   1.00
C56    C     0.73461   0.22370   0.63528   0.01267  Uiso   1.00
C57    C     0.56262   0.11850   0.06566   0.01267  Uiso   1.00
C58    C     0.51071   0.22353   0.09045   0.01267  Uiso   1.00
C59    C     0.50204   0.23117   0.14835   0.01267  Uiso   1.00
C60    C     0.45347   0.32813   0.17073   0.01267  Uiso   1.00
C61    C     0.41639   0.41933   0.13609   0.01267  Uiso   1.00
C62    C     0.42970   0.40970   0.07750   0.01267  Uiso   1.00
C63    C     0.47670   0.31150   0.05490   0.01267  Uiso   1.00
C64    C     0.58317   0.71807   0.07879   0.01267  Uiso   1.00
C65    C     0.47539   0.77230   0.11112   0.01267  Uiso   1.00
C66    C     0.44427   0.61838   0.12848   0.01267  Uiso   1.00
C67    C     0.55625   0.56405   0.09585   0.01267  Uiso   1.00
C68    C     0.62360   0.61337   0.07323   0.01267  Uiso   1.00
C69    C     0.65774   0.77113   0.05299   0.01267  Uiso   1.00
C70    C     0.26410   0.53153   0.28967   0.01267  Uiso   1.00
C71    C     0.27349   0.50931   0.34731   0.01267  Uiso   1.00
C72    C     0.37165   0.48738   0.36172   0.01267  Uiso   1.00
C73    C     0.46273   0.48788   0.31746   0.01267  Uiso   1.00
C74    C     0.45236   0.51101   0.25987   0.01267  Uiso   1.00
C75    C     0.35328   0.53245   0.24519   0.01267  Uiso   1.00
C76    C     0.20687   0.63147   0.15299   0.01267  Uiso   1.00
C77    C     0.99062   0.74146   0.12950   0.01267  Uiso   1.00
C78    C     0.87528   0.80017   0.11687   0.01267  Uiso   1.00
C79    C     0.17502   0.72246   0.11690   0.01267  Uiso   1.00
C80    C     0.06950   0.77940   0.10400   0.01267  Uiso   1.00
C81    C     0.01751   0.65082   0.16596   0.01267  Uiso   1.00
C82    C     0.12459   0.59719   0.17723   0.01267  Uiso   1.00
C83    C     0.38322   0.46543   0.42373   0.01267  Uiso   1.00
C84    C     0.40641   0.72370   0.13528   0.01267  Uiso   1.00
C85    C     0.74678   0.38150   0.43434   0.01267  Uiso   1.00
C86    C     0.82469   0.27647   0.40955   0.01267  Uiso   1.00
C87    C     0.88156   0.26883   0.35165   0.01267  Uiso   1.00
C88    C     0.95233   0.17187   0.32927   0.01267  Uiso   1.00
C89    C     0.97181   0.08067   0.36391   0.01267  Uiso   1.00
C90    C     0.91690   0.09030   0.42250   0.01267  Uiso   1.00
C91    C     0.84310   0.18850   0.44510   0.01267  Uiso   1.00
C92    C     0.38003   0.78193   0.42121   0.01267  Uiso   1.00
C93    C     0.35881   0.72770   0.38888   0.01267  Uiso   1.00
C94    C     0.19113   0.88162   0.37152   0.01267  Uiso   1.00
C95    C     0.21615   0.93595   0.40415   0.01267  Uiso   1.00
C96    C     0.31020   0.88663   0.42677   0.01267  Uiso   1.00
C97    C     0.48186   0.72887   0.44701   0.01267  Uiso   1.00
C98    C     0.08530   0.96847   0.21033   0.01267  Uiso   1.00
C99    C     0.13011   0.99069   0.15269   0.01267  Uiso   1.00
C100   C     0.22075   0.01262   0.13828   0.01267  Uiso   1.00
C101   C     0.26807   0.01212   0.18254   0.01267  Uiso   1.00
C102   C     0.22324   0.98899   0.24013   0.01267  Uiso   1.00
C103   C     0.13092   0.96755   0.25481   0.01267  Uiso   1.00
C104   C     0.99133   0.86853   0.34701   0.01267  Uiso   1.00
C105   C     0.86158   0.75854   0.37050   0.01267  Uiso   1.00
C106   C     0.79232   0.69983   0.38313   0.01267  Uiso   1.00
C107   C     0.01438   0.77754   0.38310   0.01267  Uiso   1.00
C108   C     0.95290   0.72060   0.39600   0.01267  Uiso   1.00
C109   C     0.83429   0.84918   0.33404   0.01267  Uiso   1.00
C110   C     0.89901   0.90281   0.32277   0.01267  Uiso   1.00
C111   C     0.27238   0.03457   0.07627   0.01267  Uiso   1.00
C112   C     0.26539   0.77630   0.36472   0.01267  Uiso   1.00
O1     O     0.35857   0.95475   0.91301   0.01267  Uiso   1.00
O2     O     0.47328   0.88816   0.97488   0.01267  Uiso   1.00
O3     O     0.69417   0.54860   0.53806   0.01267  Uiso   1.00
O4     O     0.53109   0.53656   0.56722   0.01267  Uiso   1.00
O5     O     0.24207   0.27790   0.96996   0.01267  Uiso   1.00
O6     O     0.38997   0.12776   0.94232   0.01267  Uiso   1.00
O7     O     0.12770   0.15345   0.93235   0.01267  Uiso   1.00
O8     O     0.20510   0.20803   0.85077   0.01267  Uiso   1.00
O9     O     0.22633   0.54525   0.58699   0.01267  Uiso   1.00
O10    O     0.33632   0.61184   0.52512   0.01267  Uiso   1.00
O11    O     0.78083   0.95140   0.96194   0.01267  Uiso   1.00
O12    O     0.63487   0.96344   0.93278   0.01267  Uiso   1.00
O13    O     0.48993   0.22210   0.53004   0.01267  Uiso   1.00
O14    O     0.46005   0.37224   0.55768   0.01267  Uiso   1.00
O15    O     0.21350   0.34655   0.56765   0.01267  Uiso   1.00
O16    O     0.26390   0.29197   0.64923   0.01267  Uiso   1.00
O17    O     0.64143   0.04525   0.08699   0.01267  Uiso   1.00
O18    O     0.52672   0.11184   0.02512   0.01267  Uiso   1.00
O19    O     0.30583   0.45140   0.46194   0.01267  Uiso   1.00
O20    O     0.46891   0.46344   0.43278   0.01267  Uiso   1.00
O21    O     0.75793   0.72210   0.03004   0.01267  Uiso   1.00
O22    O     0.61003   0.87224   0.05768   0.01267  Uiso   1.00
O23    O     0.87230   0.84655   0.06765   0.01267  Uiso   1.00
O24    O     0.79490   0.79197   0.14923   0.01267  Uiso   1.00
O25    O     0.77367   0.45475   0.41301   0.01267  Uiso   1.00
O26    O     0.66368   0.38816   0.47488   0.01267  Uiso   1.00
O27    O     0.21917   0.04860   0.03806   0.01267  Uiso   1.00
O28    O     0.36513   0.03656   0.06722   0.01267  Uiso   1.00
O29    O     0.51007   0.77790   0.46996   0.01267  Uiso   1.00
O30    O     0.53995   0.62776   0.44232   0.01267  Uiso   1.00
O31    O     0.78650   0.65345   0.43235   0.01267  Uiso   1.00
O32    O     0.73610   0.70803   0.35077   0.01267  Uiso   1.00
