data_image0
_cell_length_a       7.512
_cell_length_b       16.53
_cell_length_c       14.154
_cell_angle_alpha    90
_cell_angle_beta     90.71
_cell_angle_gamma    90

_symmetry_space_group_name_H-M    "P 1"
_symmetry_int_tables_number       1

loop_
  _symmetry_equiv_pos_as_xyz
  'x, y, z'

loop_
  _atom_site_label
  _atom_site_occupancy
  _atom_site_fract_x
  _atom_site_fract_y
  _atom_site_fract_z
  _atom_site_thermal_displace_type
  _atom_site_B_iso_or_equiv
  _atom_site_type_symbol
  O1       1.0000 0.41090  0.39264  0.56980  Biso   1.000  O
  O2       1.0000 0.12270  0.41291  0.59680  Biso   1.000  O
  O3       1.0000 0.12160  0.07761  0.89830  Biso   1.000  O
  O4       1.0000 0.40890  0.10248  0.92820  Biso   1.000  O
  O5       1.0000 0.24930  0.50623  0.40340  Biso   1.000  O
  C1       1.0000 0.33530  0.31610  0.76560  Biso   1.000  C
  H1       1.0000 0.38240  0.36610  0.78290  Biso   1.000  H
  C2       1.0000 0.33560  0.25280  0.83120  Biso   1.000  C
  H2       1.0000 0.38220  0.26160  0.89150  Biso   1.000  H
  C3       1.0000 0.26860  0.17810  0.80850  Biso   1.000  C
  C4       1.0000 0.20070  0.16350  0.71490  Biso   1.000  C
  C5       1.0000 0.14300  0.08640  0.68520  Biso   1.000  C
  H3       1.0000 0.14410  0.04360  0.72780  Biso   1.000  H
  C6       1.0000 0.08530  0.07410  0.59420  Biso   1.000  C
  H4       1.0000 0.05140  0.02250  0.57480  Biso   1.000  H
  C7       1.0000 0.07710  0.13860  0.53030  Biso   1.000  C
  H5       1.0000 0.03450  0.12980  0.46910  Biso   1.000  H
  C8       1.0000 0.13030  0.21340  0.55650  Biso   1.000  C
  H6       1.0000 0.12270  0.25570  0.51330  Biso   1.000  H
  C9       1.0000 0.19730  0.22850  0.64870  Biso   1.000  C
  C10      1.0000 0.26650  0.30550  0.67590  Biso   1.000  C
  C11      1.0000 0.26700  0.37530  0.60850  Biso   1.000  C
  C12      1.0000 0.26610  0.11450  0.88360  Biso   1.000  C
  O6       1.0000 0.08910  0.89264  0.93020  Biso   1.000  O
  O7       1.0000 0.37730  0.91291  0.90320  Biso   1.000  O
  O8       1.0000 0.37840  0.57761  0.60170  Biso   1.000  O
  O9       1.0000 0.09110  0.60248  0.57180  Biso   1.000  O
  O10      1.0000 0.25070  0.00623  0.09660  Biso   1.000  O
  C13      1.0000 0.16470  0.81610  0.73440  Biso   1.000  C
  H7       1.0000 0.11760  0.86610  0.71710  Biso   1.000  H
  C14      1.0000 0.16440  0.75280  0.66880  Biso   1.000  C
  H8       1.0000 0.11780  0.76160  0.60850  Biso   1.000  H
  C15      1.0000 0.23140  0.67810  0.69150  Biso   1.000  C
  C16      1.0000 0.29930  0.66350  0.78510  Biso   1.000  C
  C17      1.0000 0.35700  0.58640  0.81480  Biso   1.000  C
  H9       1.0000 0.35590  0.54360  0.77220  Biso   1.000  H
  C18      1.0000 0.41470  0.57410  0.90580  Biso   1.000  C
  H10      1.0000 0.44860  0.52250  0.92520  Biso   1.000  H
  C19      1.0000 0.42290  0.63860  0.96970  Biso   1.000  C
  H11      1.0000 0.46550  0.62980  0.03090  Biso   1.000  H
  C20      1.0000 0.36970  0.71340  0.94350  Biso   1.000  C
  H12      1.0000 0.37730  0.75570  0.98670  Biso   1.000  H
  C21      1.0000 0.30270  0.72850  0.85130  Biso   1.000  C
  C22      1.0000 0.23350  0.80550  0.82410  Biso   1.000  C
  C23      1.0000 0.23300  0.87530  0.89150  Biso   1.000  C
  C24      1.0000 0.23390  0.61450  0.61640  Biso   1.000  C
  O11      1.0000 0.58910  0.60736  0.43020  Biso   1.000  O
  O12      1.0000 0.87730  0.58709  0.40320  Biso   1.000  O
  O13      1.0000 0.87840  0.92239  0.10170  Biso   1.000  O
  O14      1.0000 0.59110  0.89752  0.07180  Biso   1.000  O
  O15      1.0000 0.75070  0.49377  0.59660  Biso   1.000  O
  C25      1.0000 0.66470  0.68390  0.23440  Biso   1.000  C
  H13      1.0000 0.61760  0.63390  0.21710  Biso   1.000  H
  C26      1.0000 0.66440  0.74720  0.16880  Biso   1.000  C
  H14      1.0000 0.61780  0.73840  0.10850  Biso   1.000  H
  C27      1.0000 0.73140  0.82190  0.19150  Biso   1.000  C
  C28      1.0000 0.79930  0.83650  0.28510  Biso   1.000  C
  C29      1.0000 0.85700  0.91360  0.31480  Biso   1.000  C
  H15      1.0000 0.85590  0.95640  0.27220  Biso   1.000  H
  C30      1.0000 0.91470  0.92590  0.40580  Biso   1.000  C
  H16      1.0000 0.94860  0.97750  0.42520  Biso   1.000  H
  C31      1.0000 0.92290  0.86140  0.46970  Biso   1.000  C
  H17      1.0000 0.96550  0.87020  0.53090  Biso   1.000  H
  C32      1.0000 0.86970  0.78660  0.44350  Biso   1.000  C
  H18      1.0000 0.87730  0.74430  0.48670  Biso   1.000  H
  C33      1.0000 0.80270  0.77150  0.35130  Biso   1.000  C
  C34      1.0000 0.73350  0.69450  0.32410  Biso   1.000  C
  C35      1.0000 0.73300  0.62470  0.39150  Biso   1.000  C
  C36      1.0000 0.73390  0.88550  0.11640  Biso   1.000  C
  O16      1.0000 0.91090  0.10736  0.06980  Biso   1.000  O
  O17      1.0000 0.62270  0.08709  0.09680  Biso   1.000  O
  O18      1.0000 0.62160  0.42239  0.39830  Biso   1.000  O
  O19      1.0000 0.90890  0.39752  0.42820  Biso   1.000  O
  O20      1.0000 0.74930  0.99377  0.90340  Biso   1.000  O
  C37      1.0000 0.83530  0.18390  0.26560  Biso   1.000  C
  H19      1.0000 0.88240  0.13390  0.28290  Biso   1.000  H
  C38      1.0000 0.83560  0.24720  0.33120  Biso   1.000  C
  H20      1.0000 0.88220  0.23840  0.39150  Biso   1.000  H
  C39      1.0000 0.76860  0.32190  0.30850  Biso   1.000  C
  C40      1.0000 0.70070  0.33650  0.21490  Biso   1.000  C
  C41      1.0000 0.64300  0.41360  0.18520  Biso   1.000  C
  H21      1.0000 0.64410  0.45640  0.22780  Biso   1.000  H
  C42      1.0000 0.58530  0.42590  0.09420  Biso   1.000  C
  H22      1.0000 0.55140  0.47750  0.07480  Biso   1.000  H
  C43      1.0000 0.57710  0.36140  0.03030  Biso   1.000  C
  H23      1.0000 0.53450  0.37020  0.96910  Biso   1.000  H
  C44      1.0000 0.63030  0.28660  0.05650  Biso   1.000  C
  H24      1.0000 0.62270  0.24430  0.01330  Biso   1.000  H
  C45      1.0000 0.69730  0.27150  0.14870  Biso   1.000  C
  C46      1.0000 0.76650  0.19450  0.17590  Biso   1.000  C
  C47      1.0000 0.76700  0.12470  0.10850  Biso   1.000  C
  C48      1.0000 0.76610  0.38550  0.38360  Biso   1.000  C
  Mn1      1.0000 0.00000  0.50000  0.50000  Biso   1.000  Mn
  Mn2      1.0000 0.50000  0.00000  0.00000  Biso   1.000  Mn
  Mn3      1.0000 0.50000  0.50000  0.50000  Biso   1.000  Mn
  Mn4      1.0000 0.00000  0.00000  0.00000  Biso   1.000  Mn
