data_ODUNEH_clean
_audit_creation_date              2014-07-02
_audit_creation_method            'Materials Studio'
_symmetry_space_group_name_H-M    'P1'
_symmetry_Int_Tables_number       1
_symmetry_cell_setting            triclinic
loop_
_symmetry_equiv_pos_as_xyz
  x,y,z
_cell_length_a                    12.8290
_cell_length_b                    18.5280
_cell_length_c                    21.3237
_cell_angle_alpha                 95.9025
_cell_angle_beta                  107.5070
_cell_angle_gamma                 70.0099
loop_
_atom_site_label
_atom_site_type_symbol
_atom_site_fract_x
_atom_site_fract_y
_atom_site_fract_z
_atom_site_U_iso_or_equiv
_atom_site_adp_type
_atom_site_occupancy
Zn1    Zn    0.82838   0.09377   0.80818   0.01267  Uiso   1.00
Zn2    Zn    0.95252   0.10360   0.69706   0.01267  Uiso   1.00
Zn3    Zn    0.97980   0.40623   0.80818   0.01267  Uiso   1.00
Zn4    Zn    0.74454   0.39640   0.69706   0.01267  Uiso   1.00
Zn5    Zn    0.17162   0.90623   0.19182   0.01267  Uiso   1.00
Zn6    Zn    0.04748   0.89640   0.30294   0.01267  Uiso   1.00
Zn7    Zn    0.02020   0.59377   0.19182   0.01267  Uiso   1.00
Zn8    Zn    0.25546   0.60360   0.30294   0.01267  Uiso   1.00
Zn9    Zn    0.09721   0.75000   0.19442   0.01267  Uiso   1.00
Zn10   Zn    0.90279   0.25000   0.80558   0.01267  Uiso   1.00
H1     H     0.16040   0.98770   0.94540   0.01267  Uiso   1.00
H2     H     0.34270   0.92450   0.01380   0.01267  Uiso   1.00
H3     H     0.46740   0.87730   0.85580   0.01267  Uiso   1.00
H4     H     0.29110   0.94740   0.78920   0.01267  Uiso   1.00
H5     H     0.55120   0.93880   0.05620   0.01267  Uiso   1.00
H6     H     0.73620   0.88140   0.11500   0.01267  Uiso   1.00
H7     H     0.76190   0.69390   0.00340   0.01267  Uiso   1.00
H8     H     0.58050   0.75380   0.93380   0.01267  Uiso   1.00
H9     H     0.69980   0.92010   0.69380   0.01267  Uiso   1.00
H10    H     0.60770   0.84170   0.62200   0.01267  Uiso   1.00
H11    H     0.65610   0.92190   0.47420   0.01267  Uiso   1.00
H12    H     0.77270   0.98050   0.54620   0.01267  Uiso   1.00
H13    H     0.63360   0.72750   0.55400   0.01267  Uiso   1.00
H14    H     0.54030   0.64860   0.48120   0.01267  Uiso   1.00
H15    H     0.38180   0.82200   0.35280   0.01267  Uiso   1.00
H16    H     0.47500   0.90020   0.43020   0.01267  Uiso   1.00
H17    H     0.78500   0.51230   0.94540   0.01267  Uiso   1.00
H18    H     0.67110   0.57550   0.01380   0.01267  Uiso   1.00
H19    H     0.38840   0.62270   0.85580   0.01267  Uiso   1.00
H20    H     0.49810   0.55260   0.78920   0.01267  Uiso   1.00
H21    H     0.50500   0.56120   0.05620   0.01267  Uiso   1.00
H22    H     0.37880   0.61860   0.11500   0.01267  Uiso   1.00
H23    H     0.24150   0.80610   0.00340   0.01267  Uiso   1.00
H24    H     0.35330   0.74620   0.93380   0.01267  Uiso   1.00
H25    H     0.99400   0.57990   0.69380   0.01267  Uiso   1.00
H26    H     0.01430   0.65830   0.62200   0.01267  Uiso   1.00
H27    H     0.81810   0.57810   0.47420   0.01267  Uiso   1.00
H28    H     0.77350   0.51950   0.54620   0.01267  Uiso   1.00
H29    H     0.92040   0.77250   0.55400   0.01267  Uiso   1.00
H30    H     0.94090   0.85140   0.48120   0.01267  Uiso   1.00
H31    H     0.97100   0.67800   0.35280   0.01267  Uiso   1.00
H32    H     0.95520   0.59980   0.43020   0.01267  Uiso   1.00
H33    H     0.83960   0.01230   0.05460   0.01267  Uiso   1.00
H34    H     0.65730   0.07550   0.98620   0.01267  Uiso   1.00
H35    H     0.53260   0.12270   0.14420   0.01267  Uiso   1.00
H36    H     0.70890   0.05260   0.21080   0.01267  Uiso   1.00
H37    H     0.44880   0.06120   0.94380   0.01267  Uiso   1.00
H38    H     0.26380   0.11860   0.88500   0.01267  Uiso   1.00
H39    H     0.23810   0.30610   0.99660   0.01267  Uiso   1.00
H40    H     0.41950   0.24620   0.06620   0.01267  Uiso   1.00
H41    H     0.30020   0.07990   0.30620   0.01267  Uiso   1.00
H42    H     0.39230   0.15830   0.37800   0.01267  Uiso   1.00
H43    H     0.34390   0.07810   0.52580   0.01267  Uiso   1.00
H44    H     0.22730   0.01950   0.45380   0.01267  Uiso   1.00
H45    H     0.36640   0.27250   0.44600   0.01267  Uiso   1.00
H46    H     0.45970   0.35140   0.51880   0.01267  Uiso   1.00
H47    H     0.61820   0.17800   0.64720   0.01267  Uiso   1.00
H48    H     0.52500   0.09980   0.56980   0.01267  Uiso   1.00
H49    H     0.21500   0.48770   0.05460   0.01267  Uiso   1.00
H50    H     0.32890   0.42450   0.98620   0.01267  Uiso   1.00
H51    H     0.61160   0.37730   0.14420   0.01267  Uiso   1.00
H52    H     0.50190   0.44740   0.21080   0.01267  Uiso   1.00
H53    H     0.49500   0.43880   0.94380   0.01267  Uiso   1.00
H54    H     0.62120   0.38140   0.88500   0.01267  Uiso   1.00
H55    H     0.75850   0.19390   0.99660   0.01267  Uiso   1.00
H56    H     0.64670   0.25380   0.06620   0.01267  Uiso   1.00
H57    H     0.00600   0.42010   0.30620   0.01267  Uiso   1.00
H58    H     0.98570   0.34170   0.37800   0.01267  Uiso   1.00
H59    H     0.18190   0.42190   0.52580   0.01267  Uiso   1.00
H60    H     0.22650   0.48050   0.45380   0.01267  Uiso   1.00
H61    H     0.07960   0.22750   0.44600   0.01267  Uiso   1.00
H62    H     0.05910   0.14860   0.51880   0.01267  Uiso   1.00
H63    H     0.02900   0.32200   0.64720   0.01267  Uiso   1.00
H64    H     0.04480   0.40020   0.56980   0.01267  Uiso   1.00
C1     C     0.09200   0.02270   0.81820   0.01267  Uiso   1.00
C2     C     0.20626   0.97640   0.86072   0.01267  Uiso   1.00
C3     C     0.22280   0.96720   0.92800   0.01267  Uiso   1.00
C4     C     0.33152   0.92770   0.96884   0.01267  Uiso   1.00
C5     C     0.42420   0.89290   0.94200   0.01267  Uiso   1.00
C6     C     0.40620   0.90070   0.87380   0.01267  Uiso   1.00
C7     C     0.30085   0.94200   0.83370   0.01267  Uiso   1.00
C8     C     0.54288   0.85380   0.98536   0.01267  Uiso   1.00
C9     C     0.59358   0.89080   0.04356   0.01267  Uiso   1.00
C10    C     0.70253   0.85540   0.07946   0.01267  Uiso   1.00
C11    C     0.76843   0.78000   0.06546   0.01267  Uiso   1.00
C12    C     0.72048   0.74380   0.01256   0.01267  Uiso   1.00
C13    C     0.61007   0.77940   0.97114   0.01267  Uiso   1.00
C14    C     0.88816   0.74350   0.10992   0.01267  Uiso   1.00
C15    C     0.80690   0.01040   0.67020   0.01267  Uiso   1.00
C16    C     0.74994   0.96130   0.62668   0.01267  Uiso   1.00
C17    C     0.69687   0.91820   0.64954   0.01267  Uiso   1.00
C18    C     0.63858   0.87160   0.60536   0.01267  Uiso   1.00
C19    C     0.62664   0.86950   0.53908   0.01267  Uiso   1.00
C20    C     0.67002   0.91580   0.51904   0.01267  Uiso   1.00
C21    C     0.73562   0.95560   0.56344   0.01267  Uiso   1.00
C22    C     0.56501   0.82350   0.49922   0.01267  Uiso   1.00
C23    C     0.58189   0.74790   0.51398   0.01267  Uiso   1.00
C24    C     0.52326   0.69960   0.47052   0.01267  Uiso   1.00
C25    C     0.44395   0.73020   0.41470   0.01267  Uiso   1.00
C26    C     0.42850   0.80330   0.39420   0.01267  Uiso   1.00
C27    C     0.48980   0.84970   0.44140   0.01267  Uiso   1.00
C28    C     0.38167   0.68260   0.36854   0.01267  Uiso   1.00
C29    C     0.72620   0.47730   0.81820   0.01267  Uiso   1.00
C30    C     0.65446   0.52360   0.86072   0.01267  Uiso   1.00
C31    C     0.70520   0.53280   0.92800   0.01267  Uiso   1.00
C32    C     0.63732   0.57230   0.96884   0.01267  Uiso   1.00
C33    C     0.51780   0.60710   0.94200   0.01267  Uiso   1.00
C34    C     0.46760   0.59930   0.87380   0.01267  Uiso   1.00
C35    C     0.53285   0.55800   0.83370   0.01267  Uiso   1.00
C36    C     0.44248   0.64620   0.98536   0.01267  Uiso   1.00
C37    C     0.44998   0.60920   0.04356   0.01267  Uiso   1.00
C38    C     0.37693   0.64460   0.07946   0.01267  Uiso   1.00
C39    C     0.29703   0.72000   0.06546   0.01267  Uiso   1.00
C40    C     0.29208   0.75620   0.01256   0.01267  Uiso   1.00
C41    C     0.36107   0.72060   0.97114   0.01267  Uiso   1.00
C42    C     0.22176   0.75650   0.10992   0.01267  Uiso   1.00
C43    C     0.86330   0.48960   0.67020   0.01267  Uiso   1.00
C44    C     0.87674   0.53870   0.62668   0.01267  Uiso   1.00
C45    C     0.95267   0.58180   0.64954   0.01267  Uiso   1.00
C46    C     0.96678   0.62840   0.60536   0.01267  Uiso   1.00
C47    C     0.91244   0.63050   0.53908   0.01267  Uiso   1.00
C48    C     0.84902   0.58420   0.51904   0.01267  Uiso   1.00
C49    C     0.82782   0.54440   0.56344   0.01267  Uiso   1.00
C50    C     0.93421   0.67650   0.49922   0.01267  Uiso   1.00
C51    C     0.93209   0.75210   0.51398   0.01267  Uiso   1.00
C52    C     0.94726   0.80040   0.47052   0.01267  Uiso   1.00
C53    C     0.97075   0.76980   0.41470   0.01267  Uiso   1.00
C54    C     0.96570   0.69670   0.39420   0.01267  Uiso   1.00
C55    C     0.95160   0.65030   0.44140   0.01267  Uiso   1.00
C56    C     0.98687   0.81740   0.36854   0.01267  Uiso   1.00
C57    C     0.90800   0.97730   0.18180   0.01267  Uiso   1.00
C58    C     0.79374   0.02360   0.13928   0.01267  Uiso   1.00
C59    C     0.77720   0.03280   0.07200   0.01267  Uiso   1.00
C60    C     0.66848   0.07230   0.03116   0.01267  Uiso   1.00
C61    C     0.57580   0.10710   0.05800   0.01267  Uiso   1.00
C62    C     0.59380   0.09930   0.12620   0.01267  Uiso   1.00
C63    C     0.69915   0.05800   0.16630   0.01267  Uiso   1.00
C64    C     0.45712   0.14620   0.01464   0.01267  Uiso   1.00
C65    C     0.40642   0.10920   0.95644   0.01267  Uiso   1.00
C66    C     0.29747   0.14460   0.92054   0.01267  Uiso   1.00
C67    C     0.23157   0.22000   0.93454   0.01267  Uiso   1.00
C68    C     0.27952   0.25620   0.98744   0.01267  Uiso   1.00
C69    C     0.38993   0.22060   0.02886   0.01267  Uiso   1.00
C70    C     0.11184   0.25650   0.89008   0.01267  Uiso   1.00
C71    C     0.19310   0.98960   0.32980   0.01267  Uiso   1.00
C72    C     0.25006   0.03870   0.37332   0.01267  Uiso   1.00
C73    C     0.30313   0.08180   0.35046   0.01267  Uiso   1.00
C74    C     0.36142   0.12840   0.39464   0.01267  Uiso   1.00
C75    C     0.37336   0.13050   0.46092   0.01267  Uiso   1.00
C76    C     0.32998   0.08420   0.48096   0.01267  Uiso   1.00
C77    C     0.26438   0.04440   0.43656   0.01267  Uiso   1.00
C78    C     0.43499   0.17650   0.50078   0.01267  Uiso   1.00
C79    C     0.41811   0.25210   0.48602   0.01267  Uiso   1.00
C80    C     0.47674   0.30040   0.52948   0.01267  Uiso   1.00
C81    C     0.55605   0.26980   0.58530   0.01267  Uiso   1.00
C82    C     0.57150   0.19670   0.60580   0.01267  Uiso   1.00
C83    C     0.51020   0.15030   0.55860   0.01267  Uiso   1.00
C84    C     0.61833   0.31740   0.63146   0.01267  Uiso   1.00
C85    C     0.27380   0.52270   0.18180   0.01267  Uiso   1.00
C86    C     0.34554   0.47640   0.13928   0.01267  Uiso   1.00
C87    C     0.29480   0.46720   0.07200   0.01267  Uiso   1.00
C88    C     0.36268   0.42770   0.03116   0.01267  Uiso   1.00
C89    C     0.48220   0.39290   0.05800   0.01267  Uiso   1.00
C90    C     0.53240   0.40070   0.12620   0.01267  Uiso   1.00
C91    C     0.46715   0.44200   0.16630   0.01267  Uiso   1.00
C92    C     0.55752   0.35380   0.01464   0.01267  Uiso   1.00
C93    C     0.55002   0.39080   0.95644   0.01267  Uiso   1.00
C94    C     0.62307   0.35540   0.92054   0.01267  Uiso   1.00
C95    C     0.70297   0.28000   0.93454   0.01267  Uiso   1.00
C96    C     0.70792   0.24380   0.98744   0.01267  Uiso   1.00
C97    C     0.63893   0.27940   0.02886   0.01267  Uiso   1.00
C98    C     0.77824   0.24350   0.89008   0.01267  Uiso   1.00
C99    C     0.13670   0.51040   0.32980   0.01267  Uiso   1.00
C100   C     0.12326   0.46130   0.37332   0.01267  Uiso   1.00
C101   C     0.04733   0.41820   0.35046   0.01267  Uiso   1.00
C102   C     0.03322   0.37160   0.39464   0.01267  Uiso   1.00
C103   C     0.08756   0.36950   0.46092   0.01267  Uiso   1.00
C104   C     0.15098   0.41580   0.48096   0.01267  Uiso   1.00
C105   C     0.17218   0.45560   0.43656   0.01267  Uiso   1.00
C106   C     0.06579   0.32350   0.50078   0.01267  Uiso   1.00
C107   C     0.06791   0.24790   0.48602   0.01267  Uiso   1.00
C108   C     0.05274   0.19960   0.52948   0.01267  Uiso   1.00
C109   C     0.02925   0.23020   0.58530   0.01267  Uiso   1.00
C110   C     0.03430   0.30330   0.60580   0.01267  Uiso   1.00
C111   C     0.04840   0.34970   0.55860   0.01267  Uiso   1.00
C112   C     0.01313   0.18260   0.63146   0.01267  Uiso   1.00
O1     O     0.00724   0.04300   0.84368   0.01267  Uiso   1.00
O2     O     0.08758   0.03677   0.76116   0.01267  Uiso   1.00
O3     O     0.80854   0.01550   0.72948   0.01267  Uiso   1.00
O4     O     0.85864   0.04078   0.64508   0.01267  Uiso   1.00
O5     O     0.93670   0.79068   0.14300   0.01267  Uiso   1.00
O6     O     0.93115   0.67323   0.11090   0.01267  Uiso   1.00
O7     O     0.39029   0.62030   0.38198   0.01267  Uiso   1.00
O8     O     0.32036   0.70640   0.31292   0.01267  Uiso   1.00
O9     O     0.09844   0.66875   0.24908   0.01267  Uiso   1.00
O10    O     0.83644   0.45700   0.84368   0.01267  Uiso   1.00
O11    O     0.67358   0.46323   0.76116   0.01267  Uiso   1.00
O12    O     0.92094   0.48450   0.72948   0.01267  Uiso   1.00
O13    O     0.78644   0.45922   0.64508   0.01267  Uiso   1.00
O14    O     0.20630   0.70932   0.14300   0.01267  Uiso   1.00
O15    O     0.17975   0.82677   0.11090   0.01267  Uiso   1.00
O16    O     0.99169   0.87970   0.38198   0.01267  Uiso   1.00
O17    O     0.99256   0.79360   0.31292   0.01267  Uiso   1.00
O18    O     0.15064   0.83125   0.24908   0.01267  Uiso   1.00
O19    O     0.99276   0.95700   0.15632   0.01267  Uiso   1.00
O20    O     0.91242   0.96323   0.23884   0.01267  Uiso   1.00
O21    O     0.19146   0.98450   0.27052   0.01267  Uiso   1.00
O22    O     0.14136   0.95922   0.35492   0.01267  Uiso   1.00
O23    O     0.06330   0.20932   0.85700   0.01267  Uiso   1.00
O24    O     0.06885   0.32677   0.88910   0.01267  Uiso   1.00
O25    O     0.60971   0.37970   0.61802   0.01267  Uiso   1.00
O26    O     0.67964   0.29360   0.68708   0.01267  Uiso   1.00
O27    O     0.90156   0.33125   0.75092   0.01267  Uiso   1.00
O28    O     0.16356   0.54300   0.15632   0.01267  Uiso   1.00
O29    O     0.32642   0.53677   0.23884   0.01267  Uiso   1.00
O30    O     0.07906   0.51550   0.27052   0.01267  Uiso   1.00
O31    O     0.21356   0.54078   0.35492   0.01267  Uiso   1.00
O32    O     0.79370   0.29068   0.85700   0.01267  Uiso   1.00
O33    O     0.82025   0.17323   0.88910   0.01267  Uiso   1.00
O34    O     0.00831   0.12030   0.61802   0.01267  Uiso   1.00
O35    O     0.00744   0.20640   0.68708   0.01267  Uiso   1.00
O36    O     0.84936   0.16875   0.75092   0.01267  Uiso   1.00
