data_OFAWEZ_clean
_audit_creation_date              2014-07-02
_audit_creation_method            'Materials Studio'
_symmetry_space_group_name_H-M    'P1'
_symmetry_Int_Tables_number       1
_symmetry_cell_setting            triclinic
loop_
_symmetry_equiv_pos_as_xyz
  x,y,z
_cell_length_a                    16.8098
_cell_length_b                    16.8098
_cell_length_c                    16.8098
_cell_angle_alpha                 63.1351
_cell_angle_beta                  84.4783
_cell_angle_gamma                 116.8650
loop_
_atom_site_label
_atom_site_type_symbol
_atom_site_fract_x
_atom_site_fract_y
_atom_site_fract_z
_atom_site_U_iso_or_equiv
_atom_site_adp_type
_atom_site_occupancy
Hf1    Hf    0.60827  -0.00000   0.39173   0.01267  Uiso   1.00
Hf2    Hf    0.39173   1.00000   0.60827   0.01267  Uiso   1.00
Hf3    Hf    0.40024   1.00000   0.40023   0.01267  Uiso   1.00
Hf4    Hf    0.59976   1.00000   0.59977   0.01267  Uiso   1.00
Hf5    Hf    0.40024   0.80048   0.59976   0.01267  Uiso   1.00
Hf6    Hf    0.59976   0.19952   0.40024   0.01267  Uiso   1.00
H1     H     0.64420   1.00000   0.12740   0.01267  Uiso   1.00
H2     H     0.65590   1.00000   0.99030   0.01267  Uiso   1.00
H3     H     0.40640  -0.00000   0.13320   0.01267  Uiso   1.00
H4     H     0.87260  -0.00000   0.35580   0.01267  Uiso   1.00
H5     H     0.00970  -0.00000   0.34410   0.01267  Uiso   1.00
H6     H     0.86680  -0.00000   0.59360   0.01267  Uiso   1.00
H7     H     0.64420   0.77160   0.35580   0.01267  Uiso   1.00
H8     H     0.65590   0.64620   0.34410   0.01267  Uiso   1.00
H9     H     0.40640   0.53960   0.59360   0.01267  Uiso   1.00
H10    H     0.87260   0.22840   0.12740   0.01267  Uiso   1.00
H11    H     0.00970   0.35380   0.99030   0.01267  Uiso   1.00
H12    H     0.86680   0.46040   0.13320   0.01267  Uiso   1.00
H13    H     0.12740   0.77160   0.87260   0.01267  Uiso   1.00
H14    H     0.99030   0.64620   0.00970   0.01267  Uiso   1.00
H15    H     0.13320   0.53960   0.86680   0.01267  Uiso   1.00
H16    H     0.35580   0.22840   0.64420   0.01267  Uiso   1.00
H17    H     0.34410   0.35380   0.65590   0.01267  Uiso   1.00
H18    H     0.59360   0.46040   0.40640   0.01267  Uiso   1.00
H19    H     0.12740  -0.00000   0.64420   0.01267  Uiso   1.00
H20    H     0.99030   1.00000   0.65590   0.01267  Uiso   1.00
H21    H     0.13320  -0.00000   0.40640   0.01267  Uiso   1.00
H22    H     0.35580  -0.00000   0.87260   0.01267  Uiso   1.00
H23    H     0.34410  -0.00000   0.00970   0.01267  Uiso   1.00
H24    H     0.59360   1.00000   0.86680   0.01267  Uiso   1.00
C1     C     0.51990  -0.00000   0.23510   0.01267  Uiso   1.00
C2     C     0.52460   1.00000   0.14560   0.01267  Uiso   1.00
C3     C     0.59810   1.00000   0.10090   0.01267  Uiso   1.00
C4     C     0.60550  -0.00000   0.01830   0.01267  Uiso   1.00
C5     C     0.53750   0.00000   0.97690   0.01267  Uiso   1.00
C6     C     0.45660  -0.00000   0.10460   0.01267  Uiso   1.00
C7     C     0.76490   1.00000   0.48010   0.01267  Uiso   1.00
C8     C     0.85440   1.00000   0.47540   0.01267  Uiso   1.00
C9     C     0.89910  -0.00000   0.40190   0.01267  Uiso   1.00
C10    C     0.98170   1.00000   0.39450   0.01267  Uiso   1.00
C11    C     0.02310   1.00000   0.46250   0.01267  Uiso   1.00
C12    C     0.89540   0.00000   0.54340   0.01267  Uiso   1.00
C13    C     0.51990   0.75500   0.48010   0.01267  Uiso   1.00
C14    C     0.52460   0.67020   0.47540   0.01267  Uiso   1.00
C15    C     0.59810   0.69900   0.40190   0.01267  Uiso   1.00
C16    C     0.60550   0.62380   0.39450   0.01267  Uiso   1.00
C17    C     0.53750   0.51440   0.46250   0.01267  Uiso   1.00
C18    C     0.45660   0.56120   0.54340   0.01267  Uiso   1.00
C19    C     0.76490   0.24500   0.23510   0.01267  Uiso   1.00
C20    C     0.85440   0.32980   0.14560   0.01267  Uiso   1.00
C21    C     0.89910   0.30100   0.10090   0.01267  Uiso   1.00
C22    C     0.98170   0.37620   0.01830   0.01267  Uiso   1.00
C23    C     0.02310   0.48560   0.97690   0.01267  Uiso   1.00
C24    C     0.89540   0.43880   0.10460   0.01267  Uiso   1.00
C25    C     0.23510   0.75500   0.76490   0.01267  Uiso   1.00
C26    C     0.14560   0.67020   0.85440   0.01267  Uiso   1.00
C27    C     0.10090   0.69900   0.89910   0.01267  Uiso   1.00
C28    C     0.01830   0.62380   0.98170   0.01267  Uiso   1.00
C29    C     0.97690   0.51440   0.02310   0.01267  Uiso   1.00
C30    C     0.10460   0.56120   0.89540   0.01267  Uiso   1.00
C31    C     0.48010   0.24500   0.51990   0.01267  Uiso   1.00
C32    C     0.47540   0.32980   0.52460   0.01267  Uiso   1.00
C33    C     0.40190   0.30100   0.59810   0.01267  Uiso   1.00
C34    C     0.39450   0.37620   0.60550   0.01267  Uiso   1.00
C35    C     0.46250   0.48560   0.53750   0.01267  Uiso   1.00
C36    C     0.54340   0.43880   0.45660   0.01267  Uiso   1.00
C37    C     0.23510  -0.00000   0.51990   0.01267  Uiso   1.00
C38    C     0.14560   1.00000   0.52460   0.01267  Uiso   1.00
C39    C     0.10090   1.00000   0.59810   0.01267  Uiso   1.00
C40    C     0.01830   1.00000   0.60550   0.01267  Uiso   1.00
C41    C     0.97690   1.00000   0.53750   0.01267  Uiso   1.00
C42    C     0.10460   1.00000   0.45660   0.01267  Uiso   1.00
C43    C     0.48010   1.00000   0.76490   0.01267  Uiso   1.00
C44    C     0.47540  -0.00000   0.85440   0.01267  Uiso   1.00
C45    C     0.40190   1.00000   0.89910   0.01267  Uiso   1.00
C46    C     0.39450  -0.00000   0.98170   0.01267  Uiso   1.00
C47    C     0.46250   1.00000   0.02310   0.01267  Uiso   1.00
C48    C     0.54340  -0.00000   0.89540   0.01267  Uiso   1.00
O1     O     0.58230   1.00000   0.26710   0.01267  Uiso   1.00
O2     O     0.44960   1.00000   0.27240   0.01267  Uiso   1.00
O3     O     0.73290   1.00000   0.41770   0.01267  Uiso   1.00
O4     O     0.72760   1.00000   0.55040   0.01267  Uiso   1.00
O5     O     0.58230   0.84940   0.41770   0.01267  Uiso   1.00
O6     O     0.44960   0.72200   0.55040   0.01267  Uiso   1.00
O7     O     0.73290   0.15060   0.26710   0.01267  Uiso   1.00
O8     O     0.72760   0.27800   0.27240   0.01267  Uiso   1.00
O9     O     0.26710   0.84940   0.73290   0.01267  Uiso   1.00
O10    O     0.27240   0.72200   0.72760   0.01267  Uiso   1.00
O11    O     0.41770   0.15060   0.58230   0.01267  Uiso   1.00
O12    O     0.55040   0.27800   0.44960   0.01267  Uiso   1.00
O13    O     0.26710  -0.00000   0.58230   0.01267  Uiso   1.00
O14    O     0.27240   1.00000   0.44960   0.01267  Uiso   1.00
O15    O     0.41770  -0.00000   0.73290   0.01267  Uiso   1.00
O16    O     0.55040   1.00000   0.72760   0.01267  Uiso   1.00
O17    O     0.45200   0.89960   0.44760   0.01267  Uiso   1.00
O18    O     0.65280   0.10040   0.44760   0.01267  Uiso   1.00
O19    O     0.55240   0.89960   0.54800   0.01267  Uiso   1.00
O20    O     0.55240   0.10040   0.34720   0.01267  Uiso   1.00
O21    O     0.34720   0.89960   0.55240   0.01267  Uiso   1.00
O22    O     0.54800   0.10040   0.55240   0.01267  Uiso   1.00
O23    O     0.44760   0.10040   0.45200   0.01267  Uiso   1.00
O24    O     0.44760   0.89960   0.65280   0.01267  Uiso   1.00
