data_OFEHAK_clean
_audit_creation_date              2014-07-02
_audit_creation_method            'Materials Studio'
_symmetry_space_group_name_H-M    'P1'
_symmetry_Int_Tables_number       1
_symmetry_cell_setting            triclinic
loop_
_symmetry_equiv_pos_as_xyz
  x,y,z
_cell_length_a                    15.1230
_cell_length_b                    17.4814
_cell_length_c                    17.4814
_cell_angle_alpha                 79.2167
_cell_angle_beta                  64.3708
_cell_angle_gamma                 64.3708
loop_
_atom_site_label
_atom_site_type_symbol
_atom_site_fract_x
_atom_site_fract_y
_atom_site_fract_z
_atom_site_U_iso_or_equiv
_atom_site_adp_type
_atom_site_occupancy
Cd1    Cd    0.12791   0.41184   0.93368   0.01267  Uiso   1.00
Cd2    Cd    0.97343   0.08816   0.56632   0.01267  Uiso   1.00
Cd3    Cd    0.06159   0.06632   0.91184   0.01267  Uiso   1.00
Cd4    Cd    0.53975   0.43368   0.58816   0.01267  Uiso   1.00
Cd5    Cd    0.87209   0.58816   0.06632   0.01267  Uiso   1.00
Cd6    Cd    0.02657   0.91184   0.43368   0.01267  Uiso   1.00
Cd7    Cd    0.93841   0.93368   0.08816   0.01267  Uiso   1.00
Cd8    Cd    0.46025   0.56632   0.41184   0.01267  Uiso   1.00
H1     H     0.78780   0.40730   0.01810   0.01267  Uiso   1.00
H2     H     0.28180   0.07900   0.92660   0.01267  Uiso   1.00
H3     H     0.46110   0.01160   0.84000   0.01267  Uiso   1.00
H4     H     0.43420   0.20620   0.67580   0.01267  Uiso   1.00
H5     H     0.25500   0.27360   0.76220   0.01267  Uiso   1.00
H6     H     0.61040   0.01820   0.71920   0.01267  Uiso   1.00
H7     H     0.58450   0.06520   0.64100   0.01267  Uiso   1.00
H8     H     0.60220   0.11170   0.69830   0.01267  Uiso   1.00
H9     H     0.71320   0.09270   0.48190   0.01267  Uiso   1.00
H10    H     0.78740   0.42100   0.57340   0.01267  Uiso   1.00
H11    H     0.81270   0.48840   0.66000   0.01267  Uiso   1.00
H12    H     0.81620   0.29380   0.82420   0.01267  Uiso   1.00
H13    H     0.79080   0.22640   0.73780   0.01267  Uiso   1.00
H14    H     0.84780   0.48180   0.78080   0.01267  Uiso   1.00
H15    H     0.79070   0.43480   0.85900   0.01267  Uiso   1.00
H16    H     0.91220   0.38830   0.80170   0.01267  Uiso   1.00
H17    H     0.80590   0.98190   0.90730   0.01267  Uiso   1.00
H18    H     0.20840   0.07340   0.57900   0.01267  Uiso   1.00
H19    H     0.30110   0.16000   0.51160   0.01267  Uiso   1.00
H20    H     0.11000   0.32420   0.70620   0.01267  Uiso   1.00
H21    H     0.01720   0.23780   0.77360   0.01267  Uiso   1.00
H22    H     0.32960   0.28080   0.51820   0.01267  Uiso   1.00
H23    H     0.22550   0.35900   0.56520   0.01267  Uiso   1.00
H24    H     0.30050   0.30170   0.61170   0.01267  Uiso   1.00
H25    H     0.19510   0.51810   0.59270   0.01267  Uiso   1.00
H26    H     0.36080   0.42660   0.92100   0.01267  Uiso   1.00
H27    H     0.47270   0.34000   0.98840   0.01267  Uiso   1.00
H28    H     0.64040   0.17580   0.79380   0.01267  Uiso   1.00
H29    H     0.52860   0.26220   0.72640   0.01267  Uiso   1.00
H30    H     0.62860   0.21920   0.98180   0.01267  Uiso   1.00
H31    H     0.64970   0.14100   0.93480   0.01267  Uiso   1.00
H32    H     0.71390   0.19830   0.88830   0.01267  Uiso   1.00
H33    H     0.21220   0.59270   0.98190   0.01267  Uiso   1.00
H34    H     0.71820   0.92100   0.07340   0.01267  Uiso   1.00
H35    H     0.53890   0.98840   0.16000   0.01267  Uiso   1.00
H36    H     0.56580   0.79380   0.32420   0.01267  Uiso   1.00
H37    H     0.74500   0.72640   0.23780   0.01267  Uiso   1.00
H38    H     0.38960   0.98180   0.28080   0.01267  Uiso   1.00
H39    H     0.41550   0.93480   0.35900   0.01267  Uiso   1.00
H40    H     0.39780   0.88830   0.30170   0.01267  Uiso   1.00
H41    H     0.28680   0.90730   0.51810   0.01267  Uiso   1.00
H42    H     0.21260   0.57900   0.42660   0.01267  Uiso   1.00
H43    H     0.18730   0.51160   0.34000   0.01267  Uiso   1.00
H44    H     0.18380   0.70620   0.17580   0.01267  Uiso   1.00
H45    H     0.20920   0.77360   0.26220   0.01267  Uiso   1.00
H46    H     0.15220   0.51820   0.21920   0.01267  Uiso   1.00
H47    H     0.20930   0.56520   0.14100   0.01267  Uiso   1.00
H48    H     0.08780   0.61170   0.19830   0.01267  Uiso   1.00
H49    H     0.19410   0.01810   0.09270   0.01267  Uiso   1.00
H50    H     0.79160   0.92660   0.42100   0.01267  Uiso   1.00
H51    H     0.69890   0.84000   0.48840   0.01267  Uiso   1.00
H52    H     0.89000   0.67580   0.29380   0.01267  Uiso   1.00
H53    H     0.98280   0.76220   0.22640   0.01267  Uiso   1.00
H54    H     0.67040   0.71920   0.48180   0.01267  Uiso   1.00
H55    H     0.77450   0.64100   0.43480   0.01267  Uiso   1.00
H56    H     0.69950   0.69830   0.38830   0.01267  Uiso   1.00
H57    H     0.80490   0.48190   0.40730   0.01267  Uiso   1.00
H58    H     0.63920   0.57340   0.07900   0.01267  Uiso   1.00
H59    H     0.52730   0.66000   0.01160   0.01267  Uiso   1.00
H60    H     0.35960   0.82420   0.20620   0.01267  Uiso   1.00
H61    H     0.47140   0.73780   0.27360   0.01267  Uiso   1.00
H62    H     0.37140   0.78080   0.01820   0.01267  Uiso   1.00
H63    H     0.35030   0.85900   0.06520   0.01267  Uiso   1.00
H64    H     0.28610   0.80170   0.11170   0.01267  Uiso   1.00
C1     C     0.90250   0.40510   0.01570   0.01267  Uiso   1.00
C2     C     0.97440   0.32250   0.97830   0.01267  Uiso   1.00
C3     C     0.96050   0.25100   0.97300   0.01267  Uiso   1.00
C4     C     0.86030   0.23590   0.99970   0.01267  Uiso   1.00
C5     C     0.12870   0.22270   0.91110   0.01267  Uiso   1.00
C6     C     0.25060   0.18300   0.85300   0.01267  Uiso   1.00
C7     C     0.31240   0.10450   0.87630   0.01267  Uiso   1.00
C8     C     0.41980   0.06410   0.82450   0.01267  Uiso   1.00
C9     C     0.46540   0.10220   0.74940   0.01267  Uiso   1.00
C10    C     0.40370   0.18070   0.72610   0.01267  Uiso   1.00
C11    C     0.29630   0.22110   0.77790   0.01267  Uiso   1.00
C12    C     0.57400   0.07200   0.69800   0.01267  Uiso   1.00
C13    C     0.82330   0.09490   0.48430   0.01267  Uiso   1.00
C14    C     0.77520   0.17750   0.52170   0.01267  Uiso   1.00
C15    C     0.68450   0.24900   0.52700   0.01267  Uiso   1.00
C16    C     0.59590   0.26410   0.50030   0.01267  Uiso   1.00
C17    C     0.76250   0.27730   0.58890   0.01267  Uiso   1.00
C18    C     0.78660   0.31700   0.64700   0.01267  Uiso   1.00
C19    C     0.79320   0.39550   0.62370   0.01267  Uiso   1.00
C20    C     0.80840   0.43590   0.67550   0.01267  Uiso   1.00
C21    C     0.81700   0.39780   0.75060   0.01267  Uiso   1.00
C22    C     0.81050   0.31930   0.77390   0.01267  Uiso   1.00
C23    C     0.79530   0.27890   0.72210   0.01267  Uiso   1.00
C24    C     0.84400   0.42800   0.80200   0.01267  Uiso   1.00
C25    C     0.91820   0.98430   0.90510   0.01267  Uiso   1.00
C26    C     0.95270   0.02170   0.82250   0.01267  Uiso   1.00
C27    C     0.93350   0.02700   0.75100   0.01267  Uiso   1.00
C28    C     0.86000   0.00030   0.73590   0.01267  Uiso   1.00
C29    C     0.03980   0.08890   0.72270   0.01267  Uiso   1.00
C30    C     0.10360   0.14700   0.68300   0.01267  Uiso   1.00
C31    C     0.18870   0.12370   0.60450   0.01267  Uiso   1.00
C32    C     0.24430   0.17550   0.56410   0.01267  Uiso   1.00
C33    C     0.21480   0.25060   0.60220   0.01267  Uiso   1.00
C34    C     0.12980   0.27390   0.68070   0.01267  Uiso   1.00
C35    C     0.07420   0.22210   0.72110   0.01267  Uiso   1.00
C36    C     0.27200   0.30200   0.57200   0.01267  Uiso   1.00
C37    C     0.30760   0.51570   0.59490   0.01267  Uiso   1.00
C38    C     0.29690   0.47830   0.67750   0.01267  Uiso   1.00
C39    C     0.21150   0.47300   0.74900   0.01267  Uiso   1.00
C40    C     0.09620   0.49970   0.76410   0.01267  Uiso   1.00
C41    C     0.35140   0.41110   0.77730   0.01267  Uiso   1.00
C42    C     0.43360   0.35300   0.81700   0.01267  Uiso   1.00
C43    C     0.41690   0.37630   0.89550   0.01267  Uiso   1.00
C44    C     0.48390   0.32450   0.93590   0.01267  Uiso   1.00
C45    C     0.56760   0.24940   0.89780   0.01267  Uiso   1.00
C46    C     0.58440   0.22610   0.81930   0.01267  Uiso   1.00
C47    C     0.51740   0.27790   0.77890   0.01267  Uiso   1.00
C48    C     0.64600   0.19800   0.92800   0.01267  Uiso   1.00
C49    C     0.09750   0.59490   0.98430   0.01267  Uiso   1.00
C50    C     0.02560   0.67750   0.02170   0.01267  Uiso   1.00
C51    C     0.03950   0.74900   0.02700   0.01267  Uiso   1.00
C52    C     0.13970   0.76410   0.00030   0.01267  Uiso   1.00
C53    C     0.87130   0.77730   0.08890   0.01267  Uiso   1.00
C54    C     0.74940   0.81700   0.14700   0.01267  Uiso   1.00
C55    C     0.68760   0.89550   0.12370   0.01267  Uiso   1.00
C56    C     0.58020   0.93590   0.17550   0.01267  Uiso   1.00
C57    C     0.53460   0.89780   0.25060   0.01267  Uiso   1.00
C58    C     0.59630   0.81930   0.27390   0.01267  Uiso   1.00
C59    C     0.70370   0.77890   0.22210   0.01267  Uiso   1.00
C60    C     0.42600   0.92800   0.30200   0.01267  Uiso   1.00
C61    C     0.17670   0.90510   0.51570   0.01267  Uiso   1.00
C62    C     0.22480   0.82250   0.47830   0.01267  Uiso   1.00
C63    C     0.31550   0.75100   0.47300   0.01267  Uiso   1.00
C64    C     0.40410   0.73590   0.49970   0.01267  Uiso   1.00
C65    C     0.23750   0.72270   0.41110   0.01267  Uiso   1.00
C66    C     0.21340   0.68300   0.35300   0.01267  Uiso   1.00
C67    C     0.20680   0.60450   0.37630   0.01267  Uiso   1.00
C68    C     0.19160   0.56410   0.32450   0.01267  Uiso   1.00
C69    C     0.18300   0.60220   0.24940   0.01267  Uiso   1.00
C70    C     0.18950   0.68070   0.22610   0.01267  Uiso   1.00
C71    C     0.20470   0.72110   0.27790   0.01267  Uiso   1.00
C72    C     0.15600   0.57200   0.19800   0.01267  Uiso   1.00
C73    C     0.08180   0.01570   0.09490   0.01267  Uiso   1.00
C74    C     0.04730   0.97830   0.17750   0.01267  Uiso   1.00
C75    C     0.06650   0.97300   0.24900   0.01267  Uiso   1.00
C76    C     0.14000   0.99970   0.26410   0.01267  Uiso   1.00
C77    C     0.96020   0.91110   0.27730   0.01267  Uiso   1.00
C78    C     0.89640   0.85300   0.31700   0.01267  Uiso   1.00
C79    C     0.81130   0.87630   0.39550   0.01267  Uiso   1.00
C80    C     0.75570   0.82450   0.43590   0.01267  Uiso   1.00
C81    C     0.78520   0.74940   0.39780   0.01267  Uiso   1.00
C82    C     0.87020   0.72610   0.31930   0.01267  Uiso   1.00
C83    C     0.92580   0.77790   0.27890   0.01267  Uiso   1.00
C84    C     0.72800   0.69800   0.42800   0.01267  Uiso   1.00
C85    C     0.69240   0.48430   0.40510   0.01267  Uiso   1.00
C86    C     0.70310   0.52170   0.32250   0.01267  Uiso   1.00
C87    C     0.78850   0.52700   0.25100   0.01267  Uiso   1.00
C88    C     0.90380   0.50030   0.23590   0.01267  Uiso   1.00
C89    C     0.64860   0.58890   0.22270   0.01267  Uiso   1.00
C90    C     0.56640   0.64700   0.18300   0.01267  Uiso   1.00
C91    C     0.58310   0.62370   0.10450   0.01267  Uiso   1.00
C92    C     0.51610   0.67550   0.06410   0.01267  Uiso   1.00
C93    C     0.43240   0.75060   0.10220   0.01267  Uiso   1.00
C94    C     0.41560   0.77390   0.18070   0.01267  Uiso   1.00
C95    C     0.48260   0.72210   0.22110   0.01267  Uiso   1.00
C96    C     0.35400   0.80200   0.07200   0.01267  Uiso   1.00
N1     N     0.08170   0.30520   0.93700   0.01267  Uiso   1.00
N2     N     0.05740   0.18900   0.92800   0.01267  Uiso   1.00
N3     N     0.82390   0.19480   0.56300   0.01267  Uiso   1.00
N4     N     0.67440   0.31100   0.57200   0.01267  Uiso   1.00
N5     N     0.01870   0.06300   0.80520   0.01267  Uiso   1.00
N6     N     0.98540   0.07200   0.68900   0.01267  Uiso   1.00
N7     N     0.38690   0.43700   0.69480   0.01267  Uiso   1.00
N8     N     0.24640   0.42800   0.81100   0.01267  Uiso   1.00
N9     N     0.91830   0.69480   0.06300   0.01267  Uiso   1.00
N10    N     0.94260   0.81100   0.07200   0.01267  Uiso   1.00
N11    N     0.17610   0.80520   0.43700   0.01267  Uiso   1.00
N12    N     0.32560   0.68900   0.42800   0.01267  Uiso   1.00
N13    N     0.98130   0.93700   0.19480   0.01267  Uiso   1.00
N14    N     0.01460   0.92800   0.31100   0.01267  Uiso   1.00
N15    N     0.61310   0.56300   0.30520   0.01267  Uiso   1.00
N16    N     0.75360   0.57200   0.18900   0.01267  Uiso   1.00
O1     O     0.94070   0.45300   0.01880   0.01267  Uiso   1.00
O2     O     0.80520   0.42180   0.04960   0.01267  Uiso   1.00
O3     O     0.77250   0.29740   0.03840   0.01267  Uiso   1.00
O4     O     0.87040   0.16660   0.98560   0.01267  Uiso   1.00
O5     O     0.91250   0.04700   0.48120   0.01267  Uiso   1.00
O6     O     0.77660   0.07820   0.45040   0.01267  Uiso   1.00
O7     O     0.60830   0.20260   0.46160   0.01267  Uiso   1.00
O8     O     0.52260   0.33340   0.51440   0.01267  Uiso   1.00
O9     O     0.95950   0.98120   0.95300   0.01267  Uiso   1.00
O10    O     0.85480   0.95040   0.92180   0.01267  Uiso   1.00
O11    O     0.81090   0.96160   0.79740   0.01267  Uiso   1.00
O12    O     0.85600   0.01440   0.66660   0.01267  Uiso   1.00
O13    O     0.39370   0.51880   0.54700   0.01267  Uiso   1.00
O14    O     0.22700   0.54960   0.57820   0.01267  Uiso   1.00
O15    O     0.06990   0.53840   0.70260   0.01267  Uiso   1.00
O16    O     0.03700   0.48560   0.83340   0.01267  Uiso   1.00
O17    O     0.05930   0.54700   0.98120   0.01267  Uiso   1.00
O18    O     0.19480   0.57820   0.95040   0.01267  Uiso   1.00
O19    O     0.22750   0.70260   0.96160   0.01267  Uiso   1.00
O20    O     0.12960   0.83340   0.01440   0.01267  Uiso   1.00
O21    O     0.08750   0.95300   0.51880   0.01267  Uiso   1.00
O22    O     0.22340   0.92180   0.54960   0.01267  Uiso   1.00
O23    O     0.39170   0.79740   0.53840   0.01267  Uiso   1.00
O24    O     0.47740   0.66660   0.48560   0.01267  Uiso   1.00
O25    O     0.04050   0.01880   0.04700   0.01267  Uiso   1.00
O26    O     0.14520   0.04960   0.07820   0.01267  Uiso   1.00
O27    O     0.18910   0.03840   0.20260   0.01267  Uiso   1.00
O28    O     0.14400   0.98560   0.33340   0.01267  Uiso   1.00
O29    O     0.60630   0.48120   0.45300   0.01267  Uiso   1.00
O30    O     0.77300   0.45040   0.42180   0.01267  Uiso   1.00
O31    O     0.93010   0.46160   0.29740   0.01267  Uiso   1.00
O32    O     0.96300   0.51440   0.16660   0.01267  Uiso   1.00
