data_OFESEY_clean
_audit_creation_date              2014-07-02
_audit_creation_method            'Materials Studio'
_symmetry_space_group_name_H-M    'P1'
_symmetry_Int_Tables_number       1
_symmetry_cell_setting            triclinic
loop_
_symmetry_equiv_pos_as_xyz
  x,y,z
_cell_length_a                    13.4140
_cell_length_b                    13.4140
_cell_length_c                    14.7060
_cell_angle_alpha                 90.0000
_cell_angle_beta                  90.0000
_cell_angle_gamma                 120.0000
loop_
_atom_site_label
_atom_site_type_symbol
_atom_site_fract_x
_atom_site_fract_y
_atom_site_fract_z
_atom_site_U_iso_or_equiv
_atom_site_adp_type
_atom_site_occupancy
Nd1    Nd    0.66667   0.33334   0.66903   0.01267  Uiso   1.00
Nd2    Nd    0.33333   0.66666   0.83097   0.01267  Uiso   1.00
Nd3    Nd    0.33333   0.66666   0.33097   0.01267  Uiso   1.00
Nd4    Nd    0.66667   0.33334   0.16903   0.01267  Uiso   1.00
Cu1    Cu    0.50000   0.50000   0.00000   0.01267  Uiso   1.00
Cu2    Cu    0.00000   0.50000   0.00000   0.01267  Uiso   1.00
Cu3    Cu    0.50000   0.00000   0.00000   0.01267  Uiso   1.00
Cu4    Cu    0.00000   0.50000   0.50000   0.01267  Uiso   1.00
Cu5    Cu    0.50000   0.50000   0.50000   0.01267  Uiso   1.00
Cu6    Cu    0.50000   0.00000   0.50000   0.01267  Uiso   1.00
H1     H     0.32570   0.35110   0.92250   0.01267  Uiso   1.00
H2     H     0.45840   0.26830   0.87230   0.01267  Uiso   1.00
H3     H     0.39830   0.31640   0.80890   0.01267  Uiso   1.00
H4     H     0.29270   0.25310   0.04740   0.01267  Uiso   1.00
H5     H     0.32080   0.18190   0.97770   0.01267  Uiso   1.00
H6     H     0.02540   0.67430   0.92250   0.01267  Uiso   1.00
H7     H     0.80990   0.54160   0.87230   0.01267  Uiso   1.00
H8     H     0.91810   0.60170   0.80890   0.01267  Uiso   1.00
H9     H     0.96040   0.70730   0.04740   0.01267  Uiso   1.00
H10    H     0.86110   0.67920   0.97770   0.01267  Uiso   1.00
H11    H     0.64890   0.97460   0.92250   0.01267  Uiso   1.00
H12    H     0.73170   0.19010   0.87230   0.01267  Uiso   1.00
H13    H     0.68360   0.08190   0.80890   0.01267  Uiso   1.00
H14    H     0.74690   0.03960   0.04740   0.01267  Uiso   1.00
H15    H     0.81810   0.13890   0.97770   0.01267  Uiso   1.00
H16    H     0.97460   0.64890   0.57750   0.01267  Uiso   1.00
H17    H     0.19010   0.73170   0.62770   0.01267  Uiso   1.00
H18    H     0.08190   0.68360   0.69110   0.01267  Uiso   1.00
H19    H     0.03960   0.74690   0.45260   0.01267  Uiso   1.00
H20    H     0.13890   0.81810   0.52230   0.01267  Uiso   1.00
H21    H     0.35110   0.32570   0.57750   0.01267  Uiso   1.00
H22    H     0.26830   0.45840   0.62770   0.01267  Uiso   1.00
H23    H     0.31640   0.39830   0.69110   0.01267  Uiso   1.00
H24    H     0.25310   0.29270   0.45260   0.01267  Uiso   1.00
H25    H     0.18190   0.32080   0.52230   0.01267  Uiso   1.00
H26    H     0.67430   0.02540   0.57750   0.01267  Uiso   1.00
H27    H     0.54160   0.80990   0.62770   0.01267  Uiso   1.00
H28    H     0.60170   0.91810   0.69110   0.01267  Uiso   1.00
H29    H     0.70730   0.96040   0.45260   0.01267  Uiso   1.00
H30    H     0.67920   0.86110   0.52230   0.01267  Uiso   1.00
H31    H     0.67430   0.64890   0.07750   0.01267  Uiso   1.00
H32    H     0.54160   0.73170   0.12770   0.01267  Uiso   1.00
H33    H     0.60170   0.68360   0.19110   0.01267  Uiso   1.00
H34    H     0.70730   0.74690   0.95260   0.01267  Uiso   1.00
H35    H     0.67920   0.81810   0.02230   0.01267  Uiso   1.00
H36    H     0.97460   0.32570   0.07750   0.01267  Uiso   1.00
H37    H     0.19010   0.45840   0.12770   0.01267  Uiso   1.00
H38    H     0.08190   0.39830   0.19110   0.01267  Uiso   1.00
H39    H     0.03960   0.29270   0.95260   0.01267  Uiso   1.00
H40    H     0.13890   0.32080   0.02230   0.01267  Uiso   1.00
H41    H     0.35110   0.02540   0.07750   0.01267  Uiso   1.00
H42    H     0.26830   0.80990   0.12770   0.01267  Uiso   1.00
H43    H     0.31640   0.91810   0.19110   0.01267  Uiso   1.00
H44    H     0.25310   0.96040   0.95260   0.01267  Uiso   1.00
H45    H     0.18190   0.86110   0.02230   0.01267  Uiso   1.00
H46    H     0.02540   0.35110   0.42250   0.01267  Uiso   1.00
H47    H     0.80990   0.26830   0.37230   0.01267  Uiso   1.00
H48    H     0.91810   0.31640   0.30890   0.01267  Uiso   1.00
H49    H     0.96040   0.25310   0.54740   0.01267  Uiso   1.00
H50    H     0.86110   0.18190   0.47770   0.01267  Uiso   1.00
H51    H     0.64890   0.67430   0.42250   0.01267  Uiso   1.00
H52    H     0.73170   0.54160   0.37230   0.01267  Uiso   1.00
H53    H     0.68360   0.60170   0.30890   0.01267  Uiso   1.00
H54    H     0.74690   0.70730   0.54740   0.01267  Uiso   1.00
H55    H     0.81810   0.67920   0.47770   0.01267  Uiso   1.00
H56    H     0.32570   0.97460   0.42250   0.01267  Uiso   1.00
H57    H     0.45840   0.19010   0.37230   0.01267  Uiso   1.00
H58    H     0.39830   0.08190   0.30890   0.01267  Uiso   1.00
H59    H     0.29270   0.03960   0.54740   0.01267  Uiso   1.00
H60    H     0.32080   0.13890   0.47770   0.01267  Uiso   1.00
C1     C     0.56140   0.43700   0.84190   0.01267  Uiso   1.00
C2     C     0.44750   0.33360   0.86180   0.01267  Uiso   1.00
C3     C     0.35270   0.25510   0.00910   0.01267  Uiso   1.00
C4     C     0.45320   0.27170   0.06870   0.01267  Uiso   1.00
C5     C     0.87560   0.43860   0.84190   0.01267  Uiso   1.00
C6     C     0.88610   0.55250   0.86180   0.01267  Uiso   1.00
C7     C     0.90240   0.64730   0.00910   0.01267  Uiso   1.00
C8     C     0.81850   0.54680   0.06870   0.01267  Uiso   1.00
C9     C     0.56300   0.12440   0.84190   0.01267  Uiso   1.00
C10    C     0.66640   0.11390   0.86180   0.01267  Uiso   1.00
C11    C     0.74490   0.09760   0.00910   0.01267  Uiso   1.00
C12    C     0.72830   0.18150   0.06870   0.01267  Uiso   1.00
C13    C     0.12440   0.56300   0.65810   0.01267  Uiso   1.00
C14    C     0.11390   0.66640   0.63820   0.01267  Uiso   1.00
C15    C     0.09760   0.74490   0.49090   0.01267  Uiso   1.00
C16    C     0.18150   0.72830   0.43130   0.01267  Uiso   1.00
C17    C     0.43700   0.56140   0.65810   0.01267  Uiso   1.00
C18    C     0.33360   0.44750   0.63820   0.01267  Uiso   1.00
C19    C     0.25510   0.35270   0.49090   0.01267  Uiso   1.00
C20    C     0.27170   0.45320   0.43130   0.01267  Uiso   1.00
C21    C     0.43860   0.87560   0.65810   0.01267  Uiso   1.00
C22    C     0.55250   0.88610   0.63820   0.01267  Uiso   1.00
C23    C     0.64730   0.90240   0.49090   0.01267  Uiso   1.00
C24    C     0.54680   0.81850   0.43130   0.01267  Uiso   1.00
C25    C     0.43860   0.56300   0.15810   0.01267  Uiso   1.00
C26    C     0.55250   0.66640   0.13820   0.01267  Uiso   1.00
C27    C     0.64730   0.74490   0.99090   0.01267  Uiso   1.00
C28    C     0.54680   0.72830   0.93130   0.01267  Uiso   1.00
C29    C     0.12440   0.56140   0.15810   0.01267  Uiso   1.00
C30    C     0.11390   0.44750   0.13820   0.01267  Uiso   1.00
C31    C     0.09760   0.35270   0.99090   0.01267  Uiso   1.00
C32    C     0.18150   0.45320   0.93130   0.01267  Uiso   1.00
C33    C     0.43700   0.87560   0.15810   0.01267  Uiso   1.00
C34    C     0.33360   0.88610   0.13820   0.01267  Uiso   1.00
C35    C     0.25510   0.90240   0.99090   0.01267  Uiso   1.00
C36    C     0.27170   0.81850   0.93130   0.01267  Uiso   1.00
C37    C     0.87560   0.43700   0.34190   0.01267  Uiso   1.00
C38    C     0.88610   0.33360   0.36180   0.01267  Uiso   1.00
C39    C     0.90240   0.25510   0.50910   0.01267  Uiso   1.00
C40    C     0.81850   0.27170   0.56870   0.01267  Uiso   1.00
C41    C     0.56300   0.43860   0.34190   0.01267  Uiso   1.00
C42    C     0.66640   0.55250   0.36180   0.01267  Uiso   1.00
C43    C     0.74490   0.64730   0.50910   0.01267  Uiso   1.00
C44    C     0.72830   0.54680   0.56870   0.01267  Uiso   1.00
C45    C     0.56140   0.12440   0.34190   0.01267  Uiso   1.00
C46    C     0.44750   0.11390   0.36180   0.01267  Uiso   1.00
C47    C     0.35270   0.09760   0.50910   0.01267  Uiso   1.00
C48    C     0.45320   0.18150   0.56870   0.01267  Uiso   1.00
N1     N     0.38880   0.34840   0.94180   0.01267  Uiso   1.00
N2     N     0.95960   0.61120   0.94180   0.01267  Uiso   1.00
N3     N     0.65160   0.04040   0.94180   0.01267  Uiso   1.00
N4     N     0.04040   0.65160   0.55820   0.01267  Uiso   1.00
N5     N     0.34840   0.38880   0.55820   0.01267  Uiso   1.00
N6     N     0.61120   0.95960   0.55820   0.01267  Uiso   1.00
N7     N     0.61120   0.65160   0.05820   0.01267  Uiso   1.00
N8     N     0.04040   0.38880   0.05820   0.01267  Uiso   1.00
N9     N     0.34840   0.95960   0.05820   0.01267  Uiso   1.00
N10    N     0.95960   0.34840   0.44180   0.01267  Uiso   1.00
N11    N     0.65160   0.61120   0.44180   0.01267  Uiso   1.00
N12    N     0.38880   0.04040   0.44180   0.01267  Uiso   1.00
O1     O     0.59830   0.52370   0.89460   0.01267  Uiso   1.00
O2     O     0.61500   0.43610   0.77500   0.01267  Uiso   1.00
O3     O     0.54750   0.36220   0.05710   0.01267  Uiso   1.00
O4     O     0.43970   0.19790   0.12370   0.01267  Uiso   1.00
O5     O     0.92540   0.40170   0.89460   0.01267  Uiso   1.00
O6     O     0.82110   0.38500   0.77500   0.01267  Uiso   1.00
O7     O     0.81470   0.45250   0.05710   0.01267  Uiso   1.00
O8     O     0.75820   0.56030   0.12370   0.01267  Uiso   1.00
O9     O     0.47630   0.07460   0.89460   0.01267  Uiso   1.00
O10    O     0.56390   0.17890   0.77500   0.01267  Uiso   1.00
O11    O     0.63780   0.18530   0.05710   0.01267  Uiso   1.00
O12    O     0.80210   0.24180   0.12370   0.01267  Uiso   1.00
O13    O     0.07460   0.47630   0.60540   0.01267  Uiso   1.00
O14    O     0.17890   0.56390   0.72500   0.01267  Uiso   1.00
O15    O     0.18530   0.63780   0.44290   0.01267  Uiso   1.00
O16    O     0.24180   0.80210   0.37630   0.01267  Uiso   1.00
O17    O     0.52370   0.59830   0.60540   0.01267  Uiso   1.00
O18    O     0.43610   0.61500   0.72500   0.01267  Uiso   1.00
O19    O     0.36220   0.54750   0.44290   0.01267  Uiso   1.00
O20    O     0.19790   0.43970   0.37630   0.01267  Uiso   1.00
O21    O     0.40170   0.92540   0.60540   0.01267  Uiso   1.00
O22    O     0.38500   0.82110   0.72500   0.01267  Uiso   1.00
O23    O     0.45250   0.81470   0.44290   0.01267  Uiso   1.00
O24    O     0.56030   0.75820   0.37630   0.01267  Uiso   1.00
O25    O     0.40170   0.47630   0.10540   0.01267  Uiso   1.00
O26    O     0.38500   0.56390   0.22500   0.01267  Uiso   1.00
O27    O     0.45250   0.63780   0.94290   0.01267  Uiso   1.00
O28    O     0.56030   0.80210   0.87630   0.01267  Uiso   1.00
O29    O     0.07460   0.59830   0.10540   0.01267  Uiso   1.00
O30    O     0.17890   0.61500   0.22500   0.01267  Uiso   1.00
O31    O     0.18530   0.54750   0.94290   0.01267  Uiso   1.00
O32    O     0.24180   0.43970   0.87630   0.01267  Uiso   1.00
O33    O     0.52370   0.92540   0.10540   0.01267  Uiso   1.00
O34    O     0.43610   0.82110   0.22500   0.01267  Uiso   1.00
O35    O     0.36220   0.81470   0.94290   0.01267  Uiso   1.00
O36    O     0.19790   0.75820   0.87630   0.01267  Uiso   1.00
O37    O     0.92540   0.52370   0.39460   0.01267  Uiso   1.00
O38    O     0.82110   0.43610   0.27500   0.01267  Uiso   1.00
O39    O     0.81470   0.36220   0.55710   0.01267  Uiso   1.00
O40    O     0.75820   0.19790   0.62370   0.01267  Uiso   1.00
O41    O     0.47630   0.40170   0.39460   0.01267  Uiso   1.00
O42    O     0.56390   0.38500   0.27500   0.01267  Uiso   1.00
O43    O     0.63780   0.45250   0.55710   0.01267  Uiso   1.00
O44    O     0.80210   0.56030   0.62370   0.01267  Uiso   1.00
O45    O     0.59830   0.07460   0.39460   0.01267  Uiso   1.00
O46    O     0.61500   0.17890   0.27500   0.01267  Uiso   1.00
O47    O     0.54750   0.18530   0.55710   0.01267  Uiso   1.00
O48    O     0.43970   0.24180   0.62370   0.01267  Uiso   1.00
