data_OFIWIK_charged
_audit_creation_date              2014-07-02
_audit_creation_method            'Materials Studio'
_symmetry_space_group_name_H-M    'P1'
_symmetry_Int_Tables_number       1
_symmetry_cell_setting            triclinic
loop_
_symmetry_equiv_pos_as_xyz
  x,y,z
_cell_length_a                    9.0655
_cell_length_b                    16.7679
_cell_length_c                    16.7679
_cell_angle_alpha                 90.0000
_cell_angle_beta                  90.0000
_cell_angle_gamma                 90.0000
loop_
_atom_site_label
_atom_site_type_symbol
_atom_site_fract_x
_atom_site_fract_y
_atom_site_fract_z
_atom_site_U_iso_or_equiv
_atom_site_adp_type
_atom_site_occupancy
Zn1    Zn    0.83266   0.08325   0.21380   0.01267  Uiso   1.00
Zn2    Zn    0.83266   0.91675   0.78620   0.01267  Uiso   1.00
Zn3    Zn    0.83266   0.78620   0.08325   0.01267  Uiso   1.00
Zn4    Zn    0.83266   0.21380   0.91675   0.01267  Uiso   1.00
Zn5    Zn    0.33266   0.08325   0.78620   0.01267  Uiso   1.00
Zn6    Zn    0.33266   0.91675   0.21380   0.01267  Uiso   1.00
Zn7    Zn    0.33266   0.78620   0.91675   0.01267  Uiso   1.00
Zn8    Zn    0.33266   0.21380   0.08325   0.01267  Uiso   1.00
Zn9    Zn    0.10106   0.00000   0.50000   0.01267  Uiso   1.00
Zn10   Zn    0.10106   0.50000   0.00000   0.01267  Uiso   1.00
Zn11   Zn    0.60106   0.00000   0.50000   0.01267  Uiso   1.00
Zn12   Zn    0.60106   0.50000   0.00000   0.01267  Uiso   1.00
P1     P     0.84630   0.09681   0.40512   0.01267  Uiso   1.00
P2     P     0.00374   0.92832   0.16038   0.01267  Uiso   1.00
P3     P     0.84630   0.90319   0.59488   0.01267  Uiso   1.00
P4     P     0.00374   0.07168   0.83962   0.01267  Uiso   1.00
P5     P     0.84630   0.59488   0.09681   0.01267  Uiso   1.00
P6     P     0.00374   0.83962   0.92832   0.01267  Uiso   1.00
P7     P     0.84630   0.40512   0.90319   0.01267  Uiso   1.00
P8     P     0.00374   0.16038   0.07168   0.01267  Uiso   1.00
P9     P     0.34630   0.09681   0.59488   0.01267  Uiso   1.00
P10    P     0.50374   0.92832   0.83962   0.01267  Uiso   1.00
P11    P     0.34630   0.90319   0.40512   0.01267  Uiso   1.00
P12    P     0.50374   0.07168   0.16038   0.01267  Uiso   1.00
P13    P     0.34630   0.59488   0.90319   0.01267  Uiso   1.00
P14    P     0.50374   0.83962   0.07168   0.01267  Uiso   1.00
P15    P     0.34630   0.40512   0.09681   0.01267  Uiso   1.00
P16    P     0.50374   0.16038   0.92832   0.01267  Uiso   1.00
H1     H     0.02900   0.96100   0.08900   0.01267  Uiso   1.00
H2     H     0.80000   0.16300   0.43600   0.01267  Uiso   1.00
H3     H     0.02900   0.03900   0.91100   0.01267  Uiso   1.00
H4     H     0.80000   0.83700   0.56400   0.01267  Uiso   1.00
H5     H     0.02900   0.91100   0.96100   0.01267  Uiso   1.00
H6     H     0.80000   0.56400   0.16300   0.01267  Uiso   1.00
H7     H     0.02900   0.08900   0.03900   0.01267  Uiso   1.00
H8     H     0.80000   0.43600   0.83700   0.01267  Uiso   1.00
H9     H     0.52900   0.96100   0.91100   0.01267  Uiso   1.00
H10    H     0.30000   0.16300   0.56400   0.01267  Uiso   1.00
H11    H     0.52900   0.03900   0.08900   0.01267  Uiso   1.00
H12    H     0.30000   0.83700   0.43600   0.01267  Uiso   1.00
H13    H     0.52900   0.91100   0.03900   0.01267  Uiso   1.00
H14    H     0.30000   0.56400   0.83700   0.01267  Uiso   1.00
H15    H     0.52900   0.08900   0.96100   0.01267  Uiso   1.00
H16    H     0.30000   0.43600   0.16300   0.01267  Uiso   1.00
O1     O     0.97350   0.99310   0.21530   0.01267  Uiso   1.00
O2     O     0.87300   0.86670   0.15600   0.01267  Uiso   1.00
O3     O     0.13020   0.95680   0.21240   0.01267  Uiso   1.00
O4     O     0.98400   0.08280   0.45480   0.01267  Uiso   1.00
O5     O     0.88340   0.11700   0.32020   0.01267  Uiso   1.00
O6     O     0.73150   0.03170   0.41260   0.01267  Uiso   1.00
O7     O     0.97350   0.00690   0.78470   0.01267  Uiso   1.00
O8     O     0.87300   0.13330   0.84400   0.01267  Uiso   1.00
O9     O     0.13020   0.04320   0.78760   0.01267  Uiso   1.00
O10    O     0.98400   0.91720   0.54520   0.01267  Uiso   1.00
O11    O     0.88340   0.88300   0.67980   0.01267  Uiso   1.00
O12    O     0.73150   0.96830   0.58740   0.01267  Uiso   1.00
O13    O     0.97350   0.78470   0.99310   0.01267  Uiso   1.00
O14    O     0.87300   0.84400   0.86670   0.01267  Uiso   1.00
O15    O     0.13020   0.78760   0.95680   0.01267  Uiso   1.00
O16    O     0.98400   0.54520   0.08280   0.01267  Uiso   1.00
O17    O     0.88340   0.67980   0.11700   0.01267  Uiso   1.00
O18    O     0.73150   0.58740   0.03170   0.01267  Uiso   1.00
O19    O     0.97350   0.21530   0.00690   0.01267  Uiso   1.00
O20    O     0.87300   0.15600   0.13330   0.01267  Uiso   1.00
O21    O     0.13020   0.21240   0.04320   0.01267  Uiso   1.00
O22    O     0.98400   0.45480   0.91720   0.01267  Uiso   1.00
O23    O     0.88340   0.32020   0.88300   0.01267  Uiso   1.00
O24    O     0.73150   0.41260   0.96830   0.01267  Uiso   1.00
O25    O     0.47350   0.99310   0.78470   0.01267  Uiso   1.00
O26    O     0.37300   0.86670   0.84400   0.01267  Uiso   1.00
O27    O     0.63020   0.95680   0.78760   0.01267  Uiso   1.00
O28    O     0.48400   0.08280   0.54520   0.01267  Uiso   1.00
O29    O     0.38340   0.11700   0.67980   0.01267  Uiso   1.00
O30    O     0.23150   0.03170   0.58740   0.01267  Uiso   1.00
O31    O     0.47350   0.00690   0.21530   0.01267  Uiso   1.00
O32    O     0.37300   0.13330   0.15600   0.01267  Uiso   1.00
O33    O     0.63020   0.04320   0.21240   0.01267  Uiso   1.00
O34    O     0.48400   0.91720   0.45480   0.01267  Uiso   1.00
O35    O     0.38340   0.88300   0.32020   0.01267  Uiso   1.00
O36    O     0.23150   0.96830   0.41260   0.01267  Uiso   1.00
O37    O     0.47350   0.78470   0.00690   0.01267  Uiso   1.00
O38    O     0.37300   0.84400   0.13330   0.01267  Uiso   1.00
O39    O     0.63020   0.78760   0.04320   0.01267  Uiso   1.00
O40    O     0.48400   0.54520   0.91720   0.01267  Uiso   1.00
O41    O     0.38340   0.67980   0.88300   0.01267  Uiso   1.00
O42    O     0.23150   0.58740   0.96830   0.01267  Uiso   1.00
O43    O     0.47350   0.21530   0.99310   0.01267  Uiso   1.00
O44    O     0.37300   0.15600   0.86670   0.01267  Uiso   1.00
O45    O     0.63020   0.21240   0.95680   0.01267  Uiso   1.00
O46    O     0.48400   0.45480   0.08280   0.01267  Uiso   1.00
O47    O     0.38340   0.32020   0.11700   0.01267  Uiso   1.00
O48    O     0.23150   0.41260   0.03170   0.01267  Uiso   1.00
H17    H     0.97770   0.32150   0.17610   0.01267  Uiso   1.00
H18    H     0.93030   0.39830   0.13050   0.01267  Uiso   1.00
H19    H     0.72860   0.39340   0.16150   0.01267  Uiso   1.00
H20    H     0.60880   0.28940   0.12320   0.01267  Uiso   1.00
H21    H     0.70900   0.33110   0.07000   0.01267  Uiso   1.00
H22    H     0.75230   0.25530   0.10490   0.01267  Uiso   1.00
H23    H     0.66940   0.29170   0.27410   0.01267  Uiso   1.00
H24    H     0.58060   0.36380   0.23980   0.01267  Uiso   1.00
H25    H     0.07000   0.40020   0.25530   0.01267  Uiso   1.00
H26    H     0.97340   0.47140   0.22590   0.01267  Uiso   1.00
H27    H     0.89650   0.46760   0.34440   0.01267  Uiso   1.00
H28    H     0.93530   0.37750   0.35530   0.01267  Uiso   1.00
H29    H     0.71050   0.37090   0.36620   0.01267  Uiso   1.00
H30    H     0.68240   0.44580   0.31340   0.01267  Uiso   1.00
C1     C     0.91540   0.36840   0.17940   0.01267  Uiso   1.00
C2     C     0.76550   0.34170   0.18000   0.01267  Uiso   1.00
C3     C     0.67890   0.34540   0.25320   0.01267  Uiso   1.00
C4     C     0.96940   0.41660   0.24420   0.01267  Uiso   1.00
C5     C     0.88770   0.41540   0.32000   0.01267  Uiso   1.00
C6     C     0.73640   0.39590   0.31590   0.01267  Uiso   1.00
N1     N     0.70300   0.30050   0.11320   0.01267  Uiso   1.00
H31    H     0.97770   0.67850   0.82390   0.01267  Uiso   1.00
H32    H     0.93030   0.60170   0.86950   0.01267  Uiso   1.00
H33    H     0.72860   0.60660   0.83850   0.01267  Uiso   1.00
H34    H     0.60880   0.71060   0.87680   0.01267  Uiso   1.00
H35    H     0.70900   0.66890   0.93000   0.01267  Uiso   1.00
H36    H     0.75230   0.74470   0.89510   0.01267  Uiso   1.00
H37    H     0.66940   0.70830   0.72590   0.01267  Uiso   1.00
H38    H     0.58060   0.63620   0.76020   0.01267  Uiso   1.00
H39    H     0.07000   0.59980   0.74470   0.01267  Uiso   1.00
H40    H     0.97340   0.52860   0.77410   0.01267  Uiso   1.00
H41    H     0.89650   0.53240   0.65560   0.01267  Uiso   1.00
H42    H     0.93530   0.62250   0.64470   0.01267  Uiso   1.00
H43    H     0.71050   0.62910   0.63380   0.01267  Uiso   1.00
H44    H     0.68240   0.55420   0.68660   0.01267  Uiso   1.00
C7     C     0.91540   0.63160   0.82060   0.01267  Uiso   1.00
C8     C     0.76550   0.65830   0.82000   0.01267  Uiso   1.00
C9     C     0.67890   0.65460   0.74680   0.01267  Uiso   1.00
C10    C     0.96940   0.58340   0.75580   0.01267  Uiso   1.00
C11    C     0.88770   0.58460   0.68000   0.01267  Uiso   1.00
C12    C     0.73640   0.60410   0.68410   0.01267  Uiso   1.00
N2     N     0.70300   0.69950   0.88680   0.01267  Uiso   1.00
H45    H     0.97770   0.82390   0.32150   0.01267  Uiso   1.00
H46    H     0.93030   0.86950   0.39830   0.01267  Uiso   1.00
H47    H     0.72860   0.83850   0.39340   0.01267  Uiso   1.00
H48    H     0.60880   0.87680   0.28940   0.01267  Uiso   1.00
H49    H     0.70900   0.93000   0.33110   0.01267  Uiso   1.00
H50    H     0.75230   0.89510   0.25530   0.01267  Uiso   1.00
H51    H     0.66940   0.72590   0.29170   0.01267  Uiso   1.00
H52    H     0.58060   0.76020   0.36380   0.01267  Uiso   1.00
H53    H     0.07000   0.74470   0.40020   0.01267  Uiso   1.00
H54    H     0.97340   0.77410   0.47140   0.01267  Uiso   1.00
H55    H     0.89650   0.65560   0.46760   0.01267  Uiso   1.00
H56    H     0.93530   0.64470   0.37750   0.01267  Uiso   1.00
H57    H     0.71050   0.63380   0.37090   0.01267  Uiso   1.00
H58    H     0.68240   0.68660   0.44580   0.01267  Uiso   1.00
C13    C     0.91540   0.82060   0.36840   0.01267  Uiso   1.00
C14    C     0.76550   0.82000   0.34170   0.01267  Uiso   1.00
C15    C     0.67890   0.74680   0.34540   0.01267  Uiso   1.00
C16    C     0.96940   0.75580   0.41660   0.01267  Uiso   1.00
C17    C     0.88770   0.68000   0.41540   0.01267  Uiso   1.00
C18    C     0.73640   0.68410   0.39590   0.01267  Uiso   1.00
N3     N     0.70300   0.88680   0.30050   0.01267  Uiso   1.00
H59    H     0.97770   0.17610   0.67850   0.01267  Uiso   1.00
H60    H     0.93030   0.13050   0.60170   0.01267  Uiso   1.00
H61    H     0.72860   0.16150   0.60660   0.01267  Uiso   1.00
H62    H     0.60880   0.12320   0.71060   0.01267  Uiso   1.00
H63    H     0.70900   0.07000   0.66890   0.01267  Uiso   1.00
H64    H     0.75230   0.10490   0.74470   0.01267  Uiso   1.00
H65    H     0.66940   0.27410   0.70830   0.01267  Uiso   1.00
H66    H     0.58060   0.23980   0.63620   0.01267  Uiso   1.00
H67    H     0.07000   0.25530   0.59980   0.01267  Uiso   1.00
H68    H     0.97340   0.22590   0.52860   0.01267  Uiso   1.00
H69    H     0.89650   0.34440   0.53240   0.01267  Uiso   1.00
H70    H     0.93530   0.35530   0.62250   0.01267  Uiso   1.00
H71    H     0.71050   0.36620   0.62910   0.01267  Uiso   1.00
H72    H     0.68240   0.31340   0.55420   0.01267  Uiso   1.00
C19    C     0.91540   0.17940   0.63160   0.01267  Uiso   1.00
C20    C     0.76550   0.18000   0.65830   0.01267  Uiso   1.00
C21    C     0.67890   0.25320   0.65460   0.01267  Uiso   1.00
C22    C     0.96940   0.24420   0.58340   0.01267  Uiso   1.00
C23    C     0.88770   0.32000   0.58460   0.01267  Uiso   1.00
C24    C     0.73640   0.31590   0.60410   0.01267  Uiso   1.00
N4     N     0.70300   0.11320   0.69950   0.01267  Uiso   1.00
H73    H     0.47770   0.32150   0.82390   0.01267  Uiso   1.00
H74    H     0.43030   0.39830   0.86950   0.01267  Uiso   1.00
H75    H     0.22860   0.39340   0.83850   0.01267  Uiso   1.00
H76    H     0.10880   0.28940   0.87680   0.01267  Uiso   1.00
H77    H     0.20900   0.33110   0.93000   0.01267  Uiso   1.00
H78    H     0.25230   0.25530   0.89510   0.01267  Uiso   1.00
H79    H     0.16940   0.29170   0.72590   0.01267  Uiso   1.00
H80    H     0.08060   0.36380   0.76020   0.01267  Uiso   1.00
H81    H     0.57000   0.40020   0.74470   0.01267  Uiso   1.00
H82    H     0.47340   0.47140   0.77410   0.01267  Uiso   1.00
H83    H     0.39650   0.46760   0.65560   0.01267  Uiso   1.00
H84    H     0.43530   0.37750   0.64470   0.01267  Uiso   1.00
H85    H     0.21050   0.37090   0.63380   0.01267  Uiso   1.00
H86    H     0.18240   0.44580   0.68660   0.01267  Uiso   1.00
C25    C     0.41540   0.36840   0.82060   0.01267  Uiso   1.00
C26    C     0.26550   0.34170   0.82000   0.01267  Uiso   1.00
C27    C     0.17890   0.34540   0.74680   0.01267  Uiso   1.00
C28    C     0.46940   0.41660   0.75580   0.01267  Uiso   1.00
C29    C     0.38770   0.41540   0.68000   0.01267  Uiso   1.00
C30    C     0.23640   0.39590   0.68410   0.01267  Uiso   1.00
N5     N     0.20300   0.30050   0.88680   0.01267  Uiso   1.00
H87    H     0.47770   0.67850   0.17610   0.01267  Uiso   1.00
H88    H     0.43030   0.60170   0.13050   0.01267  Uiso   1.00
H89    H     0.22860   0.60660   0.16150   0.01267  Uiso   1.00
H90    H     0.10880   0.71060   0.12320   0.01267  Uiso   1.00
H91    H     0.20900   0.66890   0.07000   0.01267  Uiso   1.00
H92    H     0.25230   0.74470   0.10490   0.01267  Uiso   1.00
H93    H     0.16940   0.70830   0.27410   0.01267  Uiso   1.00
H94    H     0.08060   0.63620   0.23980   0.01267  Uiso   1.00
H95    H     0.57000   0.59980   0.25530   0.01267  Uiso   1.00
H96    H     0.47340   0.52860   0.22590   0.01267  Uiso   1.00
H97    H     0.39650   0.53240   0.34440   0.01267  Uiso   1.00
H98    H     0.43530   0.62250   0.35530   0.01267  Uiso   1.00
H99    H     0.21050   0.62910   0.36620   0.01267  Uiso   1.00
H100   H     0.18240   0.55420   0.31340   0.01267  Uiso   1.00
C31    C     0.41540   0.63160   0.17940   0.01267  Uiso   1.00
C32    C     0.26550   0.65830   0.18000   0.01267  Uiso   1.00
C33    C     0.17890   0.65460   0.25320   0.01267  Uiso   1.00
C34    C     0.46940   0.58340   0.24420   0.01267  Uiso   1.00
C35    C     0.38770   0.58460   0.32000   0.01267  Uiso   1.00
C36    C     0.23640   0.60410   0.31590   0.01267  Uiso   1.00
N6     N     0.20300   0.69950   0.11320   0.01267  Uiso   1.00
H101   H     0.47770   0.82390   0.67850   0.01267  Uiso   1.00
H102   H     0.43030   0.86950   0.60170   0.01267  Uiso   1.00
H103   H     0.22860   0.83850   0.60660   0.01267  Uiso   1.00
H104   H     0.10880   0.87680   0.71060   0.01267  Uiso   1.00
H105   H     0.20900   0.93000   0.66890   0.01267  Uiso   1.00
H106   H     0.25230   0.89510   0.74470   0.01267  Uiso   1.00
H107   H     0.16940   0.72590   0.70830   0.01267  Uiso   1.00
H108   H     0.08060   0.76020   0.63620   0.01267  Uiso   1.00
H109   H     0.57000   0.74470   0.59980   0.01267  Uiso   1.00
H110   H     0.47340   0.77410   0.52860   0.01267  Uiso   1.00
H111   H     0.39650   0.65560   0.53240   0.01267  Uiso   1.00
H112   H     0.43530   0.64470   0.62250   0.01267  Uiso   1.00
H113   H     0.21050   0.63380   0.62910   0.01267  Uiso   1.00
H114   H     0.18240   0.68660   0.55420   0.01267  Uiso   1.00
C37    C     0.41540   0.82060   0.63160   0.01267  Uiso   1.00
C38    C     0.26550   0.82000   0.65830   0.01267  Uiso   1.00
C39    C     0.17890   0.74680   0.65460   0.01267  Uiso   1.00
C40    C     0.46940   0.75580   0.58340   0.01267  Uiso   1.00
C41    C     0.38770   0.68000   0.58460   0.01267  Uiso   1.00
C42    C     0.23640   0.68410   0.60410   0.01267  Uiso   1.00
N7     N     0.20300   0.88680   0.69950   0.01267  Uiso   1.00
H115   H     0.47770   0.17610   0.32150   0.01267  Uiso   1.00
H116   H     0.43030   0.13050   0.39830   0.01267  Uiso   1.00
H117   H     0.22860   0.16150   0.39340   0.01267  Uiso   1.00
H118   H     0.10880   0.12320   0.28940   0.01267  Uiso   1.00
H119   H     0.20900   0.07000   0.33110   0.01267  Uiso   1.00
H120   H     0.25230   0.10490   0.25530   0.01267  Uiso   1.00
H121   H     0.16940   0.27410   0.29170   0.01267  Uiso   1.00
H122   H     0.08060   0.23980   0.36380   0.01267  Uiso   1.00
H123   H     0.57000   0.25530   0.40020   0.01267  Uiso   1.00
H124   H     0.47340   0.22590   0.47140   0.01267  Uiso   1.00
H125   H     0.39650   0.34440   0.46760   0.01267  Uiso   1.00
H126   H     0.43530   0.35530   0.37750   0.01267  Uiso   1.00
H127   H     0.21050   0.36620   0.37090   0.01267  Uiso   1.00
H128   H     0.18240   0.31340   0.44580   0.01267  Uiso   1.00
C43    C     0.41540   0.17940   0.36840   0.01267  Uiso   1.00
C44    C     0.26550   0.18000   0.34170   0.01267  Uiso   1.00
C45    C     0.17890   0.25320   0.34540   0.01267  Uiso   1.00
C46    C     0.46940   0.24420   0.41660   0.01267  Uiso   1.00
C47    C     0.38770   0.32000   0.41540   0.01267  Uiso   1.00
C48    C     0.23640   0.31590   0.39590   0.01267  Uiso   1.00
N8     N     0.20300   0.11320   0.30050   0.01267  Uiso   1.00
