data_image0
_cell_length_a       9.0944
_cell_length_b       9.3809
_cell_length_c       9.9459
_cell_angle_alpha    84.272
_cell_angle_beta     65.442
_cell_angle_gamma    63.368

_symmetry_space_group_name_H-M    "P 1"
_symmetry_int_tables_number       1

loop_
  _symmetry_equiv_pos_as_xyz
  'x, y, z'

loop_
  _atom_site_label
  _atom_site_occupancy
  _atom_site_fract_x
  _atom_site_fract_y
  _atom_site_fract_z
  _atom_site_thermal_displace_type
  _atom_site_B_iso_or_equiv
  _atom_site_type_symbol
  Ce1      1.0000 0.26787  0.49045  0.46023  Biso   1.000  Ce
  O1       1.0000 0.03890  0.58030  0.73860  Biso   1.000  O
  O2       1.0000 0.29330  0.36020  0.69970  Biso   1.000  O
  O3       1.0000 0.63130  0.34740  0.44060  Biso   1.000  O
  O4       1.0000 0.52020  0.20540  0.38820  Biso   1.000  O
  O5       1.0000 0.10260  0.77130  0.40070  Biso   1.000  O
  O6       1.0000 0.92750  0.65080  0.46840  Biso   1.000  O
  C1       1.0000 0.13700  0.46560  0.78670  Biso   1.000  C
  C2       1.0000 0.07590  0.45060  0.95030  Biso   1.000  C
  H1       1.0000 0.15280  0.36420  0.98160  Biso   1.000  H
  C3       1.0000 0.64190  0.21220  0.41210  Biso   1.000  C
  C4       1.0000 0.80150  0.06550  0.40910  Biso   1.000  C
  H2       1.0000 0.90550  0.07280  0.39500  Biso   1.000  H
  C5       1.0000 0.80090  0.92260  0.42590  Biso   1.000  C
  H3       1.0000 0.69760  0.91650  0.43600  Biso   1.000  H
  C6       1.0000 0.95390  0.77410  0.42940  Biso   1.000  C
  Ce2      1.0000 0.73213  0.50955  0.53977  Biso   1.000  Ce
  O7       1.0000 0.96110  0.41970  0.26140  Biso   1.000  O
  O8       1.0000 0.70670  0.63980  0.30030  Biso   1.000  O
  O9       1.0000 0.36870  0.65260  0.55940  Biso   1.000  O
  O10      1.0000 0.47980  0.79460  0.61180  Biso   1.000  O
  O11      1.0000 0.89740  0.22870  0.59930  Biso   1.000  O
  O12      1.0000 0.07250  0.34920  0.53160  Biso   1.000  O
  C7       1.0000 0.86300  0.53440  0.21330  Biso   1.000  C
  C8       1.0000 0.92410  0.54940  0.04970  Biso   1.000  C
  H4       1.0000 0.84720  0.63580  0.01840  Biso   1.000  H
  C9       1.0000 0.35810  0.78780  0.58790  Biso   1.000  C
  C10      1.0000 0.19850  0.93450  0.59090  Biso   1.000  C
  H5       1.0000 0.09450  0.92720  0.60500  Biso   1.000  H
  C11      1.0000 0.19910  0.07740  0.57410  Biso   1.000  C
  H6       1.0000 0.30240  0.08350  0.56400  Biso   1.000  H
  C12      1.0000 0.04610  0.22590  0.57060  Biso   1.000  C
