data_OFUCAV_clean
_audit_creation_date              2014-07-02
_audit_creation_method            'Materials Studio'
_symmetry_space_group_name_H-M    'P1'
_symmetry_Int_Tables_number       1
_symmetry_cell_setting            triclinic
loop_
_symmetry_equiv_pos_as_xyz
  x,y,z
_cell_length_a                    9.1602
_cell_length_b                    9.1602
_cell_length_c                    14.8940
_cell_angle_alpha                 80.0126
_cell_angle_beta                  80.0123
_cell_angle_gamma                 115.8500
loop_
_atom_site_label
_atom_site_type_symbol
_atom_site_fract_x
_atom_site_fract_y
_atom_site_fract_z
_atom_site_U_iso_or_equiv
_atom_site_adp_type
_atom_site_occupancy
Ce1    Ce    0.99050   0.24050   0.01900   0.01267  Uiso   1.00
Ce2    Ce    0.75950   0.00950   0.48100   0.01267  Uiso   1.00
Ce3    Ce    0.00950   0.75950   0.98100   0.01267  Uiso   1.00
Ce4    Ce    0.24050   0.99050   0.51900   0.01267  Uiso   1.00
H1     H     0.56300   0.65920   0.03140   0.01267  Uiso   1.00
H2     H     0.52350   0.63950   0.14040   0.01267  Uiso   1.00
H3     H     0.40560   0.80940   0.03140   0.01267  Uiso   1.00
H4     H     0.33610   0.72010   0.14040   0.01267  Uiso   1.00
H5     H     0.34080   0.43700   0.46860   0.01267  Uiso   1.00
H6     H     0.36050   0.47650   0.35960   0.01267  Uiso   1.00
H7     H     0.19060   0.59440   0.46860   0.01267  Uiso   1.00
H8     H     0.27990   0.66390   0.35960   0.01267  Uiso   1.00
H9     H     0.43700   0.34080   0.96860   0.01267  Uiso   1.00
H10    H     0.47650   0.36050   0.85960   0.01267  Uiso   1.00
H11    H     0.59440   0.19060   0.96860   0.01267  Uiso   1.00
H12    H     0.66390   0.27990   0.85960   0.01267  Uiso   1.00
H13    H     0.65920   0.56300   0.53140   0.01267  Uiso   1.00
H14    H     0.63950   0.52350   0.64040   0.01267  Uiso   1.00
H15    H     0.80940   0.40560   0.53140   0.01267  Uiso   1.00
H16    H     0.72010   0.33610   0.64040   0.01267  Uiso   1.00
C1     C     0.69151   0.87651   0.06238   0.01267  Uiso   1.00
C2     C     0.53920   0.71120   0.07940   0.01267  Uiso   1.00
C3     C     0.24611   0.56111   0.06238   0.01267  Uiso   1.00
C4     C     0.38140   0.70940   0.07940   0.01267  Uiso   1.00
C5     C     0.12349   0.30849   0.43762   0.01267  Uiso   1.00
C6     C     0.28880   0.46080   0.42060   0.01267  Uiso   1.00
C7     C     0.43889   0.75389   0.43762   0.01267  Uiso   1.00
C8     C     0.29060   0.61860   0.42060   0.01267  Uiso   1.00
C9     C     0.30849   0.12349   0.93762   0.01267  Uiso   1.00
C10    C     0.46080   0.28880   0.92060   0.01267  Uiso   1.00
C11    C     0.75389   0.43889   0.93762   0.01267  Uiso   1.00
C12    C     0.61860   0.29060   0.92060   0.01267  Uiso   1.00
C13    C     0.87651   0.69151   0.56238   0.01267  Uiso   1.00
C14    C     0.71120   0.53920   0.57940   0.01267  Uiso   1.00
C15    C     0.56111   0.24611   0.56238   0.01267  Uiso   1.00
C16    C     0.70940   0.38140   0.57940   0.01267  Uiso   1.00
C17    C     0.92490   0.07510   0.25000   0.01267  Uiso   1.00
C18    C     0.82510   0.17490   0.25000   0.01267  Uiso   1.00
C19    C     0.07510   0.92490   0.75000   0.01267  Uiso   1.00
C20    C     0.17490   0.82510   0.75000   0.01267  Uiso   1.00
O1     O     0.98966   0.06760   0.17094   0.01267  Uiso   1.00
O2     O     0.83335   0.88737   0.03288   0.01267  Uiso   1.00
O3     O     0.67918   0.00102   0.07980   0.01267  Uiso   1.00
O4     O     0.83940   0.26146   0.17094   0.01267  Uiso   1.00
O5     O     0.13377   0.57975   0.03288   0.01267  Uiso   1.00
O6     O     0.24102   0.41918   0.07980   0.01267  Uiso   1.00
O7     O     0.93240   0.01034   0.32906   0.01267  Uiso   1.00
O8     O     0.11263   0.16665   0.46712   0.01267  Uiso   1.00
O9     O     0.99898   0.32082   0.42020   0.01267  Uiso   1.00
O10    O     0.73854   0.16060   0.32906   0.01267  Uiso   1.00
O11    O     0.42025   0.86623   0.46712   0.01267  Uiso   1.00
O12    O     0.58082   0.75898   0.42020   0.01267  Uiso   1.00
O13    O     0.01034   0.93240   0.82906   0.01267  Uiso   1.00
O14    O     0.16665   0.11263   0.96712   0.01267  Uiso   1.00
O15    O     0.32082   0.99898   0.92020   0.01267  Uiso   1.00
O16    O     0.16060   0.73854   0.82906   0.01267  Uiso   1.00
O17    O     0.86623   0.42025   0.96712   0.01267  Uiso   1.00
O18    O     0.75898   0.58082   0.92020   0.01267  Uiso   1.00
O19    O     0.06760   0.98966   0.67094   0.01267  Uiso   1.00
O20    O     0.88737   0.83335   0.53288   0.01267  Uiso   1.00
O21    O     0.00102   0.67918   0.57980   0.01267  Uiso   1.00
O22    O     0.26146   0.83940   0.67094   0.01267  Uiso   1.00
O23    O     0.57975   0.13377   0.53288   0.01267  Uiso   1.00
O24    O     0.41918   0.24102   0.57980   0.01267  Uiso   1.00
