data_OFUDUQ_clean
_audit_creation_date              2014-07-02
_audit_creation_method            'Materials Studio'
_symmetry_space_group_name_H-M    'P1'
_symmetry_Int_Tables_number       1
_symmetry_cell_setting            triclinic
loop_
_symmetry_equiv_pos_as_xyz
  x,y,z
_cell_length_a                    5.1953
_cell_length_b                    10.5300
_cell_length_c                    14.2600
_cell_angle_alpha                 74.2900
_cell_angle_beta                  89.0200
_cell_angle_gamma                 82.3000
loop_
_atom_site_label
_atom_site_type_symbol
_atom_site_fract_x
_atom_site_fract_y
_atom_site_fract_z
_atom_site_U_iso_or_equiv
_atom_site_adp_type
_atom_site_occupancy
Co1    Co    0.00000   0.50000   0.50000   0.01267  Uiso   1.00
Co2    Co    0.50000   0.00000   0.50000   0.01267  Uiso   1.00
P1     P     0.91156   0.19730   0.47403   0.01267  Uiso   1.00
P2     P     0.08844   0.80270   0.52597   0.01267  Uiso   1.00
H1     H     0.37100   0.94640   0.32920   0.01267  Uiso   1.00
H2     H     0.07810   0.28080   0.27500   0.01267  Uiso   1.00
H3     H     0.98690   0.22770   0.13250   0.01267  Uiso   1.00
H4     H     0.68760   0.08270   0.13370   0.01267  Uiso   1.00
H5     H     0.07960   0.24530   0.70050   0.01267  Uiso   1.00
H6     H     0.78160   0.21270   0.83600   0.01267  Uiso   1.00
H7     H     0.56300   0.56400   0.65360   0.01267  Uiso   1.00
H8     H     0.25010   0.49440   0.78790   0.01267  Uiso   1.00
H9     H     0.29040   0.34380   0.84620   0.01267  Uiso   1.00
H10    H     0.71120   0.57670   0.86210   0.01267  Uiso   1.00
H11    H     0.20840   0.35810   0.00290   0.01267  Uiso   1.00
H12    H     0.62900   0.05360   0.67080   0.01267  Uiso   1.00
H13    H     0.92190   0.71920   0.72500   0.01267  Uiso   1.00
H14    H     0.01310   0.77230   0.86750   0.01267  Uiso   1.00
H15    H     0.31240   0.91730   0.86630   0.01267  Uiso   1.00
H16    H     0.92040   0.75470   0.29950   0.01267  Uiso   1.00
H17    H     0.21840   0.78730   0.16400   0.01267  Uiso   1.00
H18    H     0.43700   0.43600   0.34640   0.01267  Uiso   1.00
H19    H     0.74990   0.50560   0.21210   0.01267  Uiso   1.00
H20    H     0.70960   0.65620   0.15380   0.01267  Uiso   1.00
H21    H     0.28880   0.42330   0.13790   0.01267  Uiso   1.00
H22    H     0.79160   0.64190   0.99710   0.01267  Uiso   1.00
C1     C     0.83190   0.16740   0.35770   0.01267  Uiso   1.00
C2     C     0.95810   0.22290   0.27450   0.01267  Uiso   1.00
C3     C     0.90340   0.19110   0.18980   0.01267  Uiso   1.00
C4     C     0.72530   0.10540   0.19010   0.01267  Uiso   1.00
C5     C     0.60390   0.05360   0.27630   0.01267  Uiso   1.00
C6     C     0.93830   0.30580   0.70790   0.01267  Uiso   1.00
C7     C     0.77470   0.28740   0.78280   0.01267  Uiso   1.00
C8     C     0.65600   0.48080   0.68190   0.01267  Uiso   1.00
C9     C     0.37460   0.42360   0.82670   0.01267  Uiso   1.00
C10    C     0.44580   0.46130   0.91720   0.01267  Uiso   1.00
C11    C     0.62110   0.54440   0.91860   0.01267  Uiso   1.00
C12    C     0.32860   0.41710   0.99970   0.01267  Uiso   1.00
C13    C     0.16810   0.83260   0.64230   0.01267  Uiso   1.00
C14    C     0.04190   0.77710   0.72550   0.01267  Uiso   1.00
C15    C     0.09660   0.80890   0.81020   0.01267  Uiso   1.00
C16    C     0.27470   0.89460   0.80990   0.01267  Uiso   1.00
C17    C     0.39610   0.94640   0.72370   0.01267  Uiso   1.00
C18    C     0.06170   0.69420   0.29210   0.01267  Uiso   1.00
C19    C     0.22530   0.71260   0.21720   0.01267  Uiso   1.00
C20    C     0.34400   0.51920   0.31810   0.01267  Uiso   1.00
C21    C     0.62540   0.57640   0.17330   0.01267  Uiso   1.00
C22    C     0.55420   0.53870   0.08280   0.01267  Uiso   1.00
C23    C     0.37890   0.45560   0.08140   0.01267  Uiso   1.00
C24    C     0.67140   0.58290   0.00030   0.01267  Uiso   1.00
N1     N     0.65160   0.08490   0.35853   0.01267  Uiso   1.00
N2     N     0.86310   0.42920   0.64348   0.01267  Uiso   1.00
N3     N     0.59600   0.39950   0.76630   0.01267  Uiso   1.00
N4     N     0.34840   0.91510   0.64147   0.01267  Uiso   1.00
N5     N     0.13690   0.57080   0.35652   0.01267  Uiso   1.00
N6     N     0.40400   0.60050   0.23370   0.01267  Uiso   1.00
O1     O     0.82850   0.34445   0.46493   0.01267  Uiso   1.00
O2     O     0.75400   0.10629   0.54753   0.01267  Uiso   1.00
O3     O     0.20390   0.16184   0.48837   0.01267  Uiso   1.00
O4     O     0.43640   0.96830   0.27549   0.01267  Uiso   1.00
O5     O     0.17150   0.65555   0.53507   0.01267  Uiso   1.00
O6     O     0.24600   0.89371   0.45247   0.01267  Uiso   1.00
O7     O     0.79610   0.83816   0.51163   0.01267  Uiso   1.00
O8     O     0.56360   0.03170   0.72451   0.01267  Uiso   1.00
