data_OGAGIN_clean
_audit_creation_date              2014-07-02
_audit_creation_method            'Materials Studio'
_symmetry_space_group_name_H-M    'P1'
_symmetry_Int_Tables_number       1
_symmetry_cell_setting            triclinic
loop_
_symmetry_equiv_pos_as_xyz
  x,y,z
_cell_length_a                    9.7714
_cell_length_b                    9.9797
_cell_length_c                    22.9229
_cell_angle_alpha                 90.0000
_cell_angle_beta                  91.5350
_cell_angle_gamma                 90.0000
loop_
_atom_site_label
_atom_site_type_symbol
_atom_site_fract_x
_atom_site_fract_y
_atom_site_fract_z
_atom_site_U_iso_or_equiv
_atom_site_adp_type
_atom_site_occupancy
Zn1    Zn    0.10752   0.31796   0.01087   0.01267  Uiso   1.00
Zn2    Zn    0.34638   0.35883   0.50370   0.01267  Uiso   1.00
Zn3    Zn    0.39248   0.81796   0.98913   0.01267  Uiso   1.00
Zn4    Zn    0.15362   0.85883   0.49630   0.01267  Uiso   1.00
Zn5    Zn    0.89248   0.68204   0.98913   0.01267  Uiso   1.00
Zn6    Zn    0.65362   0.64117   0.49630   0.01267  Uiso   1.00
Zn7    Zn    0.60752   0.18204   0.01087   0.01267  Uiso   1.00
Zn8    Zn    0.84638   0.14117   0.50370   0.01267  Uiso   1.00
P1     P     0.63098   0.33706   0.44619   0.01267  Uiso   1.00
P2     P     0.82776   0.41251   0.05985   0.01267  Uiso   1.00
P3     P     0.86902   0.83706   0.55381   0.01267  Uiso   1.00
P4     P     0.67224   0.91251   0.94015   0.01267  Uiso   1.00
P5     P     0.36902   0.66294   0.55381   0.01267  Uiso   1.00
P6     P     0.17224   0.58749   0.94015   0.01267  Uiso   1.00
P7     P     0.13098   0.16294   0.44619   0.01267  Uiso   1.00
P8     P     0.32776   0.08749   0.05985   0.01267  Uiso   1.00
H1     H     0.51940   0.42170   0.60810   0.01267  Uiso   1.00
H2     H     0.66310   0.31690   0.67540   0.01267  Uiso   1.00
H3     H     0.54410   0.96080   0.60680   0.01267  Uiso   1.00
H4     H     0.39930   0.07430   0.54260   0.01267  Uiso   1.00
H5     H     0.80270   0.02840   0.66790   0.01267  Uiso   1.00
H6     H     0.67570   0.96640   0.70080   0.01267  Uiso   1.00
H7     H     0.80620   0.21250   0.73440   0.01267  Uiso   1.00
H8     H     0.68200   0.14580   0.76820   0.01267  Uiso   1.00
H9     H     0.82190   0.95690   0.79070   0.01267  Uiso   1.00
H10    H     0.94570   0.02480   0.75770   0.01267  Uiso   1.00
H11    H     0.80690   0.28130   0.83410   0.01267  Uiso   1.00
H12    H     0.89470   0.37110   0.92020   0.01267  Uiso   1.00
H13    H     0.03730   0.95170   0.86430   0.01267  Uiso   1.00
H14    H     0.12100   0.04960   0.94940   0.01267  Uiso   1.00
H15    H     0.67850   0.33515   0.39470   0.01267  Uiso   1.00
H16    H     0.78920   0.46570   0.10830   0.01267  Uiso   1.00
H17    H     0.98060   0.92170   0.39190   0.01267  Uiso   1.00
H18    H     0.83690   0.81690   0.32460   0.01267  Uiso   1.00
H19    H     0.95590   0.46080   0.39320   0.01267  Uiso   1.00
H20    H     0.10070   0.57430   0.45740   0.01267  Uiso   1.00
H21    H     0.69730   0.52840   0.33210   0.01267  Uiso   1.00
H22    H     0.82430   0.46640   0.29920   0.01267  Uiso   1.00
H23    H     0.69380   0.71250   0.26560   0.01267  Uiso   1.00
H24    H     0.81800   0.64580   0.23180   0.01267  Uiso   1.00
H25    H     0.67810   0.45690   0.20930   0.01267  Uiso   1.00
H26    H     0.55430   0.52480   0.24230   0.01267  Uiso   1.00
H27    H     0.69310   0.78130   0.16590   0.01267  Uiso   1.00
H28    H     0.60530   0.87110   0.07980   0.01267  Uiso   1.00
H29    H     0.46270   0.45170   0.13570   0.01267  Uiso   1.00
H30    H     0.37900   0.54960   0.05060   0.01267  Uiso   1.00
H31    H     0.82150   0.83515   0.60530   0.01267  Uiso   1.00
H32    H     0.71080   0.96570   0.89170   0.01267  Uiso   1.00
H33    H     0.48060   0.57830   0.39190   0.01267  Uiso   1.00
H34    H     0.33690   0.68310   0.32460   0.01267  Uiso   1.00
H35    H     0.45590   0.03920   0.39320   0.01267  Uiso   1.00
H36    H     0.60070   0.92570   0.45740   0.01267  Uiso   1.00
H37    H     0.19730   0.97160   0.33210   0.01267  Uiso   1.00
H38    H     0.32430   0.03360   0.29920   0.01267  Uiso   1.00
H39    H     0.19380   0.78750   0.26560   0.01267  Uiso   1.00
H40    H     0.31800   0.85420   0.23180   0.01267  Uiso   1.00
H41    H     0.17810   0.04310   0.20930   0.01267  Uiso   1.00
H42    H     0.05430   0.97520   0.24230   0.01267  Uiso   1.00
H43    H     0.19310   0.71870   0.16590   0.01267  Uiso   1.00
H44    H     0.10530   0.62890   0.07980   0.01267  Uiso   1.00
H45    H     0.96270   0.04830   0.13570   0.01267  Uiso   1.00
H46    H     0.87900   0.95040   0.05060   0.01267  Uiso   1.00
H47    H     0.32150   0.66485   0.60530   0.01267  Uiso   1.00
H48    H     0.21080   0.53430   0.89170   0.01267  Uiso   1.00
H49    H     0.01940   0.07830   0.60810   0.01267  Uiso   1.00
H50    H     0.16310   0.18310   0.67540   0.01267  Uiso   1.00
H51    H     0.04410   0.53920   0.60680   0.01267  Uiso   1.00
H52    H     0.89930   0.42570   0.54260   0.01267  Uiso   1.00
H53    H     0.30270   0.47160   0.66790   0.01267  Uiso   1.00
H54    H     0.17570   0.53360   0.70080   0.01267  Uiso   1.00
H55    H     0.30620   0.28750   0.73440   0.01267  Uiso   1.00
H56    H     0.18200   0.35420   0.76820   0.01267  Uiso   1.00
H57    H     0.32190   0.54310   0.79070   0.01267  Uiso   1.00
H58    H     0.44570   0.47520   0.75770   0.01267  Uiso   1.00
H59    H     0.30690   0.21870   0.83410   0.01267  Uiso   1.00
H60    H     0.39470   0.12890   0.92020   0.01267  Uiso   1.00
H61    H     0.53730   0.54830   0.86430   0.01267  Uiso   1.00
H62    H     0.62100   0.45040   0.94940   0.01267  Uiso   1.00
H63    H     0.17850   0.16485   0.39470   0.01267  Uiso   1.00
H64    H     0.28920   0.03430   0.10830   0.01267  Uiso   1.00
C1     C     0.52380   0.32664   0.60816   0.01267  Uiso   1.00
C2     C     0.61109   0.26475   0.64820   0.01267  Uiso   1.00
C3     C     0.62259   0.12532   0.64852   0.01267  Uiso   1.00
C4     C     0.54061   0.05587   0.60805   0.01267  Uiso   1.00
C5     C     0.45414   0.12421   0.56965   0.01267  Uiso   1.00
C6     C     0.71956   0.05155   0.68944   0.01267  Uiso   1.00
C7     C     0.76355   0.12615   0.74493   0.01267  Uiso   1.00
C8     C     0.86510   0.04385   0.78161   0.01267  Uiso   1.00
C9     C     0.91484   0.10673   0.83809   0.01267  Uiso   1.00
C10    C     0.87240   0.23210   0.85674   0.01267  Uiso   1.00
C11    C     0.92540   0.28532   0.90830   0.01267  Uiso   1.00
C12    C     0.00772   0.03900   0.87449   0.01267  Uiso   1.00
C13    C     0.05727   0.09781   0.92539   0.01267  Uiso   1.00
C14    C     0.97620   0.82664   0.39184   0.01267  Uiso   1.00
C15    C     0.88891   0.76475   0.35180   0.01267  Uiso   1.00
C16    C     0.87741   0.62532   0.35148   0.01267  Uiso   1.00
C17    C     0.95939   0.55587   0.39195   0.01267  Uiso   1.00
C18    C     0.04586   0.62421   0.43035   0.01267  Uiso   1.00
C19    C     0.78044   0.55155   0.31056   0.01267  Uiso   1.00
C20    C     0.73645   0.62615   0.25507   0.01267  Uiso   1.00
C21    C     0.63490   0.54385   0.21839   0.01267  Uiso   1.00
C22    C     0.58516   0.60673   0.16191   0.01267  Uiso   1.00
C23    C     0.62760   0.73210   0.14326   0.01267  Uiso   1.00
C24    C     0.57460   0.78532   0.09170   0.01267  Uiso   1.00
C25    C     0.49228   0.53900   0.12551   0.01267  Uiso   1.00
C26    C     0.44273   0.59781   0.07461   0.01267  Uiso   1.00
C27    C     0.47620   0.67336   0.39184   0.01267  Uiso   1.00
C28    C     0.38891   0.73525   0.35180   0.01267  Uiso   1.00
C29    C     0.37741   0.87468   0.35148   0.01267  Uiso   1.00
C30    C     0.45939   0.94413   0.39195   0.01267  Uiso   1.00
C31    C     0.54586   0.87579   0.43035   0.01267  Uiso   1.00
C32    C     0.28044   0.94845   0.31056   0.01267  Uiso   1.00
C33    C     0.23645   0.87385   0.25507   0.01267  Uiso   1.00
C34    C     0.13490   0.95615   0.21839   0.01267  Uiso   1.00
C35    C     0.08516   0.89327   0.16191   0.01267  Uiso   1.00
C36    C     0.12760   0.76790   0.14326   0.01267  Uiso   1.00
C37    C     0.07460   0.71468   0.09170   0.01267  Uiso   1.00
C38    C     0.99228   0.96100   0.12551   0.01267  Uiso   1.00
C39    C     0.94273   0.90219   0.07461   0.01267  Uiso   1.00
C40    C     0.02380   0.17336   0.60816   0.01267  Uiso   1.00
C41    C     0.11109   0.23525   0.64820   0.01267  Uiso   1.00
C42    C     0.12259   0.37468   0.64852   0.01267  Uiso   1.00
C43    C     0.04061   0.44413   0.60805   0.01267  Uiso   1.00
C44    C     0.95414   0.37579   0.56965   0.01267  Uiso   1.00
C45    C     0.21956   0.44845   0.68944   0.01267  Uiso   1.00
C46    C     0.26355   0.37385   0.74493   0.01267  Uiso   1.00
C47    C     0.36510   0.45615   0.78161   0.01267  Uiso   1.00
C48    C     0.41484   0.39327   0.83809   0.01267  Uiso   1.00
C49    C     0.37240   0.26790   0.85674   0.01267  Uiso   1.00
C50    C     0.42540   0.21468   0.90830   0.01267  Uiso   1.00
C51    C     0.50772   0.46100   0.87449   0.01267  Uiso   1.00
C52    C     0.55727   0.40219   0.92539   0.01267  Uiso   1.00
N1     N     0.44487   0.25909   0.56921   0.01267  Uiso   1.00
N2     N     0.01817   0.22139   0.94222   0.01267  Uiso   1.00
N3     N     0.05513   0.75909   0.43079   0.01267  Uiso   1.00
N4     N     0.48183   0.72139   0.05778   0.01267  Uiso   1.00
N5     N     0.55513   0.74091   0.43079   0.01267  Uiso   1.00
N6     N     0.98183   0.77861   0.05778   0.01267  Uiso   1.00
N7     N     0.94487   0.24091   0.56921   0.01267  Uiso   1.00
N8     N     0.51817   0.27861   0.94222   0.01267  Uiso   1.00
O1     O     0.97885   0.37699   0.06909   0.01267  Uiso   1.00
O2     O     0.47449   0.34724   0.43883   0.01267  Uiso   1.00
O3     O     0.67393   0.20684   0.47479   0.01267  Uiso   1.00
O4     O     0.69313   0.45840   0.47651   0.01267  Uiso   1.00
O5     O     0.74016   0.29139   0.05027   0.01267  Uiso   1.00
O6     O     0.80405   0.51806   0.01308   0.01267  Uiso   1.00
O7     O     0.52115   0.87699   0.93091   0.01267  Uiso   1.00
O8     O     0.02551   0.84724   0.56117   0.01267  Uiso   1.00
O9     O     0.82607   0.70684   0.52521   0.01267  Uiso   1.00
O10    O     0.80687   0.95840   0.52349   0.01267  Uiso   1.00
O11    O     0.75984   0.79139   0.94973   0.01267  Uiso   1.00
O12    O     0.69595   0.01806   0.98692   0.01267  Uiso   1.00
O13    O     0.02115   0.62301   0.93091   0.01267  Uiso   1.00
O14    O     0.52551   0.65276   0.56117   0.01267  Uiso   1.00
O15    O     0.32607   0.79316   0.52521   0.01267  Uiso   1.00
O16    O     0.30687   0.54160   0.52349   0.01267  Uiso   1.00
O17    O     0.25984   0.70861   0.94973   0.01267  Uiso   1.00
O18    O     0.19595   0.48194   0.98692   0.01267  Uiso   1.00
O19    O     0.47885   0.12301   0.06909   0.01267  Uiso   1.00
O20    O     0.97449   0.15276   0.43883   0.01267  Uiso   1.00
O21    O     0.17393   0.29316   0.47479   0.01267  Uiso   1.00
O22    O     0.19313   0.04160   0.47651   0.01267  Uiso   1.00
O23    O     0.24016   0.20861   0.05027   0.01267  Uiso   1.00
O24    O     0.30405   0.98194   0.01308   0.01267  Uiso   1.00
