data_image0
_cell_length_a       4.9865
_cell_length_b       21.3894
_cell_length_c       18.9338
_cell_angle_alpha    90
_cell_angle_beta     90
_cell_angle_gamma    90

_symmetry_space_group_name_H-M    "P 1"
_symmetry_int_tables_number       1

loop_
  _symmetry_equiv_pos_as_xyz
  'x, y, z'

loop_
  _atom_site_label
  _atom_site_occupancy
  _atom_site_fract_x
  _atom_site_fract_y
  _atom_site_fract_z
  _atom_site_thermal_displace_type
  _atom_site_B_iso_or_equiv
  _atom_site_type_symbol
  Ba1      1.0000 0.80404  0.43403  0.12022  Biso   1.000  Ba
  S1       1.0000 0.30344  0.56007  0.09686  Biso   1.000  S
  O1       1.0000 0.30060  0.40397  0.04757  Biso   1.000  O
  H1       1.0000 0.30030  0.42320  0.00770  Biso   1.000  H
  H2       1.0000 0.30030  0.36450  0.03860  Biso   1.000  H
  O2       1.0000 0.19490  0.52068  0.15331  Biso   1.000  O
  O3       1.0000 0.59600  0.55644  0.09483  Biso   1.000  O
  O4       1.0000 0.18230  0.54707  0.02838  Biso   1.000  O
  O5       1.0000 0.57520  0.85956  0.18587  Biso   1.000  O
  C1       1.0000 0.33190  0.66120  0.18595  Biso   1.000  C
  C2       1.0000 0.54310  0.70353  0.18652  Biso   1.000  C
  H3       1.0000 0.61710  0.71760  0.14310  Biso   1.000  H
  C3       1.0000 0.21520  0.63889  0.11724  Biso   1.000  C
  H4       1.0000 0.27850  0.66650  0.07870  Biso   1.000  H
  H5       1.0000 0.01740  0.64230  0.11950  Biso   1.000  H
  H6       1.0000 0.97930  0.76920  0.20770  Biso   1.000  H
  Ba2      1.0000 0.19596  0.56597  0.62022  Biso   1.000  Ba
  S2       1.0000 0.69656  0.43993  0.59686  Biso   1.000  S
  O6       1.0000 0.69940  0.59603  0.54757  Biso   1.000  O
  H7       1.0000 0.69970  0.57680  0.50770  Biso   1.000  H
  H8       1.0000 0.69970  0.63550  0.53860  Biso   1.000  H
  O7       1.0000 0.80510  0.47932  0.65331  Biso   1.000  O
  O8       1.0000 0.40400  0.44356  0.59483  Biso   1.000  O
  O9       1.0000 0.81770  0.45293  0.52838  Biso   1.000  O
  O10      1.0000 0.42480  0.14044  0.68587  Biso   1.000  O
  C4       1.0000 0.66810  0.33880  0.68595  Biso   1.000  C
  C5       1.0000 0.45690  0.29647  0.68652  Biso   1.000  C
  H9       1.0000 0.38290  0.28240  0.64310  Biso   1.000  H
  C6       1.0000 0.78480  0.36111  0.61724  Biso   1.000  C
  H10      1.0000 0.72150  0.33350  0.57870  Biso   1.000  H
  H11      1.0000 0.98260  0.35770  0.61950  Biso   1.000  H
  H12      1.0000 0.02070  0.23080  0.70770  Biso   1.000  H
  Ba3      1.0000 0.19596  0.93403  0.37978  Biso   1.000  Ba
  S3       1.0000 0.69656  0.06007  0.40314  Biso   1.000  S
  O11      1.0000 0.69940  0.90397  0.45243  Biso   1.000  O
  H13      1.0000 0.69970  0.92320  0.49230  Biso   1.000  H
  H14      1.0000 0.69970  0.86450  0.46140  Biso   1.000  H
  O12      1.0000 0.80510  0.02068  0.34669  Biso   1.000  O
  O13      1.0000 0.40400  0.05644  0.40517  Biso   1.000  O
  O14      1.0000 0.81770  0.04707  0.47162  Biso   1.000  O
  O15      1.0000 0.42480  0.35956  0.31413  Biso   1.000  O
  C7       1.0000 0.66810  0.16120  0.31405  Biso   1.000  C
  C8       1.0000 0.45690  0.20353  0.31348  Biso   1.000  C
  H15      1.0000 0.38290  0.21760  0.35690  Biso   1.000  H
  C9       1.0000 0.78480  0.13889  0.38276  Biso   1.000  C
  H16      1.0000 0.72150  0.16650  0.42130  Biso   1.000  H
  H17      1.0000 0.98260  0.14230  0.38050  Biso   1.000  H
  H18      1.0000 0.02070  0.26920  0.29230  Biso   1.000  H
  Ba4      1.0000 0.80404  0.06597  0.87978  Biso   1.000  Ba
  S4       1.0000 0.30344  0.93993  0.90314  Biso   1.000  S
  O16      1.0000 0.30060  0.09603  0.95243  Biso   1.000  O
  H19      1.0000 0.30030  0.07680  0.99230  Biso   1.000  H
  H20      1.0000 0.30030  0.13550  0.96140  Biso   1.000  H
  O17      1.0000 0.19490  0.97932  0.84669  Biso   1.000  O
  O18      1.0000 0.59600  0.94356  0.90517  Biso   1.000  O
  O19      1.0000 0.18230  0.95293  0.97162  Biso   1.000  O
  O20      1.0000 0.57520  0.64044  0.81413  Biso   1.000  O
  C10      1.0000 0.33190  0.83880  0.81405  Biso   1.000  C
  C11      1.0000 0.54310  0.79647  0.81348  Biso   1.000  C
  H21      1.0000 0.61710  0.78240  0.85690  Biso   1.000  H
  C12      1.0000 0.21520  0.86111  0.88276  Biso   1.000  C
  H22      1.0000 0.27850  0.83350  0.92130  Biso   1.000  H
  H23      1.0000 0.01740  0.85770  0.88050  Biso   1.000  H
  H24      1.0000 0.97930  0.73080  0.79230  Biso   1.000  H
  Ba5      1.0000 0.19596  0.56597  0.87978  Biso   1.000  Ba
  S5       1.0000 0.69656  0.43993  0.90314  Biso   1.000  S
  O21      1.0000 0.69940  0.59603  0.95243  Biso   1.000  O
  H25      1.0000 0.69970  0.57680  0.99230  Biso   1.000  H
  H26      1.0000 0.69970  0.63550  0.96140  Biso   1.000  H
  O22      1.0000 0.80510  0.47932  0.84669  Biso   1.000  O
  O23      1.0000 0.40400  0.44356  0.90517  Biso   1.000  O
  O24      1.0000 0.81770  0.45293  0.97162  Biso   1.000  O
  O25      1.0000 0.42480  0.14044  0.81413  Biso   1.000  O
  C13      1.0000 0.66810  0.33880  0.81405  Biso   1.000  C
  C14      1.0000 0.45690  0.29647  0.81348  Biso   1.000  C
  H27      1.0000 0.38290  0.28240  0.85690  Biso   1.000  H
  C15      1.0000 0.78480  0.36111  0.88276  Biso   1.000  C
  H28      1.0000 0.72150  0.33350  0.92130  Biso   1.000  H
  H29      1.0000 0.98260  0.35770  0.88050  Biso   1.000  H
  H30      1.0000 0.02070  0.23080  0.79230  Biso   1.000  H
  Ba6      1.0000 0.80404  0.43403  0.37978  Biso   1.000  Ba
  S6       1.0000 0.30344  0.56007  0.40314  Biso   1.000  S
  O26      1.0000 0.30060  0.40397  0.45243  Biso   1.000  O
  H31      1.0000 0.30030  0.42320  0.49230  Biso   1.000  H
  H32      1.0000 0.30030  0.36450  0.46140  Biso   1.000  H
  O27      1.0000 0.19490  0.52068  0.34669  Biso   1.000  O
  O28      1.0000 0.59600  0.55644  0.40517  Biso   1.000  O
  O29      1.0000 0.18230  0.54707  0.47162  Biso   1.000  O
  O30      1.0000 0.57520  0.85956  0.31413  Biso   1.000  O
  C16      1.0000 0.33190  0.66120  0.31405  Biso   1.000  C
  C17      1.0000 0.54310  0.70353  0.31348  Biso   1.000  C
  H33      1.0000 0.61710  0.71760  0.35690  Biso   1.000  H
  C18      1.0000 0.21520  0.63889  0.38276  Biso   1.000  C
  H34      1.0000 0.27850  0.66650  0.42130  Biso   1.000  H
  H35      1.0000 0.01740  0.64230  0.38050  Biso   1.000  H
  H36      1.0000 0.97930  0.76920  0.29230  Biso   1.000  H
  Ba7      1.0000 0.80404  0.06597  0.62022  Biso   1.000  Ba
  S7       1.0000 0.30344  0.93993  0.59686  Biso   1.000  S
  O31      1.0000 0.30060  0.09603  0.54757  Biso   1.000  O
  H37      1.0000 0.30030  0.07680  0.50770  Biso   1.000  H
  H38      1.0000 0.30030  0.13550  0.53860  Biso   1.000  H
  O32      1.0000 0.19490  0.97932  0.65331  Biso   1.000  O
  O33      1.0000 0.59600  0.94356  0.59483  Biso   1.000  O
  O34      1.0000 0.18230  0.95293  0.52838  Biso   1.000  O
  O35      1.0000 0.57520  0.64044  0.68587  Biso   1.000  O
  C19      1.0000 0.33190  0.83880  0.68595  Biso   1.000  C
  C20      1.0000 0.54310  0.79647  0.68652  Biso   1.000  C
  H39      1.0000 0.61710  0.78240  0.64310  Biso   1.000  H
  C21      1.0000 0.21520  0.86111  0.61724  Biso   1.000  C
  H40      1.0000 0.27850  0.83350  0.57870  Biso   1.000  H
  H41      1.0000 0.01740  0.85770  0.61950  Biso   1.000  H
  H42      1.0000 0.97930  0.73080  0.70770  Biso   1.000  H
  Ba8      1.0000 0.19596  0.93403  0.12022  Biso   1.000  Ba
  S8       1.0000 0.69656  0.06007  0.09686  Biso   1.000  S
  O36      1.0000 0.69940  0.90397  0.04757  Biso   1.000  O
  H43      1.0000 0.69970  0.92320  0.00770  Biso   1.000  H
  H44      1.0000 0.69970  0.86450  0.03860  Biso   1.000  H
  O37      1.0000 0.80510  0.02068  0.15331  Biso   1.000  O
  O38      1.0000 0.40400  0.05644  0.09483  Biso   1.000  O
  O39      1.0000 0.81770  0.04707  0.02838  Biso   1.000  O
  O40      1.0000 0.42480  0.35956  0.18587  Biso   1.000  O
  C22      1.0000 0.66810  0.16120  0.18595  Biso   1.000  C
  C23      1.0000 0.45690  0.20353  0.18652  Biso   1.000  C
  H45      1.0000 0.38290  0.21760  0.14310  Biso   1.000  H
  C24      1.0000 0.78480  0.13889  0.11724  Biso   1.000  C
  H46      1.0000 0.72150  0.16650  0.07870  Biso   1.000  H
  H47      1.0000 0.98260  0.14230  0.11950  Biso   1.000  H
  H48      1.0000 0.02070  0.26920  0.20770  Biso   1.000  H
  S9       1.0000 0.73200  0.85224  0.25000  Biso   1.000  S
  O41      1.0000 0.65950  0.49818  0.25000  Biso   1.000  O
  H49      1.0000 0.48890  0.50420  0.25000  Biso   1.000  H
  H50      1.0000 0.73510  0.53430  0.25000  Biso   1.000  H
  O42      1.0000 0.96830  0.89325  0.25000  Biso   1.000  O
  C25      1.0000 0.22460  0.64062  0.25000  Biso   1.000  C
  H51      1.0000 0.07740  0.61240  0.25000  Biso   1.000  H
  C26      1.0000 0.64710  0.72545  0.25000  Biso   1.000  C
  C27      1.0000 0.86500  0.77482  0.25000  Biso   1.000  C
  S10      1.0000 0.26800  0.14776  0.75000  Biso   1.000  S
  O43      1.0000 0.34050  0.50182  0.75000  Biso   1.000  O
  H52      1.0000 0.51110  0.49580  0.75000  Biso   1.000  H
  H53      1.0000 0.26490  0.46570  0.75000  Biso   1.000  H
  O44      1.0000 0.03170  0.10675  0.75000  Biso   1.000  O
  C28      1.0000 0.77540  0.35938  0.75000  Biso   1.000  C
  H54      1.0000 0.92260  0.38760  0.75000  Biso   1.000  H
  C29      1.0000 0.35290  0.27455  0.75000  Biso   1.000  C
  C30      1.0000 0.13500  0.22518  0.75000  Biso   1.000  C
  S11      1.0000 0.26800  0.35224  0.25000  Biso   1.000  S
  O45      1.0000 0.34050  0.99818  0.25000  Biso   1.000  O
  H55      1.0000 0.51110  0.00420  0.25000  Biso   1.000  H
  H56      1.0000 0.26490  0.03430  0.25000  Biso   1.000  H
  O46      1.0000 0.03170  0.39325  0.25000  Biso   1.000  O
  C31      1.0000 0.77540  0.14062  0.25000  Biso   1.000  C
  H57      1.0000 0.92260  0.11240  0.25000  Biso   1.000  H
  C32      1.0000 0.35290  0.22545  0.25000  Biso   1.000  C
  C33      1.0000 0.13500  0.27482  0.25000  Biso   1.000  C
  S12      1.0000 0.73200  0.64776  0.75000  Biso   1.000  S
  O47      1.0000 0.65950  0.00182  0.75000  Biso   1.000  O
  H58      1.0000 0.48890  0.99580  0.75000  Biso   1.000  H
  H59      1.0000 0.73510  0.96570  0.75000  Biso   1.000  H
  O48      1.0000 0.96830  0.60675  0.75000  Biso   1.000  O
  C34      1.0000 0.22460  0.85938  0.75000  Biso   1.000  C
  H60      1.0000 0.07740  0.88760  0.75000  Biso   1.000  H
  C35      1.0000 0.64710  0.77455  0.75000  Biso   1.000  C
  C36      1.0000 0.86500  0.72518  0.75000  Biso   1.000  C
