data_OGAXUR_clean
_audit_creation_date              2014-07-02
_audit_creation_method            'Materials Studio'
_symmetry_space_group_name_H-M    'P1'
_symmetry_Int_Tables_number       1
_symmetry_cell_setting            triclinic
loop_
_symmetry_equiv_pos_as_xyz
  x,y,z
_cell_length_a                    8.3848
_cell_length_b                    17.2343
_cell_length_c                    17.2343
_cell_angle_alpha                 62.5774
_cell_angle_beta                  80.6670
_cell_angle_gamma                 99.3330
loop_
_atom_site_label
_atom_site_type_symbol
_atom_site_fract_x
_atom_site_fract_y
_atom_site_fract_z
_atom_site_U_iso_or_equiv
_atom_site_adp_type
_atom_site_occupancy
Co1    Co    0.34499   0.77937   0.06674   0.01267  Uiso   1.00
Co2    Co    0.03645   0.21929   0.93323   0.01267  Uiso   1.00
Co3    Co    0.41173   0.06674   0.15389   0.01267  Uiso   1.00
Co4    Co    0.96968   0.93323   0.84748   0.01267  Uiso   1.00
Co5    Co    0.56562   0.15389   0.77937   0.01267  Uiso   1.00
Co6    Co    0.81716   0.84748   0.21929   0.01267  Uiso   1.00
H1     H     0.70890   0.52010   0.03160   0.01267  Uiso   1.00
H2     H     0.75470   0.59880   0.10430   0.01267  Uiso   1.00
H3     H     0.92590   0.67440   0.05630   0.01267  Uiso   1.00
H4     H     0.90350   0.58700   0.14950   0.01267  Uiso   1.00
H5     H     0.72140   0.36690   0.97170   0.01267  Uiso   1.00
H6     H     0.75370   0.45990   0.88260   0.01267  Uiso   1.00
H7     H     0.62120   0.43630   0.97120   0.01267  Uiso   1.00
H8     H     0.98010   0.39650   0.89120   0.01267  Uiso   1.00
H9     H     0.17170   0.42530   0.88370   0.01267  Uiso   1.00
H10    H     0.35390   0.45750   0.99450   0.01267  Uiso   1.00
H11    H     0.40120   0.56220   0.95910   0.01267  Uiso   1.00
H12    H     0.36210   0.52620   0.89370   0.01267  Uiso   1.00
H13    H     0.30440   0.56220   0.07430   0.01267  Uiso   1.00
H14    H     0.16840   0.59580   0.11360   0.01267  Uiso   1.00
H15    H     0.21260   0.70420   0.90640   0.01267  Uiso   1.00
H16    H     0.38410   0.77920   0.86350   0.01267  Uiso   1.00
H17    H     0.54130   0.68430   0.92460   0.01267  Uiso   1.00
H18    H     0.55520   0.66010   0.02280   0.01267  Uiso   1.00
H19    H     0.85190   0.31110   0.07430   0.01267  Uiso   1.00
H20    H     0.93230   0.23480   0.13000   0.01267  Uiso   1.00
H21    H     0.20440   0.31430   0.07420   0.01267  Uiso   1.00
H22    H     0.29830   0.33690   0.97650   0.01267  Uiso   1.00
H23    H     0.74050   0.03160   0.44830   0.01267  Uiso   1.00
H24    H     0.85900   0.10430   0.29690   0.01267  Uiso   1.00
H25    H     0.98220   0.05630   0.26930   0.01267  Uiso   1.00
H26    H     0.05300   0.14950   0.26350   0.01267  Uiso   1.00
H27    H     0.69310   0.97170   0.66140   0.01267  Uiso   1.00
H28    H     0.63630   0.88260   0.65750   0.01267  Uiso   1.00
H29    H     0.59240   0.97120   0.59250   0.01267  Uiso   1.00
H30    H     0.87130   0.89120   0.71230   0.01267  Uiso   1.00
H31    H     0.05540   0.88370   0.69100   0.01267  Uiso   1.00
H32    H     0.34840   0.99450   0.54800   0.01267  Uiso   1.00
H33    H     0.36030   0.95910   0.47870   0.01267  Uiso   1.00
H34    H     0.25580   0.89370   0.58010   0.01267  Uiso   1.00
H35    H     0.37870   0.07430   0.36350   0.01267  Uiso   1.00
H36    H     0.28200   0.11360   0.29060   0.01267  Uiso   1.00
H37    H     0.11900   0.90640   0.38940   0.01267  Uiso   1.00
H38    H     0.24760   0.86350   0.35730   0.01267  Uiso   1.00
H39    H     0.46590   0.92460   0.39110   0.01267  Uiso   1.00
H40    H     0.57800   0.02280   0.31710   0.01267  Uiso   1.00
H41    H     0.92620   0.07430   0.61460   0.01267  Uiso   1.00
H42    H     0.06230   0.13000   0.63520   0.01267  Uiso   1.00
H43    H     0.27860   0.07420   0.61150   0.01267  Uiso   1.00
H44    H     0.27480   0.97650   0.68660   0.01267  Uiso   1.00
H45    H     0.18880   0.44830   0.52010   0.01267  Uiso   1.00
H46    H     0.15590   0.29690   0.59880   0.01267  Uiso   1.00
H47    H     0.25150   0.26930   0.67440   0.01267  Uiso   1.00
H48    H     0.31650   0.26350   0.58700   0.01267  Uiso   1.00
H49    H     0.35450   0.66140   0.36690   0.01267  Uiso   1.00
H50    H     0.29380   0.65750   0.45990   0.01267  Uiso   1.00
H51    H     0.18490   0.59250   0.43630   0.01267  Uiso   1.00
H52    H     0.58360   0.71230   0.39650   0.01267  Uiso   1.00
H53    H     0.74640   0.69100   0.42530   0.01267  Uiso   1.00
H54    H     0.89640   0.54800   0.45750   0.01267  Uiso   1.00
H55    H     0.83900   0.47870   0.56220   0.01267  Uiso   1.00
H56    H     0.83590   0.58010   0.52620   0.01267  Uiso   1.00
H57    H     0.74220   0.36350   0.56220   0.01267  Uiso   1.00
H58    H     0.57260   0.29060   0.59580   0.01267  Uiso   1.00
H59    H     0.50840   0.38940   0.70420   0.01267  Uiso   1.00
H60    H     0.60490   0.35730   0.77920   0.01267  Uiso   1.00
H61    H     0.85700   0.39110   0.68430   0.01267  Uiso   1.00
H62    H     0.89510   0.31710   0.66010   0.01267  Uiso   1.00
H63    H     0.54080   0.61460   0.31110   0.01267  Uiso   1.00
H64    H     0.69750   0.63520   0.23480   0.01267  Uiso   1.00
H65    H     0.89010   0.61150   0.31430   0.01267  Uiso   1.00
H66    H     0.96140   0.68660   0.33690   0.01267  Uiso   1.00
C1     C     0.10380   0.55890   0.02690   0.01267  Uiso   1.00
C2     C     0.14590   0.50870   0.98480   0.01267  Uiso   1.00
C3     C     0.02640   0.46330   0.96250   0.01267  Uiso   1.00
C4     C     0.86020   0.47210   0.97490   0.01267  Uiso   1.00
C5     C     0.81990   0.51860   0.01810   0.01267  Uiso   1.00
C6     C     0.93570   0.56370   0.04310   0.01267  Uiso   1.00
C7     C     0.87450   0.61030   0.09270   0.01267  Uiso   1.00
C8     C     0.72730   0.43000   0.94780   0.01267  Uiso   1.00
C9     C     0.06000   0.39990   0.92520   0.01267  Uiso   1.00
C10    C     0.33360   0.51420   0.95520   0.01267  Uiso   1.00
C11    C     0.22880   0.60050   0.05800   0.01267  Uiso   1.00
C12    C     0.28560   0.74750   0.91520   0.01267  Uiso   1.00
C13    C     0.19510   0.81490   0.91840   0.01267  Uiso   1.00
C14    C     0.62610   0.80060   0.93320   0.01267  Uiso   1.00
C15    C     0.52230   0.70150   0.97090   0.01267  Uiso   1.00
C16    C     0.89950   0.26350   0.07410   0.01267  Uiso   1.00
C17    C     0.76280   0.19340   0.07480   0.01267  Uiso   1.00
C18    C     0.21420   0.19680   0.06770   0.01267  Uiso   1.00
C19    C     0.20250   0.29650   0.02850   0.01267  Uiso   1.00
C20    C     0.13070   0.02690   0.41420   0.01267  Uiso   1.00
C21    C     0.13070   0.98480   0.50650   0.01267  Uiso   1.00
C22    C     0.98890   0.96250   0.57420   0.01267  Uiso   1.00
C23    C     0.83510   0.97490   0.55300   0.01267  Uiso   1.00
C24    C     0.83800   0.01810   0.46330   0.01267  Uiso   1.00
C25    C     0.97880   0.04310   0.39320   0.01267  Uiso   1.00
C26    C     0.96720   0.09270   0.29700   0.01267  Uiso   1.00
C27    C     0.67510   0.94780   0.62220   0.01267  Uiso   1.00
C28    C     0.98520   0.92520   0.67490   0.01267  Uiso   1.00
C29    C     0.28880   0.95520   0.53060   0.01267  Uiso   1.00
C30    C     0.28680   0.05800   0.34150   0.01267  Uiso   1.00
C31    C     0.20080   0.91520   0.33730   0.01267  Uiso   1.00
C32    C     0.11350   0.91840   0.26670   0.01267  Uiso   1.00
C33    C     0.55930   0.93320   0.26620   0.01267  Uiso   1.00
C34    C     0.49320   0.97090   0.32760   0.01267  Uiso   1.00
C35    C     0.97360   0.07410   0.66240   0.01267  Uiso   1.00
C36    C     0.83760   0.07480   0.73180   0.01267  Uiso   1.00
C37    C     0.28190   0.06770   0.73550   0.01267  Uiso   1.00
C38    C     0.23100   0.02850   0.67500   0.01267  Uiso   1.00
C39    C     0.54490   0.41420   0.55890   0.01267  Uiso   1.00
C40    C     0.63720   0.50650   0.50870   0.01267  Uiso   1.00
C41    C     0.56310   0.57420   0.46330   0.01267  Uiso   1.00
C42    C     0.38810   0.55300   0.47210   0.01267  Uiso   1.00
C43    C     0.30130   0.46330   0.51860   0.01267  Uiso   1.00
C44    C     0.37200   0.39320   0.56370   0.01267  Uiso   1.00
C45    C     0.26420   0.29700   0.61030   0.01267  Uiso   1.00
C46    C     0.29730   0.62220   0.43000   0.01267  Uiso   1.00
C47    C     0.66010   0.67490   0.39990   0.01267  Uiso   1.00
C48    C     0.81940   0.53060   0.51420   0.01267  Uiso   1.00
C49    C     0.62830   0.34150   0.60050   0.01267  Uiso   1.00
C50    C     0.53810   0.33730   0.74750   0.01267  Uiso   1.00
C51    C     0.38020   0.26670   0.81490   0.01267  Uiso   1.00
C52    C     0.82550   0.26620   0.80060   0.01267  Uiso   1.00
C53    C     0.82080   0.32760   0.70150   0.01267  Uiso   1.00
C54    C     0.63600   0.66240   0.26350   0.01267  Uiso   1.00
C55    C     0.56940   0.73180   0.19340   0.01267  Uiso   1.00
C56    C     0.01740   0.73550   0.19680   0.01267  Uiso   1.00
C57    C     0.90600   0.67500   0.29650   0.01267  Uiso   1.00
N1     N     0.33800   0.69760   0.99880   0.01267  Uiso   1.00
N2     N     0.04610   0.30450   0.00050   0.01267  Uiso   1.00
N3     N     0.33680   0.99880   0.30360   0.01267  Uiso   1.00
N4     N     0.04660   0.00050   0.69500   0.01267  Uiso   1.00
N5     N     0.64040   0.30360   0.69760   0.01267  Uiso   1.00
N6     N     0.74160   0.69500   0.30450   0.01267  Uiso   1.00
O1     O     0.21590   0.84270   0.97170   0.01267  Uiso   1.00
O2     O     0.11490   0.84400   0.85930   0.01267  Uiso   1.00
O3     O     0.57540   0.84310   0.96820   0.01267  Uiso   1.00
O4     O     0.76870   0.82330   0.87850   0.01267  Uiso   1.00
O5     O     0.80110   0.16220   0.02200   0.01267  Uiso   1.00
O6     O     0.62990   0.16180   0.13590   0.01267  Uiso   1.00
O7     O     0.15320   0.15350   0.03460   0.01267  Uiso   1.00
O8     O     0.30450   0.17230   0.12300   0.01267  Uiso   1.00
O9     O     0.18760   0.97170   0.18560   0.01267  Uiso   1.00
O10    O     0.97420   0.85930   0.29670   0.01267  Uiso   1.00
O11    O     0.54360   0.96820   0.18870   0.01267  Uiso   1.00
O12    O     0.64720   0.87850   0.29820   0.01267  Uiso   1.00
O13    O     0.82310   0.02200   0.81580   0.01267  Uiso   1.00
O14    O     0.76580   0.13590   0.70230   0.01267  Uiso   1.00
O15    O     0.18780   0.03460   0.81190   0.01267  Uiso   1.00
O16    O     0.42750   0.12300   0.70470   0.01267  Uiso   1.00
O17    O     0.37320   0.18560   0.84270   0.01267  Uiso   1.00
O18    O     0.27090   0.29670   0.84400   0.01267  Uiso   1.00
O19    O     0.73230   0.18870   0.84310   0.01267  Uiso   1.00
O20    O     0.94540   0.29820   0.82330   0.01267  Uiso   1.00
O21    O     0.63890   0.81580   0.16220   0.01267  Uiso   1.00
O22    O     0.46810   0.70230   0.16180   0.01267  Uiso   1.00
O23    O     0.99970   0.81190   0.15350   0.01267  Uiso   1.00
O24    O     0.13220   0.70470   0.17230   0.01267  Uiso   1.00
