data_OGECOU_clean
_audit_creation_date              2014-07-02
_audit_creation_method            'Materials Studio'
_symmetry_space_group_name_H-M    'P1'
_symmetry_Int_Tables_number       1
_symmetry_cell_setting            triclinic
loop_
_symmetry_equiv_pos_as_xyz
  x,y,z
_cell_length_a                    8.3065
_cell_length_b                    17.1238
_cell_length_c                    17.1238
_cell_angle_alpha                 62.5624
_cell_angle_beta                  80.6947
_cell_angle_gamma                 99.3053
loop_
_atom_site_label
_atom_site_type_symbol
_atom_site_fract_x
_atom_site_fract_y
_atom_site_fract_z
_atom_site_U_iso_or_equiv
_atom_site_adp_type
_atom_site_occupancy
Ni1    Ni    0.97436   0.78266   0.06316   0.01267  Uiso   1.00
Ni2    Ni    0.66057   0.21825   0.93705   0.01267  Uiso   1.00
Ni3    Ni    0.03752   0.06316   0.15418   0.01267  Uiso   1.00
Ni4    Ni    0.59762   0.93705   0.84470   0.01267  Uiso   1.00
Ni5    Ni    0.19170   0.15418   0.78266   0.01267  Uiso   1.00
Ni6    Ni    0.44232   0.84470   0.21825   0.01267  Uiso   1.00
H1     H     0.70640   0.66700   0.01620   0.01267  Uiso   1.00
H2     H     0.81380   0.69420   0.91860   0.01267  Uiso   1.00
H3     H     0.07780   0.76840   0.86890   0.01267  Uiso   1.00
H4     H     0.16170   0.69320   0.92540   0.01267  Uiso   1.00
H5     H     0.82970   0.57520   0.11430   0.01267  Uiso   1.00
H6     H     0.02090   0.60380   0.11050   0.01267  Uiso   1.00
H7     H     0.28820   0.46420   0.98530   0.01267  Uiso   1.00
H8     H     0.65220   0.49580   0.09310   0.01267  Uiso   1.00
H9     H     0.60210   0.43780   0.04740   0.01267  Uiso   1.00
H10    H     0.65560   0.54480   0.98940   0.01267  Uiso   1.00
H11    H     0.23870   0.57470   0.10750   0.01267  Uiso   1.00
H12    H     0.35160   0.62880   0.00620   0.01267  Uiso   1.00
H13    H     0.36280   0.53050   0.07290   0.01267  Uiso   1.00
H14    H     0.21360   0.35620   0.93640   0.01267  Uiso   1.00
H15    H     0.15680   0.41640   0.84990   0.01267  Uiso   1.00
H16    H     0.02690   0.32820   0.93270   0.01267  Uiso   1.00
H17    H     0.83300   0.40070   0.88550   0.01267  Uiso   1.00
H18    H     0.69630   0.43500   0.92520   0.01267  Uiso   1.00
H19    H     0.79380   0.29350   0.09570   0.01267  Uiso   1.00
H20    H     0.62350   0.21620   0.13840   0.01267  Uiso   1.00
H21    H     0.44800   0.33340   0.98230   0.01267  Uiso   1.00
H22    H     0.46470   0.30960   0.08060   0.01267  Uiso   1.00
H23    H     0.72260   0.01620   0.31680   0.01267  Uiso   1.00
H24    H     0.73240   0.91860   0.38720   0.01267  Uiso   1.00
H25    H     0.94670   0.86890   0.36270   0.01267  Uiso   1.00
H26    H     0.08710   0.92540   0.38140   0.01267  Uiso   1.00
H27    H     0.94400   0.11430   0.31050   0.01267  Uiso   1.00
H28    H     0.13140   0.11050   0.28570   0.01267  Uiso   1.00
H29    H     0.27350   0.98530   0.55050   0.01267  Uiso   1.00
H30    H     0.74530   0.09310   0.41110   0.01267  Uiso   1.00
H31    H     0.64950   0.04740   0.51480   0.01267  Uiso   1.00
H32    H     0.64500   0.98940   0.46580   0.01267  Uiso   1.00
H33    H     0.34620   0.10750   0.31780   0.01267  Uiso   1.00
H34    H     0.35780   0.00620   0.36500   0.01267  Uiso   1.00
H35    H     0.43570   0.07290   0.39660   0.01267  Uiso   1.00
H36    H     0.15000   0.93640   0.70740   0.01267  Uiso   1.00
H37    H     0.00670   0.84990   0.73370   0.01267  Uiso   1.00
H38    H     0.95960   0.93270   0.73910   0.01267  Uiso   1.00
H39    H     0.71850   0.88550   0.71380   0.01267  Uiso   1.00
H40    H     0.62150   0.92520   0.63980   0.01267  Uiso   1.00
H41    H     0.88950   0.09570   0.61080   0.01267  Uiso   1.00
H42    H     0.76190   0.13840   0.64540   0.01267  Uiso   1.00
H43    H     0.43030   0.98230   0.68430   0.01267  Uiso   1.00
H44    H     0.54530   0.08060   0.60980   0.01267  Uiso   1.00
H45    H     0.03940   0.31680   0.66700   0.01267  Uiso   1.00
H46    H     0.11960   0.38720   0.69420   0.01267  Uiso   1.00
H47    H     0.30940   0.36270   0.76840   0.01267  Uiso   1.00
H48    H     0.46850   0.38140   0.69320   0.01267  Uiso   1.00
H49    H     0.25450   0.31050   0.57520   0.01267  Uiso   1.00
H50    H     0.41710   0.28570   0.60380   0.01267  Uiso   1.00
H51    H     0.82400   0.55050   0.46420   0.01267  Uiso   1.00
H52    H     0.15640   0.41110   0.49580   0.01267  Uiso   1.00
H53    H     0.16430   0.51480   0.43780   0.01267  Uiso   1.00
H54    H     0.11080   0.46580   0.54480   0.01267  Uiso   1.00
H55    H     0.66400   0.31780   0.57470   0.01267  Uiso   1.00
H56    H     0.72280   0.36500   0.62880   0.01267  Uiso   1.00
H57    H     0.83230   0.39660   0.53050   0.01267  Uiso   1.00
H58    H     0.85740   0.70740   0.35620   0.01267  Uiso   1.00
H59    H     0.74040   0.73370   0.41640   0.01267  Uiso   1.00
H60    H     0.69870   0.73910   0.32820   0.01267  Uiso   1.00
H61    H     0.43230   0.71380   0.40070   0.01267  Uiso   1.00
H62    H     0.26130   0.63980   0.43500   0.01267  Uiso   1.00
H63    H     0.50030   0.61080   0.29350   0.01267  Uiso   1.00
H64    H     0.40730   0.64540   0.21620   0.01267  Uiso   1.00
H65    H     0.11460   0.68430   0.33340   0.01267  Uiso   1.00
H66    H     0.15510   0.60980   0.30960   0.01267  Uiso   1.00
C1     C     0.79700   0.81170   0.92990   0.01267  Uiso   1.00
C2     C     0.80740   0.70850   0.96740   0.01267  Uiso   1.00
C3     C     0.11190   0.74070   0.92520   0.01267  Uiso   1.00
C4     C     0.24990   0.81350   0.92180   0.01267  Uiso   1.00
C5     C     0.94390   0.60160   0.07410   0.01267  Uiso   1.00
C6     C     0.98260   0.53950   0.03690   0.01267  Uiso   1.00
C7     C     0.14540   0.52710   0.02660   0.01267  Uiso   1.00
C8     C     0.18140   0.47440   0.98950   0.01267  Uiso   1.00
C9     C     0.06960   0.43550   0.95780   0.01267  Uiso   1.00
C10    C     0.90120   0.43910   0.97220   0.01267  Uiso   1.00
C11    C     0.86020   0.49190   0.01240   0.01267  Uiso   1.00
C12    C     0.67520   0.49260   0.03800   0.01267  Uiso   1.00
C13    C     0.28840   0.56930   0.05620   0.01267  Uiso   1.00
C14    C     0.12160   0.37880   0.91520   0.01267  Uiso   1.00
C15    C     0.77370   0.39690   0.94140   0.01267  Uiso   1.00
C16    C     0.72240   0.24980   0.08620   0.01267  Uiso   1.00
C17    C     0.81480   0.18630   0.08180   0.01267  Uiso   1.00
C18    C     0.38440   0.19380   0.07160   0.01267  Uiso   1.00
C19    C     0.48390   0.29240   0.03400   0.01267  Uiso   1.00
C20    C     0.72690   0.92990   0.25840   0.01267  Uiso   1.00
C21    C     0.77480   0.96740   0.32410   0.01267  Uiso   1.00
C22    C     0.03710   0.92520   0.33410   0.01267  Uiso   1.00
C23    C     0.17170   0.92180   0.26470   0.01267  Uiso   1.00
C24    C     0.01800   0.07410   0.32430   0.01267  Uiso   1.00
C25    C     0.01950   0.03690   0.42360   0.01267  Uiso   1.00
C26    C     0.17200   0.02660   0.44630   0.01267  Uiso   1.00
C27    C     0.17090   0.98950   0.53610   0.01267  Uiso   1.00
C28    C     0.02740   0.95780   0.60670   0.01267  Uiso   1.00
C29    C     0.87340   0.97220   0.58870   0.01267  Uiso   1.00
C30    C     0.87260   0.01240   0.49570   0.01267  Uiso   1.00
C31    C     0.71320   0.03800   0.46940   0.01267  Uiso   1.00
C32    C     0.34460   0.05620   0.37450   0.01267  Uiso   1.00
C33    C     0.03680   0.91520   0.70600   0.01267  Uiso   1.00
C34    C     0.71510   0.94140   0.66170   0.01267  Uiso   1.00
C35    C     0.80860   0.08620   0.66400   0.01267  Uiso   1.00
C36    C     0.89660   0.08180   0.73190   0.01267  Uiso   1.00
C37    C     0.45600   0.07160   0.73460   0.01267  Uiso   1.00
C38    C     0.51790   0.03400   0.67360   0.01267  Uiso   1.00
C39    C     0.98530   0.25840   0.81170   0.01267  Uiso   1.00
C40    C     0.09890   0.32410   0.70850   0.01267  Uiso   1.00
C41    C     0.37120   0.33410   0.74070   0.01267  Uiso   1.00
C42    C     0.43640   0.26470   0.81350   0.01267  Uiso   1.00
C43    C     0.34230   0.32430   0.60160   0.01267  Uiso   1.00
C44    C     0.44310   0.42360   0.53950   0.01267  Uiso   1.00
C45    C     0.61830   0.44630   0.52710   0.01267  Uiso   1.00
C46    C     0.70700   0.53610   0.47440   0.01267  Uiso   1.00
C47    C     0.63410   0.60670   0.43550   0.01267  Uiso   1.00
C48    C     0.46210   0.58870   0.43910   0.01267  Uiso   1.00
C49    C     0.36830   0.49570   0.49190   0.01267  Uiso   1.00
C50    C     0.18260   0.46940   0.49260   0.01267  Uiso   1.00
C51    C     0.71910   0.37450   0.56930   0.01267  Uiso   1.00
C52    C     0.74280   0.70600   0.37880   0.01267  Uiso   1.00
C53    C     0.37680   0.66170   0.39690   0.01267  Uiso   1.00
C54    C     0.47260   0.66400   0.24980   0.01267  Uiso   1.00
C55    C     0.62850   0.73190   0.18630   0.01267  Uiso   1.00
C56    C     0.19060   0.73460   0.19380   0.01267  Uiso   1.00
C57    C     0.19150   0.67360   0.29240   0.01267  Uiso   1.00
N1     N     0.95870   0.69730   0.00180   0.01267  Uiso   1.00
N2     N     0.66780   0.29930   0.00430   0.01267  Uiso   1.00
N3     N     0.96050   0.00180   0.30090   0.01267  Uiso   1.00
N4     N     0.67210   0.00430   0.69640   0.01267  Uiso   1.00
N5     N     0.26140   0.30090   0.69730   0.01267  Uiso   1.00
N6     N     0.36850   0.69640   0.29930   0.01267  Uiso   1.00
O1     O     0.86180   0.85120   0.96040   0.01267  Uiso   1.00
O2     O     0.70700   0.83070   0.87630   0.01267  Uiso   1.00
O3     O     0.20850   0.84350   0.97340   0.01267  Uiso   1.00
O4     O     0.38390   0.84540   0.86010   0.01267  Uiso   1.00
O5     O     0.89210   0.15140   0.14380   0.01267  Uiso   1.00
O6     O     0.79160   0.15360   0.02630   0.01267  Uiso   1.00
O7     O     0.24000   0.17000   0.12580   0.01267  Uiso   1.00
O8     O     0.43870   0.14920   0.03690   0.01267  Uiso   1.00
O9     O     0.82220   0.96040   0.18840   0.01267  Uiso   1.00
O10    O     0.58330   0.87630   0.29300   0.01267  Uiso   1.00
O11    O     0.18190   0.97340   0.18310   0.01267  Uiso   1.00
O12    O     0.24400   0.86010   0.29450   0.01267  Uiso   1.00
O13    O     0.03590   0.14380   0.70480   0.01267  Uiso   1.00
O14    O     0.81790   0.02630   0.82010   0.01267  Uiso   1.00
O15    O     0.36580   0.12580   0.70420   0.01267  Uiso   1.00
O16    O     0.47560   0.03690   0.81390   0.01267  Uiso   1.00
O17    O     0.01060   0.18840   0.85120   0.01267  Uiso   1.00
O18    O     0.87630   0.29300   0.83070   0.01267  Uiso   1.00
O19    O     0.36500   0.18310   0.84350   0.01267  Uiso   1.00
O20    O     0.53850   0.29450   0.84540   0.01267  Uiso   1.00
O21    O     0.74070   0.70480   0.15140   0.01267  Uiso   1.00
O22    O     0.63800   0.82010   0.15360   0.01267  Uiso   1.00
O23    O     0.07000   0.70420   0.17000   0.01267  Uiso   1.00
O24    O     0.28950   0.81390   0.14920   0.01267  Uiso   1.00
