data_image0
_cell_length_a       12.232
_cell_length_b       12.268
_cell_length_c       16.392
_cell_angle_alpha    90
_cell_angle_beta     90
_cell_angle_gamma    90

_symmetry_space_group_name_H-M    "P 1"
_symmetry_int_tables_number       1

loop_
  _symmetry_equiv_pos_as_xyz
  'x, y, z'

loop_
  _atom_site_label
  _atom_site_occupancy
  _atom_site_fract_x
  _atom_site_fract_y
  _atom_site_fract_z
  _atom_site_thermal_displace_type
  _atom_site_B_iso_or_equiv
  _atom_site_type_symbol
  Ga1      1.0000 0.17248  0.47635  0.25406  Biso   1.000  Ga
  Ga2      1.0000 0.13311  0.45979  0.90095  Biso   1.000  Ga
  P1       1.0000 0.12554  0.56249  0.07852  Biso   1.000  P
  P2       1.0000 0.41065  0.55761  0.23754  Biso   1.000  P
  F1       1.0000 0.21270  0.49490  0.36710  Biso   1.000  F
  F2       1.0000 0.18280  0.64150  0.25850  Biso   1.000  F
  O1       1.0000 0.38720  0.66910  0.19940  Biso   1.000  O
  O2       1.0000 0.19180  0.66360  0.09720  Biso   1.000  O
  O3       1.0000 0.17450  0.51380  0.00000  Biso   1.000  O
  O4       1.0000 0.52080  0.51520  0.20390  Biso   1.000  O
  O5       1.0000 0.32490  0.31710  0.37800  Biso   1.000  O
  O6       1.0000 0.41510  0.57020  0.33130  Biso   1.000  O
  O7       1.0000 0.13060  0.47580  0.14430  Biso   1.000  O
  O8       1.0000 0.32490  0.47220  0.21790  Biso   1.000  O
  O9       1.0000 0.17650  0.32120  0.26840  Biso   1.000  O
  O10      1.0000 0.00560  0.59700  0.06330  Biso   1.000  O
  Ga3      1.0000 0.32752  0.02365  0.25406  Biso   1.000  Ga
  Ga4      1.0000 0.36689  0.04021  0.90095  Biso   1.000  Ga
  P3       1.0000 0.37446  0.93751  0.07852  Biso   1.000  P
  P4       1.0000 0.08935  0.94239  0.23754  Biso   1.000  P
  F3       1.0000 0.28730  0.00510  0.36710  Biso   1.000  F
  F4       1.0000 0.31720  0.85850  0.25850  Biso   1.000  F
  O11      1.0000 0.11280  0.83090  0.19940  Biso   1.000  O
  O12      1.0000 0.30820  0.83640  0.09720  Biso   1.000  O
  O13      1.0000 0.32550  0.98620  0.00000  Biso   1.000  O
  O14      1.0000 0.97920  0.98480  0.20390  Biso   1.000  O
  O15      1.0000 0.17510  0.18290  0.37800  Biso   1.000  O
  O16      1.0000 0.08490  0.92980  0.33130  Biso   1.000  O
  O17      1.0000 0.36940  0.02420  0.14430  Biso   1.000  O
  O18      1.0000 0.17510  0.02780  0.21790  Biso   1.000  O
  O19      1.0000 0.32350  0.17880  0.26840  Biso   1.000  O
  O20      1.0000 0.49440  0.90300  0.06330  Biso   1.000  O
  Ga5      1.0000 0.82752  0.97635  0.24594  Biso   1.000  Ga
  Ga6      1.0000 0.86689  0.95979  0.59905  Biso   1.000  Ga
  P5       1.0000 0.87446  0.06249  0.42148  Biso   1.000  P
  P6       1.0000 0.58935  0.05761  0.26246  Biso   1.000  P
  F5       1.0000 0.78730  0.99490  0.13290  Biso   1.000  F
  F6       1.0000 0.81720  0.14150  0.24150  Biso   1.000  F
  O21      1.0000 0.61280  0.16910  0.30060  Biso   1.000  O
  O22      1.0000 0.80820  0.16360  0.40280  Biso   1.000  O
  O23      1.0000 0.82550  0.01380  0.50000  Biso   1.000  O
  O24      1.0000 0.47920  0.01520  0.29610  Biso   1.000  O
  O25      1.0000 0.67510  0.81710  0.12200  Biso   1.000  O
  O26      1.0000 0.58490  0.07020  0.16870  Biso   1.000  O
  O27      1.0000 0.86940  0.97580  0.35570  Biso   1.000  O
  O28      1.0000 0.67510  0.97220  0.28210  Biso   1.000  O
  O29      1.0000 0.82350  0.82120  0.23160  Biso   1.000  O
  O30      1.0000 0.99440  0.09700  0.43670  Biso   1.000  O
  Ga7      1.0000 0.67248  0.52365  0.24594  Biso   1.000  Ga
  Ga8      1.0000 0.63311  0.54021  0.59905  Biso   1.000  Ga
  P7       1.0000 0.62554  0.43751  0.42148  Biso   1.000  P
  P8       1.0000 0.91065  0.44239  0.26246  Biso   1.000  P
  F7       1.0000 0.71270  0.50510  0.13290  Biso   1.000  F
  F8       1.0000 0.68280  0.35850  0.24150  Biso   1.000  F
  O31      1.0000 0.88720  0.33090  0.30060  Biso   1.000  O
  O32      1.0000 0.69180  0.33640  0.40280  Biso   1.000  O
  O33      1.0000 0.67450  0.48620  0.50000  Biso   1.000  O
  O34      1.0000 0.02080  0.48480  0.29610  Biso   1.000  O
  O35      1.0000 0.82490  0.68290  0.12200  Biso   1.000  O
  O36      1.0000 0.91510  0.42980  0.16870  Biso   1.000  O
  O37      1.0000 0.63060  0.52420  0.35570  Biso   1.000  O
  O38      1.0000 0.82490  0.52780  0.28210  Biso   1.000  O
  O39      1.0000 0.67650  0.67880  0.23160  Biso   1.000  O
  O40      1.0000 0.50560  0.40300  0.43670  Biso   1.000  O
  Ga9      1.0000 0.82752  0.52365  0.74594  Biso   1.000  Ga
  Ga10     1.0000 0.86689  0.54021  0.09905  Biso   1.000  Ga
  P9       1.0000 0.87446  0.43751  0.92148  Biso   1.000  P
  P10      1.0000 0.58935  0.44239  0.76246  Biso   1.000  P
  F9       1.0000 0.78730  0.50510  0.63290  Biso   1.000  F
  F10      1.0000 0.81720  0.35850  0.74150  Biso   1.000  F
  O41      1.0000 0.61280  0.33090  0.80060  Biso   1.000  O
  O42      1.0000 0.80820  0.33640  0.90280  Biso   1.000  O
  O43      1.0000 0.82550  0.48620  0.00000  Biso   1.000  O
  O44      1.0000 0.47920  0.48480  0.79610  Biso   1.000  O
  O45      1.0000 0.67510  0.68290  0.62200  Biso   1.000  O
  O46      1.0000 0.58490  0.42980  0.66870  Biso   1.000  O
  O47      1.0000 0.86940  0.52420  0.85570  Biso   1.000  O
  O48      1.0000 0.67510  0.52780  0.78210  Biso   1.000  O
  O49      1.0000 0.82350  0.67880  0.73160  Biso   1.000  O
  O50      1.0000 0.99440  0.40300  0.93670  Biso   1.000  O
  Ga11     1.0000 0.67248  0.97635  0.74594  Biso   1.000  Ga
  Ga12     1.0000 0.63311  0.95979  0.09905  Biso   1.000  Ga
  P11      1.0000 0.62554  0.06249  0.92148  Biso   1.000  P
  P12      1.0000 0.91065  0.05761  0.76246  Biso   1.000  P
  F11      1.0000 0.71270  0.99490  0.63290  Biso   1.000  F
  F12      1.0000 0.68280  0.14150  0.74150  Biso   1.000  F
  O51      1.0000 0.88720  0.16910  0.80060  Biso   1.000  O
  O52      1.0000 0.69180  0.16360  0.90280  Biso   1.000  O
  O53      1.0000 0.67450  0.01380  0.00000  Biso   1.000  O
  O54      1.0000 0.02080  0.01520  0.79610  Biso   1.000  O
  O55      1.0000 0.82490  0.81710  0.62200  Biso   1.000  O
  O56      1.0000 0.91510  0.07020  0.66870  Biso   1.000  O
  O57      1.0000 0.63060  0.97580  0.85570  Biso   1.000  O
  O58      1.0000 0.82490  0.97220  0.78210  Biso   1.000  O
  O59      1.0000 0.67650  0.82120  0.73160  Biso   1.000  O
  O60      1.0000 0.50560  0.09700  0.93670  Biso   1.000  O
  Ga13     1.0000 0.17248  0.02365  0.75406  Biso   1.000  Ga
  Ga14     1.0000 0.13311  0.04021  0.40095  Biso   1.000  Ga
  P13      1.0000 0.12554  0.93751  0.57852  Biso   1.000  P
  P14      1.0000 0.41065  0.94239  0.73754  Biso   1.000  P
  F13      1.0000 0.21270  0.00510  0.86710  Biso   1.000  F
  F14      1.0000 0.18280  0.85850  0.75850  Biso   1.000  F
  O61      1.0000 0.38720  0.83090  0.69940  Biso   1.000  O
  O62      1.0000 0.19180  0.83640  0.59720  Biso   1.000  O
  O63      1.0000 0.17450  0.98620  0.50000  Biso   1.000  O
  O64      1.0000 0.52080  0.98480  0.70390  Biso   1.000  O
  O65      1.0000 0.32490  0.18290  0.87800  Biso   1.000  O
  O66      1.0000 0.41510  0.92980  0.83130  Biso   1.000  O
  O67      1.0000 0.13060  0.02420  0.64430  Biso   1.000  O
  O68      1.0000 0.32490  0.02780  0.71790  Biso   1.000  O
  O69      1.0000 0.17650  0.17880  0.76840  Biso   1.000  O
  O70      1.0000 0.00560  0.90300  0.56330  Biso   1.000  O
  Ga15     1.0000 0.32752  0.47635  0.75406  Biso   1.000  Ga
  Ga16     1.0000 0.36689  0.45979  0.40095  Biso   1.000  Ga
  P15      1.0000 0.37446  0.56249  0.57852  Biso   1.000  P
  P16      1.0000 0.08935  0.55761  0.73754  Biso   1.000  P
  F15      1.0000 0.28730  0.49490  0.86710  Biso   1.000  F
  F16      1.0000 0.31720  0.64150  0.75850  Biso   1.000  F
  O71      1.0000 0.11280  0.66910  0.69940  Biso   1.000  O
  O72      1.0000 0.30820  0.66360  0.59720  Biso   1.000  O
  O73      1.0000 0.32550  0.51380  0.50000  Biso   1.000  O
  O74      1.0000 0.97920  0.51520  0.70390  Biso   1.000  O
  O75      1.0000 0.17510  0.31710  0.87800  Biso   1.000  O
  O76      1.0000 0.08490  0.57020  0.83130  Biso   1.000  O
  O77      1.0000 0.36940  0.47580  0.64430  Biso   1.000  O
  O78      1.0000 0.17510  0.47220  0.71790  Biso   1.000  O
  O79      1.0000 0.32350  0.32120  0.76840  Biso   1.000  O
  O80      1.0000 0.49440  0.59700  0.56330  Biso   1.000  O
  Ga17     1.0000 0.25000  0.75000  0.18389  Biso   1.000  Ga
  Ga18     1.0000 0.75000  0.25000  0.31611  Biso   1.000  Ga
  Ga19     1.0000 0.75000  0.25000  0.81611  Biso   1.000  Ga
  Ga20     1.0000 0.25000  0.75000  0.68389  Biso   1.000  Ga
  P17      1.0000 0.25000  0.25000  0.32105  Biso   1.000  P
  P18      1.0000 0.75000  0.75000  0.17895  Biso   1.000  P
  P19      1.0000 0.75000  0.75000  0.67895  Biso   1.000  P
  P20      1.0000 0.25000  0.25000  0.82105  Biso   1.000  P
