data_OGIYAF_clean
_audit_creation_date              2014-07-02
_audit_creation_method            'Materials Studio'
_symmetry_space_group_name_H-M    'P1'
_symmetry_Int_Tables_number       1
_symmetry_cell_setting            triclinic
loop_
_symmetry_equiv_pos_as_xyz
  x,y,z
_cell_length_a                    8.3070
_cell_length_b                    8.3825
_cell_length_c                    8.3825
_cell_angle_alpha                 62.1863
_cell_angle_beta                  60.2976
_cell_angle_gamma                 60.2976
loop_
_atom_site_label
_atom_site_type_symbol
_atom_site_fract_x
_atom_site_fract_y
_atom_site_fract_z
_atom_site_U_iso_or_equiv
_atom_site_adp_type
_atom_site_occupancy
Co1    Co    0.00000   0.00000   0.00000   0.01267  Uiso   1.00
Co2    Co    0.50000   0.50000   0.50000   0.01267  Uiso   1.00
H1     H     0.29900   0.75000   0.75000   0.01267  Uiso   1.00
H2     H     0.70100   0.25000   0.25000   0.01267  Uiso   1.00
H3     H     0.79820   0.70180   0.20180   0.01267  Uiso   1.00
H4     H     0.20180   0.79820   0.29820   0.01267  Uiso   1.00
H5     H     0.20180   0.29820   0.79820   0.01267  Uiso   1.00
H6     H     0.79820   0.20180   0.70180   0.01267  Uiso   1.00
C1     C     0.18710   0.75000   0.75000   0.01267  Uiso   1.00
C2     C     0.81290   0.25000   0.25000   0.01267  Uiso   1.00
C3     C     0.71880   0.78120   0.28120   0.01267  Uiso   1.00
C4     C     0.28120   0.71880   0.21880   0.01267  Uiso   1.00
C5     C     0.28120   0.21880   0.71880   0.01267  Uiso   1.00
C6     C     0.71880   0.28120   0.78120   0.01267  Uiso   1.00
O1     O     0.77710   0.90630   0.23490   0.01267  Uiso   1.00
O2     O     0.41830   0.59370   0.26510   0.01267  Uiso   1.00
O3     O     0.58170   0.73490   0.40630   0.01267  Uiso   1.00
O4     O     0.22290   0.76510   0.09370   0.01267  Uiso   1.00
O5     O     0.22290   0.09370   0.76510   0.01267  Uiso   1.00
O6     O     0.58170   0.40630   0.73490   0.01267  Uiso   1.00
O7     O     0.41830   0.26510   0.59370   0.01267  Uiso   1.00
O8     O     0.77710   0.23490   0.90630   0.01267  Uiso   1.00
O9     O     0.02360   0.84380   0.84380   0.01267  Uiso   1.00
O10    O     0.21120   0.65620   0.65620   0.01267  Uiso   1.00
O11    O     0.78880   0.34380   0.34380   0.01267  Uiso   1.00
O12    O     0.97640   0.15620   0.15620   0.01267  Uiso   1.00
