data_image0
_cell_length_a       19.1147
_cell_length_b       19.1147
_cell_length_c       21.1495
_cell_angle_alpha    90
_cell_angle_beta     90
_cell_angle_gamma    90

_symmetry_space_group_name_H-M    "P 1"
_symmetry_int_tables_number       1

loop_
  _symmetry_equiv_pos_as_xyz
  'x, y, z'

loop_
  _atom_site_label
  _atom_site_occupancy
  _atom_site_fract_x
  _atom_site_fract_y
  _atom_site_fract_z
  _atom_site_thermal_displace_type
  _atom_site_B_iso_or_equiv
  _atom_site_type_symbol
  S1       1.0000 0.65403  0.92683  0.16741  Biso   1.000  S
  N1       1.0000 0.45680  0.11580  0.30170  Biso   1.000  N
  C1       1.0000 0.62670  0.71980  0.14020  Biso   1.000  C
  C2       1.0000 0.64840  0.78360  0.16460  Biso   1.000  C
  H1       1.0000 0.67820  0.78490  0.20060  Biso   1.000  H
  C3       1.0000 0.62630  0.84600  0.13640  Biso   1.000  C
  C4       1.0000 0.58200  0.84470  0.08450  Biso   1.000  C
  H2       1.0000 0.56630  0.88730  0.06640  Biso   1.000  H
  C5       1.0000 0.56100  0.78230  0.05940  Biso   1.000  C
  C6       1.0000 0.58310  0.72000  0.08690  Biso   1.000  C
  C7       1.0000 0.41400  0.11710  0.35190  Biso   1.000  C
  H3       1.0000 0.39970  0.07380  0.36980  Biso   1.000  H
  C8       1.0000 0.38950  0.17880  0.37910  Biso   1.000  C
  H4       1.0000 0.35890  0.17720  0.41440  Biso   1.000  H
  C9       1.0000 0.40980  0.24030  0.35500  Biso   1.000  C
  H5       1.0000 0.39360  0.28280  0.37320  Biso   1.000  H
  C10      1.0000 0.45470  0.24180  0.30290  Biso   1.000  C
  C11      1.0000 0.47900  0.30730  0.27540  Biso   1.000  C
  H6       1.0000 0.46500  0.35050  0.29370  Biso   1.000  H
  C12      1.0000 0.47660  0.17810  0.27650  Biso   1.000  C
  O1       1.0000 0.56110  0.65720  0.06306  Biso   1.000  O
  O2       1.0000 0.69100  0.96280  0.11630  Biso   1.000  O
  O3       1.0000 0.58940  0.96500  0.18248  Biso   1.000  O
  O4       1.0000 0.69570  0.91250  0.22250  Biso   1.000  O
  S2       1.0000 0.34597  0.07317  0.16741  Biso   1.000  S
  N2       1.0000 0.54320  0.88420  0.30170  Biso   1.000  N
  C13      1.0000 0.37330  0.28020  0.14020  Biso   1.000  C
  C14      1.0000 0.35160  0.21640  0.16460  Biso   1.000  C
  H7       1.0000 0.32180  0.21510  0.20060  Biso   1.000  H
  C15      1.0000 0.37370  0.15400  0.13640  Biso   1.000  C
  C16      1.0000 0.41800  0.15530  0.08450  Biso   1.000  C
  H8       1.0000 0.43370  0.11270  0.06640  Biso   1.000  H
  C17      1.0000 0.43900  0.21770  0.05940  Biso   1.000  C
  C18      1.0000 0.41690  0.28000  0.08690  Biso   1.000  C
  C19      1.0000 0.58600  0.88290  0.35190  Biso   1.000  C
  H9       1.0000 0.60030  0.92620  0.36980  Biso   1.000  H
  C20      1.0000 0.61050  0.82120  0.37910  Biso   1.000  C
  H10      1.0000 0.64110  0.82280  0.41440  Biso   1.000  H
  C21      1.0000 0.59020  0.75970  0.35500  Biso   1.000  C
  H11      1.0000 0.60640  0.71720  0.37320  Biso   1.000  H
  C22      1.0000 0.54530  0.75820  0.30290  Biso   1.000  C
  C23      1.0000 0.52100  0.69270  0.27540  Biso   1.000  C
  H12      1.0000 0.53500  0.64950  0.29370  Biso   1.000  H
  C24      1.0000 0.52340  0.82190  0.27650  Biso   1.000  C
  O5       1.0000 0.43890  0.34280  0.06306  Biso   1.000  O
  O6       1.0000 0.30900  0.03720  0.11630  Biso   1.000  O
  O7       1.0000 0.41060  0.03500  0.18248  Biso   1.000  O
  O8       1.0000 0.30430  0.08750  0.22250  Biso   1.000  O
  S3       1.0000 0.07317  0.65403  0.66741  Biso   1.000  S
  N3       1.0000 0.88420  0.45680  0.80170  Biso   1.000  N
  C25      1.0000 0.28020  0.62670  0.64020  Biso   1.000  C
  C26      1.0000 0.21640  0.64840  0.66460  Biso   1.000  C
  H13      1.0000 0.21510  0.67820  0.70060  Biso   1.000  H
  C27      1.0000 0.15400  0.62630  0.63640  Biso   1.000  C
  C28      1.0000 0.15530  0.58200  0.58450  Biso   1.000  C
  H14      1.0000 0.11270  0.56630  0.56640  Biso   1.000  H
  C29      1.0000 0.21770  0.56100  0.55940  Biso   1.000  C
  C30      1.0000 0.28000  0.58310  0.58690  Biso   1.000  C
  C31      1.0000 0.88290  0.41400  0.85190  Biso   1.000  C
  H15      1.0000 0.92620  0.39970  0.86980  Biso   1.000  H
  C32      1.0000 0.82120  0.38950  0.87910  Biso   1.000  C
  H16      1.0000 0.82280  0.35890  0.91440  Biso   1.000  H
  C33      1.0000 0.75970  0.40980  0.85500  Biso   1.000  C
  H17      1.0000 0.71720  0.39360  0.87320  Biso   1.000  H
  C34      1.0000 0.75820  0.45470  0.80290  Biso   1.000  C
  C35      1.0000 0.69270  0.47900  0.77540  Biso   1.000  C
  H18      1.0000 0.64950  0.46500  0.79370  Biso   1.000  H
  C36      1.0000 0.82190  0.47660  0.77650  Biso   1.000  C
  O9       1.0000 0.34280  0.56110  0.56306  Biso   1.000  O
  O10      1.0000 0.03720  0.69100  0.61630  Biso   1.000  O
  O11      1.0000 0.03500  0.58940  0.68248  Biso   1.000  O
  O12      1.0000 0.08750  0.69570  0.72250  Biso   1.000  O
  S4       1.0000 0.92683  0.34597  0.66741  Biso   1.000  S
  N4       1.0000 0.11580  0.54320  0.80170  Biso   1.000  N
  C37      1.0000 0.71980  0.37330  0.64020  Biso   1.000  C
  C38      1.0000 0.78360  0.35160  0.66460  Biso   1.000  C
  H19      1.0000 0.78490  0.32180  0.70060  Biso   1.000  H
  C39      1.0000 0.84600  0.37370  0.63640  Biso   1.000  C
  C40      1.0000 0.84470  0.41800  0.58450  Biso   1.000  C
  H20      1.0000 0.88730  0.43370  0.56640  Biso   1.000  H
  C41      1.0000 0.78230  0.43900  0.55940  Biso   1.000  C
  C42      1.0000 0.72000  0.41690  0.58690  Biso   1.000  C
  C43      1.0000 0.11710  0.58600  0.85190  Biso   1.000  C
  H21      1.0000 0.07380  0.60030  0.86980  Biso   1.000  H
  C44      1.0000 0.17880  0.61050  0.87910  Biso   1.000  C
  H22      1.0000 0.17720  0.64110  0.91440  Biso   1.000  H
  C45      1.0000 0.24030  0.59020  0.85500  Biso   1.000  C
  H23      1.0000 0.28280  0.60640  0.87320  Biso   1.000  H
  C46      1.0000 0.24180  0.54530  0.80290  Biso   1.000  C
  C47      1.0000 0.30730  0.52100  0.77540  Biso   1.000  C
  H24      1.0000 0.35050  0.53500  0.79370  Biso   1.000  H
  C48      1.0000 0.17810  0.52340  0.77650  Biso   1.000  C
  O13      1.0000 0.65720  0.43890  0.56306  Biso   1.000  O
  O14      1.0000 0.96280  0.30900  0.61630  Biso   1.000  O
  O15      1.0000 0.96500  0.41060  0.68248  Biso   1.000  O
  O16      1.0000 0.91250  0.30430  0.72250  Biso   1.000  O
  S5       1.0000 0.34597  0.92683  0.33259  Biso   1.000  S
  N5       1.0000 0.54320  0.11580  0.19830  Biso   1.000  N
  C49      1.0000 0.37330  0.71980  0.35980  Biso   1.000  C
  C50      1.0000 0.35160  0.78360  0.33540  Biso   1.000  C
  H25      1.0000 0.32180  0.78490  0.29940  Biso   1.000  H
  C51      1.0000 0.37370  0.84600  0.36360  Biso   1.000  C
  C52      1.0000 0.41800  0.84470  0.41550  Biso   1.000  C
  H26      1.0000 0.43370  0.88730  0.43360  Biso   1.000  H
  C53      1.0000 0.43900  0.78230  0.44060  Biso   1.000  C
  C54      1.0000 0.41690  0.72000  0.41310  Biso   1.000  C
  C55      1.0000 0.58600  0.11710  0.14810  Biso   1.000  C
  H27      1.0000 0.60030  0.07380  0.13020  Biso   1.000  H
  C56      1.0000 0.61050  0.17880  0.12090  Biso   1.000  C
  H28      1.0000 0.64110  0.17720  0.08560  Biso   1.000  H
  C57      1.0000 0.59020  0.24030  0.14500  Biso   1.000  C
  H29      1.0000 0.60640  0.28280  0.12680  Biso   1.000  H
  C58      1.0000 0.54530  0.24180  0.19710  Biso   1.000  C
  C59      1.0000 0.52100  0.30730  0.22460  Biso   1.000  C
  H30      1.0000 0.53500  0.35050  0.20630  Biso   1.000  H
  C60      1.0000 0.52340  0.17810  0.22350  Biso   1.000  C
  O17      1.0000 0.43890  0.65720  0.43694  Biso   1.000  O
  O18      1.0000 0.30900  0.96280  0.38370  Biso   1.000  O
  O19      1.0000 0.41060  0.96500  0.31752  Biso   1.000  O
  O20      1.0000 0.30430  0.91250  0.27750  Biso   1.000  O
  S6       1.0000 0.65403  0.07317  0.33259  Biso   1.000  S
  N6       1.0000 0.45680  0.88420  0.19830  Biso   1.000  N
  C61      1.0000 0.62670  0.28020  0.35980  Biso   1.000  C
  C62      1.0000 0.64840  0.21640  0.33540  Biso   1.000  C
  H31      1.0000 0.67820  0.21510  0.29940  Biso   1.000  H
  C63      1.0000 0.62630  0.15400  0.36360  Biso   1.000  C
  C64      1.0000 0.58200  0.15530  0.41550  Biso   1.000  C
  H32      1.0000 0.56630  0.11270  0.43360  Biso   1.000  H
  C65      1.0000 0.56100  0.21770  0.44060  Biso   1.000  C
  C66      1.0000 0.58310  0.28000  0.41310  Biso   1.000  C
  C67      1.0000 0.41400  0.88290  0.14810  Biso   1.000  C
  H33      1.0000 0.39970  0.92620  0.13020  Biso   1.000  H
  C68      1.0000 0.38950  0.82120  0.12090  Biso   1.000  C
  H34      1.0000 0.35890  0.82280  0.08560  Biso   1.000  H
  C69      1.0000 0.40980  0.75970  0.14500  Biso   1.000  C
  H35      1.0000 0.39360  0.71720  0.12680  Biso   1.000  H
  C70      1.0000 0.45470  0.75820  0.19710  Biso   1.000  C
  C71      1.0000 0.47900  0.69270  0.22460  Biso   1.000  C
  H36      1.0000 0.46500  0.64950  0.20630  Biso   1.000  H
  C72      1.0000 0.47660  0.82190  0.22350  Biso   1.000  C
  O21      1.0000 0.56110  0.34280  0.43694  Biso   1.000  O
  O22      1.0000 0.69100  0.03720  0.38370  Biso   1.000  O
  O23      1.0000 0.58940  0.03500  0.31752  Biso   1.000  O
  O24      1.0000 0.69570  0.08750  0.27750  Biso   1.000  O
  S7       1.0000 0.92683  0.65403  0.83259  Biso   1.000  S
  N7       1.0000 0.11580  0.45680  0.69830  Biso   1.000  N
  C73      1.0000 0.71980  0.62670  0.85980  Biso   1.000  C
  C74      1.0000 0.78360  0.64840  0.83540  Biso   1.000  C
  H37      1.0000 0.78490  0.67820  0.79940  Biso   1.000  H
  C75      1.0000 0.84600  0.62630  0.86360  Biso   1.000  C
  C76      1.0000 0.84470  0.58200  0.91550  Biso   1.000  C
  H38      1.0000 0.88730  0.56630  0.93360  Biso   1.000  H
  C77      1.0000 0.78230  0.56100  0.94060  Biso   1.000  C
  C78      1.0000 0.72000  0.58310  0.91310  Biso   1.000  C
  C79      1.0000 0.11710  0.41400  0.64810  Biso   1.000  C
  H39      1.0000 0.07380  0.39970  0.63020  Biso   1.000  H
  C80      1.0000 0.17880  0.38950  0.62090  Biso   1.000  C
  H40      1.0000 0.17720  0.35890  0.58560  Biso   1.000  H
  C81      1.0000 0.24030  0.40980  0.64500  Biso   1.000  C
  H41      1.0000 0.28280  0.39360  0.62680  Biso   1.000  H
  C82      1.0000 0.24180  0.45470  0.69710  Biso   1.000  C
  C83      1.0000 0.30730  0.47900  0.72460  Biso   1.000  C
  H42      1.0000 0.35050  0.46500  0.70630  Biso   1.000  H
  C84      1.0000 0.17810  0.47660  0.72350  Biso   1.000  C
  O25      1.0000 0.65720  0.56110  0.93694  Biso   1.000  O
  O26      1.0000 0.96280  0.69100  0.88370  Biso   1.000  O
  O27      1.0000 0.96500  0.58940  0.81752  Biso   1.000  O
  O28      1.0000 0.91250  0.69570  0.77750  Biso   1.000  O
  S8       1.0000 0.07317  0.34597  0.83259  Biso   1.000  S
  N8       1.0000 0.88420  0.54320  0.69830  Biso   1.000  N
  C85      1.0000 0.28020  0.37330  0.85980  Biso   1.000  C
  C86      1.0000 0.21640  0.35160  0.83540  Biso   1.000  C
  H43      1.0000 0.21510  0.32180  0.79940  Biso   1.000  H
  C87      1.0000 0.15400  0.37370  0.86360  Biso   1.000  C
  C88      1.0000 0.15530  0.41800  0.91550  Biso   1.000  C
  H44      1.0000 0.11270  0.43370  0.93360  Biso   1.000  H
  C89      1.0000 0.21770  0.43900  0.94060  Biso   1.000  C
  C90      1.0000 0.28000  0.41690  0.91310  Biso   1.000  C
  C91      1.0000 0.88290  0.58600  0.64810  Biso   1.000  C
  H45      1.0000 0.92620  0.60030  0.63020  Biso   1.000  H
  C92      1.0000 0.82120  0.61050  0.62090  Biso   1.000  C
  H46      1.0000 0.82280  0.64110  0.58560  Biso   1.000  H
  C93      1.0000 0.75970  0.59020  0.64500  Biso   1.000  C
  H47      1.0000 0.71720  0.60640  0.62680  Biso   1.000  H
  C94      1.0000 0.75820  0.54530  0.69710  Biso   1.000  C
  C95      1.0000 0.69270  0.52100  0.72460  Biso   1.000  C
  H48      1.0000 0.64950  0.53500  0.70630  Biso   1.000  H
  C96      1.0000 0.82190  0.52340  0.72350  Biso   1.000  C
  O29      1.0000 0.34280  0.43890  0.93694  Biso   1.000  O
  O30      1.0000 0.03720  0.30900  0.88370  Biso   1.000  O
  O31      1.0000 0.03500  0.41060  0.81752  Biso   1.000  O
  O32      1.0000 0.08750  0.30430  0.77750  Biso   1.000  O
  S9       1.0000 0.34597  0.07317  0.83259  Biso   1.000  S
  N9       1.0000 0.54320  0.88420  0.69830  Biso   1.000  N
  C97      1.0000 0.37330  0.28020  0.85980  Biso   1.000  C
  C98      1.0000 0.35160  0.21640  0.83540  Biso   1.000  C
  H49      1.0000 0.32180  0.21510  0.79940  Biso   1.000  H
  C99      1.0000 0.37370  0.15400  0.86360  Biso   1.000  C
  C100     1.0000 0.41800  0.15530  0.91550  Biso   1.000  C
  H50      1.0000 0.43370  0.11270  0.93360  Biso   1.000  H
  C101     1.0000 0.43900  0.21770  0.94060  Biso   1.000  C
  C102     1.0000 0.41690  0.28000  0.91310  Biso   1.000  C
  C103     1.0000 0.58600  0.88290  0.64810  Biso   1.000  C
  H51      1.0000 0.60030  0.92620  0.63020  Biso   1.000  H
  C104     1.0000 0.61050  0.82120  0.62090  Biso   1.000  C
  H52      1.0000 0.64110  0.82280  0.58560  Biso   1.000  H
  C105     1.0000 0.59020  0.75970  0.64500  Biso   1.000  C
  H53      1.0000 0.60640  0.71720  0.62680  Biso   1.000  H
  C106     1.0000 0.54530  0.75820  0.69710  Biso   1.000  C
  C107     1.0000 0.52100  0.69270  0.72460  Biso   1.000  C
  H54      1.0000 0.53500  0.64950  0.70630  Biso   1.000  H
  C108     1.0000 0.52340  0.82190  0.72350  Biso   1.000  C
  O33      1.0000 0.43890  0.34280  0.93694  Biso   1.000  O
  O34      1.0000 0.30900  0.03720  0.88370  Biso   1.000  O
  O35      1.0000 0.41060  0.03500  0.81752  Biso   1.000  O
  O36      1.0000 0.30430  0.08750  0.77750  Biso   1.000  O
  S10      1.0000 0.65403  0.92683  0.83259  Biso   1.000  S
  N10      1.0000 0.45680  0.11580  0.69830  Biso   1.000  N
  C109     1.0000 0.62670  0.71980  0.85980  Biso   1.000  C
  C110     1.0000 0.64840  0.78360  0.83540  Biso   1.000  C
  H55      1.0000 0.67820  0.78490  0.79940  Biso   1.000  H
  C111     1.0000 0.62630  0.84600  0.86360  Biso   1.000  C
  C112     1.0000 0.58200  0.84470  0.91550  Biso   1.000  C
  H56      1.0000 0.56630  0.88730  0.93360  Biso   1.000  H
  C113     1.0000 0.56100  0.78230  0.94060  Biso   1.000  C
  C114     1.0000 0.58310  0.72000  0.91310  Biso   1.000  C
  C115     1.0000 0.41400  0.11710  0.64810  Biso   1.000  C
  H57      1.0000 0.39970  0.07380  0.63020  Biso   1.000  H
  C116     1.0000 0.38950  0.17880  0.62090  Biso   1.000  C
  H58      1.0000 0.35890  0.17720  0.58560  Biso   1.000  H
  C117     1.0000 0.40980  0.24030  0.64500  Biso   1.000  C
  H59      1.0000 0.39360  0.28280  0.62680  Biso   1.000  H
  C118     1.0000 0.45470  0.24180  0.69710  Biso   1.000  C
  C119     1.0000 0.47900  0.30730  0.72460  Biso   1.000  C
  H60      1.0000 0.46500  0.35050  0.70630  Biso   1.000  H
  C120     1.0000 0.47660  0.17810  0.72350  Biso   1.000  C
  O37      1.0000 0.56110  0.65720  0.93694  Biso   1.000  O
  O38      1.0000 0.69100  0.96280  0.88370  Biso   1.000  O
  O39      1.0000 0.58940  0.96500  0.81752  Biso   1.000  O
  O40      1.0000 0.69570  0.91250  0.77750  Biso   1.000  O
  S11      1.0000 0.92683  0.34597  0.33259  Biso   1.000  S
  N11      1.0000 0.11580  0.54320  0.19830  Biso   1.000  N
  C121     1.0000 0.71980  0.37330  0.35980  Biso   1.000  C
  C122     1.0000 0.78360  0.35160  0.33540  Biso   1.000  C
  H61      1.0000 0.78490  0.32180  0.29940  Biso   1.000  H
  C123     1.0000 0.84600  0.37370  0.36360  Biso   1.000  C
  C124     1.0000 0.84470  0.41800  0.41550  Biso   1.000  C
  H62      1.0000 0.88730  0.43370  0.43360  Biso   1.000  H
  C125     1.0000 0.78230  0.43900  0.44060  Biso   1.000  C
  C126     1.0000 0.72000  0.41690  0.41310  Biso   1.000  C
  C127     1.0000 0.11710  0.58600  0.14810  Biso   1.000  C
  H63      1.0000 0.07380  0.60030  0.13020  Biso   1.000  H
  C128     1.0000 0.17880  0.61050  0.12090  Biso   1.000  C
  H64      1.0000 0.17720  0.64110  0.08560  Biso   1.000  H
  C129     1.0000 0.24030  0.59020  0.14500  Biso   1.000  C
  H65      1.0000 0.28280  0.60640  0.12680  Biso   1.000  H
  C130     1.0000 0.24180  0.54530  0.19710  Biso   1.000  C
  C131     1.0000 0.30730  0.52100  0.22460  Biso   1.000  C
  H66      1.0000 0.35050  0.53500  0.20630  Biso   1.000  H
  C132     1.0000 0.17810  0.52340  0.22350  Biso   1.000  C
  O41      1.0000 0.65720  0.43890  0.43694  Biso   1.000  O
  O42      1.0000 0.96280  0.30900  0.38370  Biso   1.000  O
  O43      1.0000 0.96500  0.41060  0.31752  Biso   1.000  O
  O44      1.0000 0.91250  0.30430  0.27750  Biso   1.000  O
  S12      1.0000 0.07317  0.65403  0.33259  Biso   1.000  S
  N12      1.0000 0.88420  0.45680  0.19830  Biso   1.000  N
  C133     1.0000 0.28020  0.62670  0.35980  Biso   1.000  C
  C134     1.0000 0.21640  0.64840  0.33540  Biso   1.000  C
  H67      1.0000 0.21510  0.67820  0.29940  Biso   1.000  H
  C135     1.0000 0.15400  0.62630  0.36360  Biso   1.000  C
  C136     1.0000 0.15530  0.58200  0.41550  Biso   1.000  C
  H68      1.0000 0.11270  0.56630  0.43360  Biso   1.000  H
  C137     1.0000 0.21770  0.56100  0.44060  Biso   1.000  C
  C138     1.0000 0.28000  0.58310  0.41310  Biso   1.000  C
  C139     1.0000 0.88290  0.41400  0.14810  Biso   1.000  C
  H69      1.0000 0.92620  0.39970  0.13020  Biso   1.000  H
  C140     1.0000 0.82120  0.38950  0.12090  Biso   1.000  C
  H70      1.0000 0.82280  0.35890  0.08560  Biso   1.000  H
  C141     1.0000 0.75970  0.40980  0.14500  Biso   1.000  C
  H71      1.0000 0.71720  0.39360  0.12680  Biso   1.000  H
  C142     1.0000 0.75820  0.45470  0.19710  Biso   1.000  C
  C143     1.0000 0.69270  0.47900  0.22460  Biso   1.000  C
  H72      1.0000 0.64950  0.46500  0.20630  Biso   1.000  H
  C144     1.0000 0.82190  0.47660  0.22350  Biso   1.000  C
  O45      1.0000 0.34280  0.56110  0.43694  Biso   1.000  O
  O46      1.0000 0.03720  0.69100  0.38370  Biso   1.000  O
  O47      1.0000 0.03500  0.58940  0.31752  Biso   1.000  O
  O48      1.0000 0.08750  0.69570  0.27750  Biso   1.000  O
  S13      1.0000 0.65403  0.07317  0.66741  Biso   1.000  S
  N13      1.0000 0.45680  0.88420  0.80170  Biso   1.000  N
  C145     1.0000 0.62670  0.28020  0.64020  Biso   1.000  C
  C146     1.0000 0.64840  0.21640  0.66460  Biso   1.000  C
  H73      1.0000 0.67820  0.21510  0.70060  Biso   1.000  H
  C147     1.0000 0.62630  0.15400  0.63640  Biso   1.000  C
  C148     1.0000 0.58200  0.15530  0.58450  Biso   1.000  C
  H74      1.0000 0.56630  0.11270  0.56640  Biso   1.000  H
  C149     1.0000 0.56100  0.21770  0.55940  Biso   1.000  C
  C150     1.0000 0.58310  0.28000  0.58690  Biso   1.000  C
  C151     1.0000 0.41400  0.88290  0.85190  Biso   1.000  C
  H75      1.0000 0.39970  0.92620  0.86980  Biso   1.000  H
  C152     1.0000 0.38950  0.82120  0.87910  Biso   1.000  C
  H76      1.0000 0.35890  0.82280  0.91440  Biso   1.000  H
  C153     1.0000 0.40980  0.75970  0.85500  Biso   1.000  C
  H77      1.0000 0.39360  0.71720  0.87320  Biso   1.000  H
  C154     1.0000 0.45470  0.75820  0.80290  Biso   1.000  C
  C155     1.0000 0.47900  0.69270  0.77540  Biso   1.000  C
  H78      1.0000 0.46500  0.64950  0.79370  Biso   1.000  H
  C156     1.0000 0.47660  0.82190  0.77650  Biso   1.000  C
  O49      1.0000 0.56110  0.34280  0.56306  Biso   1.000  O
  O50      1.0000 0.69100  0.03720  0.61630  Biso   1.000  O
  O51      1.0000 0.58940  0.03500  0.68248  Biso   1.000  O
  O52      1.0000 0.69570  0.08750  0.72250  Biso   1.000  O
  S14      1.0000 0.34597  0.92683  0.66741  Biso   1.000  S
  N14      1.0000 0.54320  0.11580  0.80170  Biso   1.000  N
  C157     1.0000 0.37330  0.71980  0.64020  Biso   1.000  C
  C158     1.0000 0.35160  0.78360  0.66460  Biso   1.000  C
  H79      1.0000 0.32180  0.78490  0.70060  Biso   1.000  H
  C159     1.0000 0.37370  0.84600  0.63640  Biso   1.000  C
  C160     1.0000 0.41800  0.84470  0.58450  Biso   1.000  C
  H80      1.0000 0.43370  0.88730  0.56640  Biso   1.000  H
  C161     1.0000 0.43900  0.78230  0.55940  Biso   1.000  C
  C162     1.0000 0.41690  0.72000  0.58690  Biso   1.000  C
  C163     1.0000 0.58600  0.11710  0.85190  Biso   1.000  C
  H81      1.0000 0.60030  0.07380  0.86980  Biso   1.000  H
  C164     1.0000 0.61050  0.17880  0.87910  Biso   1.000  C
  H82      1.0000 0.64110  0.17720  0.91440  Biso   1.000  H
  C165     1.0000 0.59020  0.24030  0.85500  Biso   1.000  C
  H83      1.0000 0.60640  0.28280  0.87320  Biso   1.000  H
  C166     1.0000 0.54530  0.24180  0.80290  Biso   1.000  C
  C167     1.0000 0.52100  0.30730  0.77540  Biso   1.000  C
  H84      1.0000 0.53500  0.35050  0.79370  Biso   1.000  H
  C168     1.0000 0.52340  0.17810  0.77650  Biso   1.000  C
  O53      1.0000 0.43890  0.65720  0.56306  Biso   1.000  O
  O54      1.0000 0.30900  0.96280  0.61630  Biso   1.000  O
  O55      1.0000 0.41060  0.96500  0.68248  Biso   1.000  O
  O56      1.0000 0.30430  0.91250  0.72250  Biso   1.000  O
  S15      1.0000 0.07317  0.34597  0.16741  Biso   1.000  S
  N15      1.0000 0.88420  0.54320  0.30170  Biso   1.000  N
  C169     1.0000 0.28020  0.37330  0.14020  Biso   1.000  C
  C170     1.0000 0.21640  0.35160  0.16460  Biso   1.000  C
  H85      1.0000 0.21510  0.32180  0.20060  Biso   1.000  H
  C171     1.0000 0.15400  0.37370  0.13640  Biso   1.000  C
  C172     1.0000 0.15530  0.41800  0.08450  Biso   1.000  C
  H86      1.0000 0.11270  0.43370  0.06640  Biso   1.000  H
  C173     1.0000 0.21770  0.43900  0.05940  Biso   1.000  C
  C174     1.0000 0.28000  0.41690  0.08690  Biso   1.000  C
  C175     1.0000 0.88290  0.58600  0.35190  Biso   1.000  C
  H87      1.0000 0.92620  0.60030  0.36980  Biso   1.000  H
  C176     1.0000 0.82120  0.61050  0.37910  Biso   1.000  C
  H88      1.0000 0.82280  0.64110  0.41440  Biso   1.000  H
  C177     1.0000 0.75970  0.59020  0.35500  Biso   1.000  C
  H89      1.0000 0.71720  0.60640  0.37320  Biso   1.000  H
  C178     1.0000 0.75820  0.54530  0.30290  Biso   1.000  C
  C179     1.0000 0.69270  0.52100  0.27540  Biso   1.000  C
  H90      1.0000 0.64950  0.53500  0.29370  Biso   1.000  H
  C180     1.0000 0.82190  0.52340  0.27650  Biso   1.000  C
  O57      1.0000 0.34280  0.43890  0.06306  Biso   1.000  O
  O58      1.0000 0.03720  0.30900  0.11630  Biso   1.000  O
  O59      1.0000 0.03500  0.41060  0.18248  Biso   1.000  O
  O60      1.0000 0.08750  0.30430  0.22250  Biso   1.000  O
  S16      1.0000 0.92683  0.65403  0.16741  Biso   1.000  S
  N16      1.0000 0.11580  0.45680  0.30170  Biso   1.000  N
  C181     1.0000 0.71980  0.62670  0.14020  Biso   1.000  C
  C182     1.0000 0.78360  0.64840  0.16460  Biso   1.000  C
  H91      1.0000 0.78490  0.67820  0.20060  Biso   1.000  H
  C183     1.0000 0.84600  0.62630  0.13640  Biso   1.000  C
  C184     1.0000 0.84470  0.58200  0.08450  Biso   1.000  C
  H92      1.0000 0.88730  0.56630  0.06640  Biso   1.000  H
  C185     1.0000 0.78230  0.56100  0.05940  Biso   1.000  C
  C186     1.0000 0.72000  0.58310  0.08690  Biso   1.000  C
  C187     1.0000 0.11710  0.41400  0.35190  Biso   1.000  C
  H93      1.0000 0.07380  0.39970  0.36980  Biso   1.000  H
  C188     1.0000 0.17880  0.38950  0.37910  Biso   1.000  C
  H94      1.0000 0.17720  0.35890  0.41440  Biso   1.000  H
  C189     1.0000 0.24030  0.40980  0.35500  Biso   1.000  C
  H95      1.0000 0.28280  0.39360  0.37320  Biso   1.000  H
  C190     1.0000 0.24180  0.45470  0.30290  Biso   1.000  C
  C191     1.0000 0.30730  0.47900  0.27540  Biso   1.000  C
  H96      1.0000 0.35050  0.46500  0.29370  Biso   1.000  H
  C192     1.0000 0.17810  0.47660  0.27650  Biso   1.000  C
  O61      1.0000 0.65720  0.56110  0.06306  Biso   1.000  O
  O62      1.0000 0.96280  0.69100  0.11630  Biso   1.000  O
  O63      1.0000 0.96500  0.58940  0.18248  Biso   1.000  O
  O64      1.0000 0.91250  0.69570  0.22250  Biso   1.000  O
  Eu1      1.0000 0.50000  0.00000  0.25000  Biso   1.000  Eu
  Eu2      1.0000 0.00000  0.50000  0.75000  Biso   1.000  Eu
  Eu3      1.0000 0.50000  0.00000  0.75000  Biso   1.000  Eu
  Eu4      1.0000 0.00000  0.50000  0.25000  Biso   1.000  Eu
  C193     1.0000 0.65250  0.65250  0.16940  Biso   1.000  C
  H97      1.0000 0.61610  0.61610  0.16440  Biso   1.000  H
  H98      1.0000 0.65990  0.65990  0.21530  Biso   1.000  H
  C194     1.0000 0.34750  0.34750  0.16940  Biso   1.000  C
  H99      1.0000 0.38390  0.38390  0.16440  Biso   1.000  H
  H100     1.0000 0.34010  0.34010  0.21530  Biso   1.000  H
  C195     1.0000 0.34750  0.65250  0.66940  Biso   1.000  C
  H101     1.0000 0.38390  0.61610  0.66440  Biso   1.000  H
  H102     1.0000 0.34010  0.65990  0.71530  Biso   1.000  H
  C196     1.0000 0.65250  0.34750  0.66940  Biso   1.000  C
  H103     1.0000 0.61610  0.38390  0.66440  Biso   1.000  H
  H104     1.0000 0.65990  0.34010  0.71530  Biso   1.000  H
  C197     1.0000 0.34750  0.65250  0.33060  Biso   1.000  C
  H105     1.0000 0.38390  0.61610  0.33560  Biso   1.000  H
  H106     1.0000 0.34010  0.65990  0.28470  Biso   1.000  H
  C198     1.0000 0.65250  0.34750  0.33060  Biso   1.000  C
  H107     1.0000 0.61610  0.38390  0.33560  Biso   1.000  H
  H108     1.0000 0.65990  0.34010  0.28470  Biso   1.000  H
  C199     1.0000 0.65250  0.65250  0.83060  Biso   1.000  C
  H109     1.0000 0.61610  0.61610  0.83560  Biso   1.000  H
  H110     1.0000 0.65990  0.65990  0.78470  Biso   1.000  H
  C200     1.0000 0.34750  0.34750  0.83060  Biso   1.000  C
  H111     1.0000 0.38390  0.38390  0.83560  Biso   1.000  H
  H112     1.0000 0.34010  0.34010  0.78470  Biso   1.000  H
  C201     1.0000 0.51520  0.78270  0.00000  Biso   1.000  C
  H113     1.0000 0.48450  0.74100  0.00000  Biso   1.000  H
  H114     1.0000 0.48520  0.82490  0.00000  Biso   1.000  H
  C202     1.0000 0.48480  0.21730  0.00000  Biso   1.000  C
  H115     1.0000 0.51550  0.25900  0.00000  Biso   1.000  H
  H116     1.0000 0.51480  0.17510  0.00000  Biso   1.000  H
  C203     1.0000 0.21730  0.51520  0.50000  Biso   1.000  C
  H117     1.0000 0.25900  0.48450  0.50000  Biso   1.000  H
  H118     1.0000 0.17510  0.48520  0.50000  Biso   1.000  H
  C204     1.0000 0.78270  0.48480  0.50000  Biso   1.000  C
  H119     1.0000 0.74100  0.51550  0.50000  Biso   1.000  H
  H120     1.0000 0.82490  0.51480  0.50000  Biso   1.000  H
  C205     1.0000 0.48480  0.78270  0.50000  Biso   1.000  C
  H121     1.0000 0.51550  0.74100  0.50000  Biso   1.000  H
  H122     1.0000 0.51480  0.82490  0.50000  Biso   1.000  H
  C206     1.0000 0.51520  0.21730  0.50000  Biso   1.000  C
  H123     1.0000 0.48450  0.25900  0.50000  Biso   1.000  H
  H124     1.0000 0.48520  0.17510  0.50000  Biso   1.000  H
  C207     1.0000 0.78270  0.51520  0.00000  Biso   1.000  C
  H125     1.0000 0.74100  0.48450  0.00000  Biso   1.000  H
  H126     1.0000 0.82490  0.48520  0.00000  Biso   1.000  H
  C208     1.0000 0.21730  0.48480  0.00000  Biso   1.000  C
  H127     1.0000 0.25900  0.51550  0.00000  Biso   1.000  H
  H128     1.0000 0.17510  0.51480  0.00000  Biso   1.000  H
