data_image0
_cell_length_a       8.2723
_cell_length_b       20.345
_cell_length_c       8.6343
_cell_angle_alpha    90
_cell_angle_beta     92.36
_cell_angle_gamma    90

_symmetry_space_group_name_H-M    "P 1"
_symmetry_int_tables_number       1

loop_
  _symmetry_equiv_pos_as_xyz
  'x, y, z'

loop_
  _atom_site_label
  _atom_site_occupancy
  _atom_site_fract_x
  _atom_site_fract_y
  _atom_site_fract_z
  _atom_site_thermal_displace_type
  _atom_site_B_iso_or_equiv
  _atom_site_type_symbol
  N1       1.0000 0.82440  0.17370  0.17497  Biso   1.000  N
  N2       1.0000 0.88513  0.07828  0.08636  Biso   1.000  N
  N3       1.0000 0.71693  0.08132  0.09159  Biso   1.000  N
  N4       1.0000 0.85130  0.23687  0.23200  Biso   1.000  N
  N5       1.0000 0.72330  0.26875  0.22160  Biso   1.000  N
  N6       1.0000 0.74680  0.33094  0.28326  Biso   1.000  N
  N7       1.0000 0.84000  0.41647  0.41150  Biso   1.000  N
  N8       1.0000 0.67476  0.42627  0.37118  Biso   1.000  N
  N9       1.0000 0.34348  0.00047  0.36659  Biso   1.000  N
  N10      1.0000 0.15070  0.00079  0.19038  Biso   1.000  N
  N11      1.0000 0.08040  0.00360  0.33536  Biso   1.000  N
  N12      1.0000 0.50050  0.99940  0.42790  Biso   1.000  N
  C1       1.0000 0.94660  0.13332  0.13790  Biso   1.000  C
  H1       1.0000 0.05860  0.14340  0.14790  Biso   1.000  H
  C2       1.0000 0.68330  0.13911  0.14540  Biso   1.000  C
  H2       1.0000 0.57750  0.15510  0.16190  Biso   1.000  H
  C3       1.0000 0.87910  0.35924  0.35860  Biso   1.000  C
  H3       1.0000 0.98330  0.33980  0.37010  Biso   1.000  H
  C4       1.0000 0.62360  0.37465  0.29520  Biso   1.000  C
  H4       1.0000 0.51640  0.36840  0.25430  Biso   1.000  H
  C5       1.0000 0.30770  0.99929  0.21170  Biso   1.000  C
  H5       1.0000 0.38400  0.99770  0.13240  Biso   1.000  H
  C6       1.0000 0.19820  0.00305  0.43890  Biso   1.000  C
  H6       1.0000 0.18620  0.00420  0.54780  Biso   1.000  H
  N13      1.0000 0.17560  0.82630  0.82503  Biso   1.000  N
  N14      1.0000 0.11487  0.92172  0.91364  Biso   1.000  N
  N15      1.0000 0.28307  0.91868  0.90841  Biso   1.000  N
  N16      1.0000 0.14870  0.76313  0.76800  Biso   1.000  N
  N17      1.0000 0.27670  0.73125  0.77840  Biso   1.000  N
  N18      1.0000 0.25320  0.66906  0.71674  Biso   1.000  N
  N19      1.0000 0.16000  0.58353  0.58850  Biso   1.000  N
  N20      1.0000 0.32524  0.57373  0.62882  Biso   1.000  N
  N21      1.0000 0.65652  0.99953  0.63341  Biso   1.000  N
  N22      1.0000 0.84930  0.99921  0.80962  Biso   1.000  N
  N23      1.0000 0.91960  0.99640  0.66464  Biso   1.000  N
  N24      1.0000 0.49950  0.00060  0.57210  Biso   1.000  N
  C7       1.0000 0.05340  0.86668  0.86210  Biso   1.000  C
  H7       1.0000 0.94140  0.85660  0.85210  Biso   1.000  H
  C8       1.0000 0.31670  0.86089  0.85460  Biso   1.000  C
  H8       1.0000 0.42250  0.84490  0.83810  Biso   1.000  H
  C9       1.0000 0.12090  0.64076  0.64140  Biso   1.000  C
  H9       1.0000 0.01670  0.66020  0.62990  Biso   1.000  H
  C10      1.0000 0.37640  0.62535  0.70480  Biso   1.000  C
  H10      1.0000 0.48360  0.63160  0.74570  Biso   1.000  H
  C11      1.0000 0.69230  0.00071  0.78830  Biso   1.000  C
  H11      1.0000 0.61600  0.00230  0.86760  Biso   1.000  H
  C12      1.0000 0.80180  0.99695  0.56110  Biso   1.000  C
  H12      1.0000 0.81380  0.99580  0.45220  Biso   1.000  H
  Cu1      1.0000 0.00000  0.00000  0.00000  Biso   1.000  Cu
  N25      1.0000 0.67560  0.67370  0.32503  Biso   1.000  N
  N26      1.0000 0.61487  0.57828  0.41364  Biso   1.000  N
  N27      1.0000 0.78307  0.58132  0.40841  Biso   1.000  N
  N28      1.0000 0.64870  0.73687  0.26800  Biso   1.000  N
  N29      1.0000 0.77670  0.76875  0.27840  Biso   1.000  N
  N30      1.0000 0.75320  0.83094  0.21674  Biso   1.000  N
  N31      1.0000 0.66000  0.91647  0.08850  Biso   1.000  N
  N32      1.0000 0.82524  0.92627  0.12882  Biso   1.000  N
  N33      1.0000 0.15652  0.50047  0.13341  Biso   1.000  N
  N34      1.0000 0.34930  0.50079  0.30962  Biso   1.000  N
  N35      1.0000 0.41960  0.50360  0.16464  Biso   1.000  N
  N36      1.0000 0.99950  0.49940  0.07210  Biso   1.000  N
  C13      1.0000 0.55340  0.63332  0.36210  Biso   1.000  C
  H13      1.0000 0.44140  0.64340  0.35210  Biso   1.000  H
  C14      1.0000 0.81670  0.63911  0.35460  Biso   1.000  C
  H14      1.0000 0.92250  0.65510  0.33810  Biso   1.000  H
  C15      1.0000 0.62090  0.85924  0.14140  Biso   1.000  C
  H15      1.0000 0.51670  0.83980  0.12990  Biso   1.000  H
  C16      1.0000 0.87640  0.87465  0.20480  Biso   1.000  C
  H16      1.0000 0.98360  0.86840  0.24570  Biso   1.000  H
  C17      1.0000 0.19230  0.49929  0.28830  Biso   1.000  C
  H17      1.0000 0.11600  0.49770  0.36760  Biso   1.000  H
  C18      1.0000 0.30180  0.50305  0.06110  Biso   1.000  C
  H18      1.0000 0.31380  0.50420  0.95220  Biso   1.000  H
  N37      1.0000 0.32440  0.32630  0.67497  Biso   1.000  N
  N38      1.0000 0.38513  0.42172  0.58636  Biso   1.000  N
  N39      1.0000 0.21693  0.41868  0.59159  Biso   1.000  N
  N40      1.0000 0.35130  0.26313  0.73200  Biso   1.000  N
  N41      1.0000 0.22330  0.23125  0.72160  Biso   1.000  N
  N42      1.0000 0.24680  0.16906  0.78326  Biso   1.000  N
  N43      1.0000 0.34000  0.08353  0.91150  Biso   1.000  N
  N44      1.0000 0.17476  0.07373  0.87118  Biso   1.000  N
  N45      1.0000 0.84348  0.49953  0.86659  Biso   1.000  N
  N46      1.0000 0.65070  0.49921  0.69038  Biso   1.000  N
  N47      1.0000 0.58040  0.49640  0.83536  Biso   1.000  N
  N48      1.0000 0.00050  0.50060  0.92790  Biso   1.000  N
  C19      1.0000 0.44660  0.36668  0.63790  Biso   1.000  C
  H19      1.0000 0.55860  0.35660  0.64790  Biso   1.000  H
  C20      1.0000 0.18330  0.36089  0.64540  Biso   1.000  C
  H20      1.0000 0.07750  0.34490  0.66190  Biso   1.000  H
  C21      1.0000 0.37910  0.14076  0.85860  Biso   1.000  C
  H21      1.0000 0.48330  0.16020  0.87010  Biso   1.000  H
  C22      1.0000 0.12360  0.12535  0.79520  Biso   1.000  C
  H22      1.0000 0.01640  0.13160  0.75430  Biso   1.000  H
  C23      1.0000 0.80770  0.50071  0.71170  Biso   1.000  C
  H23      1.0000 0.88400  0.50230  0.63240  Biso   1.000  H
  C24      1.0000 0.69820  0.49695  0.93890  Biso   1.000  C
  H24      1.0000 0.68620  0.49580  0.04780  Biso   1.000  H
  Cu2      1.0000 0.50000  0.50000  0.50000  Biso   1.000  Cu
