data_OGUPIQ_clean
_audit_creation_date              2014-07-02
_audit_creation_method            'Materials Studio'
_symmetry_space_group_name_H-M    'P1'
_symmetry_Int_Tables_number       1
_symmetry_cell_setting            triclinic
loop_
_symmetry_equiv_pos_as_xyz
  x,y,z
_cell_length_a                    11.1832
_cell_length_b                    18.5775
_cell_length_c                    21.4750
_cell_angle_alpha                 94.6112
_cell_angle_beta                  90.0000
_cell_angle_gamma                 107.5170
loop_
_atom_site_label
_atom_site_type_symbol
_atom_site_fract_x
_atom_site_fract_y
_atom_site_fract_z
_atom_site_U_iso_or_equiv
_atom_site_adp_type
_atom_site_occupancy
Co1    Co    0.24531   0.65196   0.23996   0.01267  Uiso   1.00
Co2    Co    0.17968   0.80454   0.18016   0.01267  Uiso   1.00
Co3    Co    0.68070   0.25744   0.37342   0.01267  Uiso   1.00
Co4    Co    0.74621   0.72104   0.56376   0.01267  Uiso   1.00
Co5    Co    0.68513   0.85940   0.50460   0.01267  Uiso   1.00
Co6    Co    0.59335   0.34804   0.26004   0.01267  Uiso   1.00
Co7    Co    0.37514   0.19546   0.31984   0.01267  Uiso   1.00
Co8    Co    0.42326   0.74256   0.12658   0.01267  Uiso   1.00
Co9    Co    0.02517   0.27896   0.93624   0.01267  Uiso   1.00
Co10   Co    0.82573   0.14060   0.99540   0.01267  Uiso   1.00
Co11   Co    0.75469   0.34804   0.76004   0.01267  Uiso   1.00
Co12   Co    0.82032   0.19546   0.81984   0.01267  Uiso   1.00
Co13   Co    0.31930   0.74256   0.62658   0.01267  Uiso   1.00
Co14   Co    0.25379   0.27896   0.43624   0.01267  Uiso   1.00
Co15   Co    0.31487   0.14060   0.49540   0.01267  Uiso   1.00
Co16   Co    0.40665   0.65196   0.73996   0.01267  Uiso   1.00
Co17   Co    0.62486   0.80454   0.68016   0.01267  Uiso   1.00
Co18   Co    0.57674   0.25744   0.87342   0.01267  Uiso   1.00
Co19   Co    0.97483   0.72104   0.06376   0.01267  Uiso   1.00
Co20   Co    0.17427   0.85940   0.00460   0.01267  Uiso   1.00
H1     H     0.19830   0.67700   0.12990   0.01267  Uiso   1.00
H2     H     0.19470   0.75700   0.06930   0.01267  Uiso   1.00
H3     H     0.76890   0.87600   0.39070   0.01267  Uiso   1.00
H4     H     0.80050   0.95300   0.42300   0.01267  Uiso   1.00
H5     H     0.71520   0.46720   0.34040   0.01267  Uiso   1.00
H6     H     0.58300   0.46660   0.33910   0.01267  Uiso   1.00
H7     H     0.81370   0.96180   0.58910   0.01267  Uiso   1.00
H8     H     0.68060   0.95900   0.59630   0.01267  Uiso   1.00
H9     H     0.18180   0.65060   0.35630   0.01267  Uiso   1.00
H10    H     0.13470   0.57140   0.32870   0.01267  Uiso   1.00
H11    H     0.37920   0.96840   0.29800   0.01267  Uiso   1.00
H12    H     0.71630   0.04000   0.38970   0.01267  Uiso   1.00
H13    H     0.53960   0.81520   0.35480   0.01267  Uiso   1.00
H14    H     0.77010   0.70680   0.19490   0.01267  Uiso   1.00
H15    H     0.50600   0.53880   0.27120   0.01267  Uiso   1.00
H16    H     0.87300   0.55100   0.28590   0.01267  Uiso   1.00
H17    H     0.84090   0.20960   0.45860   0.01267  Uiso   1.00
H18    H     0.95350   0.04460   0.53000   0.01267  Uiso   1.00
H19    H     0.58970   0.04060   0.54050   0.01267  Uiso   1.00
H20    H     0.55640   0.54400   0.44480   0.01267  Uiso   1.00
H21    H     0.21520   0.48060   0.35720   0.01267  Uiso   1.00
H22    H     0.41220   0.70320   0.38570   0.01267  Uiso   1.00
H23    H     0.52130   0.32300   0.37010   0.01267  Uiso   1.00
H24    H     0.43770   0.24300   0.43070   0.01267  Uiso   1.00
H25    H     0.89290   0.12400   0.10930   0.01267  Uiso   1.00
H26    H     0.84750   0.04700   0.07700   0.01267  Uiso   1.00
H27    H     0.24800   0.53280   0.15960   0.01267  Uiso   1.00
H28    H     0.11640   0.53340   0.16090   0.01267  Uiso   1.00
H29    H     0.85190   0.03820   0.91090   0.01267  Uiso   1.00
H30    H     0.72160   0.04100   0.90370   0.01267  Uiso   1.00
H31    H     0.53120   0.34940   0.14370   0.01267  Uiso   1.00
H32    H     0.56330   0.42860   0.17130   0.01267  Uiso   1.00
H33    H     0.41080   0.03160   0.20200   0.01267  Uiso   1.00
H34    H     0.67630   0.96000   0.11030   0.01267  Uiso   1.00
H35    H     0.72440   0.18480   0.14520   0.01267  Uiso   1.00
H36    H     0.06330   0.29320   0.30510   0.01267  Uiso   1.00
H37    H     0.96720   0.46120   0.22880   0.01267  Uiso   1.00
H38    H     0.32200   0.44900   0.21410   0.01267  Uiso   1.00
H39    H     0.63130   0.79040   0.04140   0.01267  Uiso   1.00
H40    H     0.90890   0.95540   0.97000   0.01267  Uiso   1.00
H41    H     0.54910   0.95940   0.95950   0.01267  Uiso   1.00
H42    H     0.01240   0.45600   0.05520   0.01267  Uiso   1.00
H43    H     0.73460   0.51940   0.14280   0.01267  Uiso   1.00
H44    H     0.70900   0.29680   0.11430   0.01267  Uiso   1.00
H45    H     0.80170   0.32300   0.87010   0.01267  Uiso   1.00
H46    H     0.80530   0.24300   0.93070   0.01267  Uiso   1.00
H47    H     0.23110   0.12400   0.60930   0.01267  Uiso   1.00
H48    H     0.19950   0.04700   0.57700   0.01267  Uiso   1.00
H49    H     0.28480   0.53280   0.65960   0.01267  Uiso   1.00
H50    H     0.41700   0.53340   0.66090   0.01267  Uiso   1.00
H51    H     0.18630   0.03820   0.41090   0.01267  Uiso   1.00
H52    H     0.31940   0.04100   0.40370   0.01267  Uiso   1.00
H53    H     0.81820   0.34940   0.64370   0.01267  Uiso   1.00
H54    H     0.86530   0.42860   0.67130   0.01267  Uiso   1.00
H55    H     0.62080   0.03160   0.70200   0.01267  Uiso   1.00
H56    H     0.28370   0.96000   0.61030   0.01267  Uiso   1.00
H57    H     0.46040   0.18480   0.64520   0.01267  Uiso   1.00
H58    H     0.22990   0.29320   0.80510   0.01267  Uiso   1.00
H59    H     0.49400   0.46120   0.72880   0.01267  Uiso   1.00
H60    H     0.12700   0.44900   0.71410   0.01267  Uiso   1.00
H61    H     0.15910   0.79040   0.54140   0.01267  Uiso   1.00
H62    H     0.04650   0.95540   0.47000   0.01267  Uiso   1.00
H63    H     0.41030   0.95940   0.45950   0.01267  Uiso   1.00
H64    H     0.44360   0.45600   0.55520   0.01267  Uiso   1.00
H65    H     0.78480   0.51940   0.64280   0.01267  Uiso   1.00
H66    H     0.58780   0.29680   0.61430   0.01267  Uiso   1.00
H67    H     0.47870   0.67700   0.62990   0.01267  Uiso   1.00
H68    H     0.56230   0.75700   0.56930   0.01267  Uiso   1.00
H69    H     0.10710   0.87600   0.89070   0.01267  Uiso   1.00
H70    H     0.15250   0.95300   0.92300   0.01267  Uiso   1.00
H71    H     0.75200   0.46720   0.84040   0.01267  Uiso   1.00
H72    H     0.88360   0.46660   0.83910   0.01267  Uiso   1.00
H73    H     0.14810   0.96180   0.08910   0.01267  Uiso   1.00
H74    H     0.27840   0.95900   0.09630   0.01267  Uiso   1.00
H75    H     0.46880   0.65060   0.85630   0.01267  Uiso   1.00
H76    H     0.43670   0.57140   0.82870   0.01267  Uiso   1.00
H77    H     0.58920   0.96840   0.79800   0.01267  Uiso   1.00
H78    H     0.32370   0.04000   0.88970   0.01267  Uiso   1.00
H79    H     0.27560   0.81520   0.85480   0.01267  Uiso   1.00
H80    H     0.93670   0.70680   0.69490   0.01267  Uiso   1.00
H81    H     0.03280   0.53880   0.77120   0.01267  Uiso   1.00
H82    H     0.67800   0.55100   0.78590   0.01267  Uiso   1.00
H83    H     0.36870   0.20960   0.95860   0.01267  Uiso   1.00
H84    H     0.09110   0.04460   0.03000   0.01267  Uiso   1.00
H85    H     0.45090   0.04060   0.04050   0.01267  Uiso   1.00
H86    H     0.98760   0.54400   0.94480   0.01267  Uiso   1.00
H87    H     0.26540   0.48060   0.85720   0.01267  Uiso   1.00
H88    H     0.29100   0.70320   0.88570   0.01267  Uiso   1.00
C1     C     0.44327   0.88254   0.32240   0.01267  Uiso   1.00
C2     C     0.44648   0.95736   0.31810   0.01267  Uiso   1.00
C3     C     0.54822   0.01604   0.34310   0.01267  Uiso   1.00
C4     C     0.64676   0.99992   0.37250   0.01267  Uiso   1.00
C5     C     0.64355   0.92510   0.37690   0.01267  Uiso   1.00
C6     C     0.54181   0.86642   0.35180   0.01267  Uiso   1.00
C7     C     0.33598   0.81796   0.29290   0.01267  Uiso   1.00
C8     C     0.55108   0.09596   0.33990   0.01267  Uiso   1.00
C9     C     0.84139   0.63458   0.23850   0.01267  Uiso   1.00
C10    C     0.74829   0.66298   0.21760   0.01267  Uiso   1.00
C11    C     0.62333   0.62726   0.22980   0.01267  Uiso   1.00
C12    C     0.59137   0.56314   0.26290   0.01267  Uiso   1.00
C13    C     0.68447   0.53474   0.28380   0.01267  Uiso   1.00
C14    C     0.80942   0.57044   0.27160   0.01267  Uiso   1.00
C15    C     0.97775   0.67410   0.22600   0.01267  Uiso   1.00
C16    C     0.52007   0.65714   0.20860   0.01267  Uiso   1.00
C17    C     0.70038   0.13016   0.49770   0.01267  Uiso   1.00
C18    C     0.82211   0.16442   0.47940   0.01267  Uiso   1.00
C19    C     0.91645   0.13250   0.49140   0.01267  Uiso   1.00
C20    C     0.88897   0.06634   0.52180   0.01267  Uiso   1.00
C21    C     0.76724   0.03208   0.54010   0.01267  Uiso   1.00
C22    C     0.67289   0.06398   0.52800   0.01267  Uiso   1.00
C23    C     0.59387   0.16074   0.48300   0.01267  Uiso   1.00
C24    C     0.05019   0.16798   0.47390   0.01267  Uiso   1.00
C25    C     0.50117   0.63254   0.41890   0.01267  Uiso   1.00
C26    C     0.49079   0.55698   0.42490   0.01267  Uiso   1.00
C27    C     0.38418   0.50036   0.40190   0.01267  Uiso   1.00
C28    C     0.28806   0.51932   0.37290   0.01267  Uiso   1.00
C29    C     0.29844   0.59488   0.36680   0.01267  Uiso   1.00
C30    C     0.40505   0.65150   0.38980   0.01267  Uiso   1.00
C31    C     0.60931   0.69442   0.44860   0.01267  Uiso   1.00
C32    C     0.36793   0.41946   0.41010   0.01267  Uiso   1.00
C33    C     0.56073   0.11746   0.17760   0.01267  Uiso   1.00
C34    C     0.48912   0.04264   0.18190   0.01267  Uiso   1.00
C35    C     0.53218   0.98396   0.15690   0.01267  Uiso   1.00
C36    C     0.64684   0.00008   0.12750   0.01267  Uiso   1.00
C37    C     0.71845   0.07490   0.12310   0.01267  Uiso   1.00
C38    C     0.67539   0.13358   0.14820   0.01267  Uiso   1.00
C39    C     0.51802   0.18204   0.20710   0.01267  Uiso   1.00
C40    C     0.45512   0.90404   0.16010   0.01267  Uiso   1.00
C41    C     0.20681   0.36542   0.26150   0.01267  Uiso   1.00
C42    C     0.08531   0.33702   0.28240   0.01267  Uiso   1.00
C43    C     0.99607   0.37274   0.27020   0.01267  Uiso   1.00
C44    C     0.02823   0.43686   0.23710   0.01267  Uiso   1.00
C45    C     0.14973   0.46526   0.21620   0.01267  Uiso   1.00
C46    C     0.23898   0.42956   0.22840   0.01267  Uiso   1.00
C47    C     0.30365   0.32590   0.27400   0.01267  Uiso   1.00
C48    C     0.86293   0.34286   0.29140   0.01267  Uiso   1.00
C49    C     0.57022   0.86984   0.00230   0.01267  Uiso   1.00
C50    C     0.65769   0.83558   0.02060   0.01267  Uiso   1.00
C51    C     0.78395   0.86750   0.00860   0.01267  Uiso   1.00
C52    C     0.82263   0.93366   0.97820   0.01267  Uiso   1.00
C53    C     0.73516   0.96792   0.95990   0.01267  Uiso   1.00
C54    C     0.60891   0.93602   0.97200   0.01267  Uiso   1.00
C55    C     0.43313   0.83926   0.01700   0.01267  Uiso   1.00
C56    C     0.88221   0.83202   0.02610   0.01267  Uiso   1.00
C57    C     0.86863   0.36746   0.08110   0.01267  Uiso   1.00
C58    C     0.93381   0.44302   0.07510   0.01267  Uiso   1.00
C59    C     0.88382   0.49964   0.09810   0.01267  Uiso   1.00
C60    C     0.76874   0.48068   0.12710   0.01267  Uiso   1.00
C61    C     0.70356   0.40512   0.13320   0.01267  Uiso   1.00
C62    C     0.75355   0.34850   0.11020   0.01267  Uiso   1.00
C63    C     0.91489   0.30558   0.05140   0.01267  Uiso   1.00
C64    C     0.94847   0.58054   0.08990   0.01267  Uiso   1.00
C65    C     0.55673   0.11746   0.67760   0.01267  Uiso   1.00
C66    C     0.55352   0.04264   0.68190   0.01267  Uiso   1.00
C67    C     0.45178   0.98396   0.65690   0.01267  Uiso   1.00
C68    C     0.35324   0.00008   0.62750   0.01267  Uiso   1.00
C69    C     0.35645   0.07490   0.62310   0.01267  Uiso   1.00
C70    C     0.45819   0.13358   0.64820   0.01267  Uiso   1.00
C71    C     0.66402   0.18204   0.70710   0.01267  Uiso   1.00
C72    C     0.44892   0.90404   0.66010   0.01267  Uiso   1.00
C73    C     0.15861   0.36542   0.76150   0.01267  Uiso   1.00
C74    C     0.25171   0.33702   0.78240   0.01267  Uiso   1.00
C75    C     0.37667   0.37274   0.77020   0.01267  Uiso   1.00
C76    C     0.40863   0.43686   0.73710   0.01267  Uiso   1.00
C77    C     0.31553   0.46526   0.71620   0.01267  Uiso   1.00
C78    C     0.19058   0.42956   0.72840   0.01267  Uiso   1.00
C79    C     0.02225   0.32590   0.77400   0.01267  Uiso   1.00
C80    C     0.47993   0.34286   0.79140   0.01267  Uiso   1.00
C81    C     0.29962   0.86984   0.50230   0.01267  Uiso   1.00
C82    C     0.17789   0.83558   0.52060   0.01267  Uiso   1.00
C83    C     0.08355   0.86750   0.50860   0.01267  Uiso   1.00
C84    C     0.11103   0.93366   0.47820   0.01267  Uiso   1.00
C85    C     0.23276   0.96792   0.45990   0.01267  Uiso   1.00
C86    C     0.32711   0.93602   0.47200   0.01267  Uiso   1.00
C87    C     0.40613   0.83926   0.51700   0.01267  Uiso   1.00
C88    C     0.94981   0.83202   0.52610   0.01267  Uiso   1.00
C89    C     0.49883   0.36746   0.58110   0.01267  Uiso   1.00
C90    C     0.50921   0.44302   0.57510   0.01267  Uiso   1.00
C91    C     0.61582   0.49964   0.59810   0.01267  Uiso   1.00
C92    C     0.71194   0.48068   0.62710   0.01267  Uiso   1.00
C93    C     0.70156   0.40512   0.63320   0.01267  Uiso   1.00
C94    C     0.59495   0.34850   0.61020   0.01267  Uiso   1.00
C95    C     0.39069   0.30558   0.55140   0.01267  Uiso   1.00
C96    C     0.63207   0.58054   0.58990   0.01267  Uiso   1.00
C97    C     0.43927   0.88254   0.82240   0.01267  Uiso   1.00
C98    C     0.51088   0.95736   0.81810   0.01267  Uiso   1.00
C99    C     0.46782   0.01604   0.84310   0.01267  Uiso   1.00
C100   C     0.35316   0.99992   0.87250   0.01267  Uiso   1.00
C101   C     0.28155   0.92510   0.87690   0.01267  Uiso   1.00
C102   C     0.32461   0.86642   0.85180   0.01267  Uiso   1.00
C103   C     0.48198   0.81796   0.79290   0.01267  Uiso   1.00
C104   C     0.54488   0.09596   0.83990   0.01267  Uiso   1.00
C105   C     0.79319   0.63458   0.73850   0.01267  Uiso   1.00
C106   C     0.91469   0.66298   0.71760   0.01267  Uiso   1.00
C107   C     0.00393   0.62726   0.72980   0.01267  Uiso   1.00
C108   C     0.97177   0.56314   0.76290   0.01267  Uiso   1.00
C109   C     0.85027   0.53474   0.78380   0.01267  Uiso   1.00
C110   C     0.76102   0.57044   0.77160   0.01267  Uiso   1.00
C111   C     0.69635   0.67410   0.72600   0.01267  Uiso   1.00
C112   C     0.13707   0.65714   0.70860   0.01267  Uiso   1.00
C113   C     0.42978   0.13016   0.99770   0.01267  Uiso   1.00
C114   C     0.34231   0.16442   0.97940   0.01267  Uiso   1.00
C115   C     0.21605   0.13250   0.99140   0.01267  Uiso   1.00
C116   C     0.17737   0.06634   0.02180   0.01267  Uiso   1.00
C117   C     0.26484   0.03208   0.04010   0.01267  Uiso   1.00
C118   C     0.39109   0.06398   0.02800   0.01267  Uiso   1.00
C119   C     0.56687   0.16074   0.98300   0.01267  Uiso   1.00
C120   C     0.11779   0.16798   0.97390   0.01267  Uiso   1.00
C121   C     0.13137   0.63254   0.91890   0.01267  Uiso   1.00
C122   C     0.06619   0.55698   0.92490   0.01267  Uiso   1.00
C123   C     0.11618   0.50036   0.90190   0.01267  Uiso   1.00
C124   C     0.23126   0.51932   0.87290   0.01267  Uiso   1.00
C125   C     0.29644   0.59488   0.86680   0.01267  Uiso   1.00
C126   C     0.24645   0.65150   0.88980   0.01267  Uiso   1.00
C127   C     0.08511   0.69442   0.94860   0.01267  Uiso   1.00
C128   C     0.05153   0.41946   0.91010   0.01267  Uiso   1.00
N1     N     0.73637   0.90854   0.41480   0.01267  Uiso   1.00
N2     N     0.64920   0.46520   0.31400   0.01267  Uiso   1.00
N3     N     0.74238   0.96156   0.56750   0.01267  Uiso   1.00
N4     N     0.20417   0.61354   0.33240   0.01267  Uiso   1.00
N5     N     0.82783   0.09146   0.08520   0.01267  Uiso   1.00
N6     N     0.18400   0.53480   0.18600   0.01267  Uiso   1.00
N7     N     0.78082   0.03844   0.93250   0.01267  Uiso   1.00
N8     N     0.59063   0.38646   0.16760   0.01267  Uiso   1.00
N9     N     0.26363   0.09146   0.58520   0.01267  Uiso   1.00
N10    N     0.35080   0.53480   0.68600   0.01267  Uiso   1.00
N11    N     0.25762   0.03844   0.43250   0.01267  Uiso   1.00
N12    N     0.79583   0.38646   0.66760   0.01267  Uiso   1.00
N13    N     0.17217   0.90854   0.91480   0.01267  Uiso   1.00
N14    N     0.81600   0.46520   0.81400   0.01267  Uiso   1.00
N15    N     0.21918   0.96156   0.06750   0.01267  Uiso   1.00
N16    N     0.40937   0.61354   0.83240   0.01267  Uiso   1.00
O1     O     0.34939   0.75358   0.28950   0.01267  Uiso   1.00
O2     O     0.23965   0.83310   0.27350   0.01267  Uiso   1.00
O3     O     0.44655   0.10850   0.33870   0.01267  Uiso   1.00
O4     O     0.65537   0.14694   0.33970   0.01267  Uiso   1.00
O5     O     0.05523   0.64366   0.24510   0.01267  Uiso   1.00
O6     O     0.00401   0.73282   0.19770   0.01267  Uiso   1.00
O7     O     0.54870   0.70540   0.16800   0.01267  Uiso   1.00
O8     O     0.41561   0.63222   0.23110   0.01267  Uiso   1.00
O9     O     0.48784   0.12268   0.49770   0.01267  Uiso   1.00
O10    O     0.61695   0.22190   0.45710   0.01267  Uiso   1.00
O11    O     0.07241   0.22002   0.43710   0.01267  Uiso   1.00
O12    O     0.13026   0.14332   0.49630   0.01267  Uiso   1.00
O13    O     0.60481   0.76102   0.44760   0.01267  Uiso   1.00
O14    O     0.69557   0.67654   0.47490   0.01267  Uiso   1.00
O15    O     0.46094   0.39608   0.41540   0.01267  Uiso   1.00
O16    O     0.25561   0.37662   0.40940   0.01267  Uiso   1.00
O17    O     0.25474   0.71248   0.16260   0.01267  Uiso   1.00
O18    O     0.14348   0.79116   0.08220   0.01267  Uiso   1.00
O19    O     0.59581   0.24642   0.21050   0.01267  Uiso   1.00
O20    O     0.40655   0.16690   0.22650   0.01267  Uiso   1.00
O21    O     0.33805   0.89150   0.16130   0.01267  Uiso   1.00
O22    O     0.50843   0.85306   0.16030   0.01267  Uiso   1.00
O23    O     0.41157   0.35634   0.25490   0.01267  Uiso   1.00
O24    O     0.27119   0.26718   0.30230   0.01267  Uiso   1.00
O25    O     0.84330   0.29460   0.33200   0.01267  Uiso   1.00
O26    O     0.78339   0.36778   0.26890   0.01267  Uiso   1.00
O27    O     0.36516   0.87732   0.00230   0.01267  Uiso   1.00
O28    O     0.39505   0.77810   0.04290   0.01267  Uiso   1.00
O29    O     0.85239   0.77998   0.06290   0.01267  Uiso   1.00
O30    O     0.98694   0.85668   0.00370   0.01267  Uiso   1.00
O31    O     0.84379   0.23898   0.05240   0.01267  Uiso   1.00
O32    O     0.01903   0.32346   0.02510   0.01267  Uiso   1.00
O33    O     0.06486   0.60392   0.08460   0.01267  Uiso   1.00
O34    O     0.87899   0.62338   0.09060   0.01267  Uiso   1.00
O35    O     0.54226   0.28752   0.33740   0.01267  Uiso   1.00
O36    O     0.35232   0.20884   0.41780   0.01267  Uiso   1.00
O37    O     0.65061   0.24642   0.71050   0.01267  Uiso   1.00
O38    O     0.76035   0.16690   0.72650   0.01267  Uiso   1.00
O39    O     0.55345   0.89150   0.66130   0.01267  Uiso   1.00
O40    O     0.34463   0.85306   0.66030   0.01267  Uiso   1.00
O41    O     0.94477   0.35634   0.75490   0.01267  Uiso   1.00
O42    O     0.99599   0.26718   0.80230   0.01267  Uiso   1.00
O43    O     0.45130   0.29460   0.83200   0.01267  Uiso   1.00
O44    O     0.58439   0.36778   0.76890   0.01267  Uiso   1.00
O45    O     0.51216   0.87732   0.50230   0.01267  Uiso   1.00
O46    O     0.38305   0.77810   0.54290   0.01267  Uiso   1.00
O47    O     0.92759   0.77998   0.56290   0.01267  Uiso   1.00
O48    O     0.86974   0.85668   0.50370   0.01267  Uiso   1.00
O49    O     0.39519   0.23898   0.55240   0.01267  Uiso   1.00
O50    O     0.30443   0.32346   0.52510   0.01267  Uiso   1.00
O51    O     0.53906   0.60392   0.58460   0.01267  Uiso   1.00
O52    O     0.74439   0.62338   0.59060   0.01267  Uiso   1.00
O53    O     0.74526   0.28752   0.83740   0.01267  Uiso   1.00
O54    O     0.85652   0.20884   0.91780   0.01267  Uiso   1.00
O55    O     0.40419   0.75358   0.78950   0.01267  Uiso   1.00
O56    O     0.59345   0.83310   0.77350   0.01267  Uiso   1.00
O57    O     0.66195   0.10850   0.83870   0.01267  Uiso   1.00
O58    O     0.49157   0.14694   0.83970   0.01267  Uiso   1.00
O59    O     0.58843   0.64366   0.74510   0.01267  Uiso   1.00
O60    O     0.72881   0.73282   0.69770   0.01267  Uiso   1.00
O61    O     0.15670   0.70540   0.66800   0.01267  Uiso   1.00
O62    O     0.21661   0.63222   0.73110   0.01267  Uiso   1.00
O63    O     0.63484   0.12268   0.99770   0.01267  Uiso   1.00
O64    O     0.60495   0.22190   0.95710   0.01267  Uiso   1.00
O65    O     0.14761   0.22002   0.93710   0.01267  Uiso   1.00
O66    O     0.01306   0.14332   0.99630   0.01267  Uiso   1.00
O67    O     0.15621   0.76102   0.94760   0.01267  Uiso   1.00
O68    O     0.98097   0.67654   0.97490   0.01267  Uiso   1.00
O69    O     0.93514   0.39608   0.91540   0.01267  Uiso   1.00
O70    O     0.12101   0.37662   0.90940   0.01267  Uiso   1.00
O71    O     0.45774   0.71248   0.66260   0.01267  Uiso   1.00
O72    O     0.64768   0.79116   0.58220   0.01267  Uiso   1.00
