data_OGURAK_charged
_audit_creation_date              2014-07-02
_audit_creation_method            'Materials Studio'
_symmetry_space_group_name_H-M    'P1'
_symmetry_Int_Tables_number       1
_symmetry_cell_setting            triclinic
loop_
_symmetry_equiv_pos_as_xyz
  x,y,z
_cell_length_a                    13.1780
_cell_length_b                    13.1790
_cell_length_c                    13.8779
_cell_angle_alpha                 118.3480
_cell_angle_beta                  118.3450
_cell_angle_gamma                 89.9999
loop_
_atom_site_label
_atom_site_type_symbol
_atom_site_fract_x
_atom_site_fract_y
_atom_site_fract_z
_atom_site_U_iso_or_equiv
_atom_site_adp_type
_atom_site_occupancy
Cu1    Cu    0.91059   0.71542   0.82118   0.01267  Uiso   1.00
Cu2    Cu    0.91059   0.10576   0.82118   0.01267  Uiso   1.00
Cu3    Cu    0.10571   0.91055   0.82110   0.01267  Uiso   1.00
Cu4    Cu    0.71539   0.91055   0.82110   0.01267  Uiso   1.00
H1     H     0.76430   0.29250   0.26720   0.01267  Uiso   1.00
H2     H     0.97610   0.50240   0.26820   0.01267  Uiso   1.00
H3     H     0.83540   0.42830   0.47640   0.01267  Uiso   1.00
H4     H     0.05330   0.64030   0.47820   0.01267  Uiso   1.00
H5     H     0.50290   0.97470   0.26720   0.01267  Uiso   1.00
H6     H     0.29210   0.76580   0.26820   0.01267  Uiso   1.00
H7     H     0.64100   0.04810   0.47640   0.01267  Uiso   1.00
H8     H     0.42490   0.83790   0.47820   0.01267  Uiso   1.00
H9     H     0.50290   0.29250   0.26720   0.01267  Uiso   1.00
H10    H     0.29210   0.50240   0.26820   0.01267  Uiso   1.00
H11    H     0.64100   0.42830   0.47640   0.01267  Uiso   1.00
H12    H     0.42490   0.64030   0.47820   0.01267  Uiso   1.00
H13    H     0.76430   0.97470   0.26720   0.01267  Uiso   1.00
H14    H     0.97610   0.76580   0.26820   0.01267  Uiso   1.00
H15    H     0.83540   0.04810   0.47640   0.01267  Uiso   1.00
H16    H     0.05330   0.83790   0.47820   0.01267  Uiso   1.00
C1     C     0.87040   0.26630   0.13720   0.01267  Uiso   1.00
C2     C     0.98830   0.64550   0.63340   0.01267  Uiso   1.00
C3     C     0.88940   0.36100   0.25120   0.01267  Uiso   1.00
C4     C     0.83340   0.35830   0.31440   0.01267  Uiso   1.00
C5     C     0.95750   0.48110   0.31560   0.01267  Uiso   1.00
C6     C     0.87160   0.44340   0.43760   0.01267  Uiso   1.00
C7     C     0.99730   0.56630   0.43860   0.01267  Uiso   1.00
C8     C     0.96060   0.55240   0.51300   0.01267  Uiso   1.00
C9     C     0.26680   0.87090   0.13720   0.01267  Uiso   1.00
C10    C     0.64510   0.98790   0.63340   0.01267  Uiso   1.00
C11    C     0.36180   0.89020   0.25120   0.01267  Uiso   1.00
C12    C     0.48100   0.95610   0.31440   0.01267  Uiso   1.00
C13    C     0.35810   0.83450   0.31560   0.01267  Uiso   1.00
C14    C     0.56600   0.99420   0.43760   0.01267  Uiso   1.00
C15    C     0.44130   0.87230   0.43860   0.01267  Uiso   1.00
C16    C     0.55240   0.96060   0.51300   0.01267  Uiso   1.00
C17    C     0.26680   0.26630   0.13720   0.01267  Uiso   1.00
C18    C     0.64510   0.64550   0.63340   0.01267  Uiso   1.00
C19    C     0.36180   0.36100   0.25120   0.01267  Uiso   1.00
C20    C     0.48100   0.35830   0.31440   0.01267  Uiso   1.00
C21    C     0.35810   0.48110   0.31560   0.01267  Uiso   1.00
C22    C     0.56600   0.44340   0.43760   0.01267  Uiso   1.00
C23    C     0.44130   0.56630   0.43860   0.01267  Uiso   1.00
C24    C     0.55240   0.55240   0.51300   0.01267  Uiso   1.00
C25    C     0.87040   0.87090   0.13720   0.01267  Uiso   1.00
C26    C     0.98830   0.98790   0.63340   0.01267  Uiso   1.00
C27    C     0.88940   0.89020   0.25120   0.01267  Uiso   1.00
C28    C     0.83340   0.95610   0.31440   0.01267  Uiso   1.00
C29    C     0.95750   0.83450   0.31560   0.01267  Uiso   1.00
C30    C     0.87160   0.99420   0.43760   0.01267  Uiso   1.00
C31    C     0.99730   0.87230   0.43860   0.01267  Uiso   1.00
C32    C     0.96060   0.96060   0.51300   0.01267  Uiso   1.00
N1     N     0.79290   0.09270   0.96040   0.01267  Uiso   1.00
N2     N     0.86800   0.16530   0.95980   0.01267  Uiso   1.00
N3     N     0.79023   0.15263   0.06106   0.01267  Uiso   1.00
N4     N     0.90941   0.26991   0.06102   0.01267  Uiso   1.00
N5     N     0.16750   0.86770   0.96040   0.01267  Uiso   1.00
N6     N     0.09180   0.79450   0.95980   0.01267  Uiso   1.00
N7     N     0.27083   0.90843   0.06106   0.01267  Uiso   1.00
N8     N     0.15161   0.79111   0.06102   0.01267  Uiso   1.00
N9     N     0.16750   0.09270   0.96040   0.01267  Uiso   1.00
N10    N     0.09180   0.16530   0.95980   0.01267  Uiso   1.00
N11    N     0.27083   0.15263   0.06106   0.01267  Uiso   1.00
N12    N     0.15161   0.26991   0.06102   0.01267  Uiso   1.00
N13    N     0.79290   0.86770   0.96040   0.01267  Uiso   1.00
N14    N     0.86800   0.79450   0.95980   0.01267  Uiso   1.00
N15    N     0.79023   0.90843   0.06106   0.01267  Uiso   1.00
N16    N     0.90941   0.79111   0.06102   0.01267  Uiso   1.00
Cl1    Cl    0.90222   0.90222   0.80444   0.01267  Uiso   1.00
O1     O     0.93870   0.63020   0.68320   0.01267  Uiso   1.00
O2     O     0.05270   0.74580   0.68420   0.01267  Uiso   1.00
O3     O     0.74450   0.05300   0.68320   0.01267  Uiso   1.00
O4     O     0.63150   0.93840   0.68420   0.01267  Uiso   1.00
O5     O     0.74450   0.63020   0.68320   0.01267  Uiso   1.00
O6     O     0.63150   0.74580   0.68420   0.01267  Uiso   1.00
O7     O     0.93870   0.05300   0.68320   0.01267  Uiso   1.00
O8     O     0.05270   0.93840   0.68420   0.01267  Uiso   1.00
