data_image0
_cell_length_a       5.459
_cell_length_b       18.467
_cell_length_c       11.634
_cell_angle_alpha    90
_cell_angle_beta     94.86
_cell_angle_gamma    90

_symmetry_space_group_name_H-M    "P 1"
_symmetry_int_tables_number       1

loop_
  _symmetry_equiv_pos_as_xyz
  'x, y, z'

loop_
  _atom_site_label
  _atom_site_occupancy
  _atom_site_fract_x
  _atom_site_fract_y
  _atom_site_fract_z
  _atom_site_thermal_displace_type
  _atom_site_B_iso_or_equiv
  _atom_site_type_symbol
  Ag1      1.0000 0.20849  0.04623  0.49247  Biso   1.000  Ag
  C1       1.0000 0.24130  0.88000  0.42660  Biso   1.000  C
  C2       1.0000 0.38840  0.82120  0.37240  Biso   1.000  C
  H1       1.0000 0.42780  0.83660  0.29640  Biso   1.000  H
  H2       1.0000 0.54180  0.81360  0.41930  Biso   1.000  H
  C3       1.0000 0.37800  0.69680  0.29650  Biso   1.000  C
  H3       1.0000 0.55220  0.69730  0.32130  Biso   1.000  H
  H4       1.0000 0.35960  0.70900  0.21510  Biso   1.000  H
  C4       1.0000 0.27690  0.62090  0.31310  Biso   1.000  C
  H5       1.0000 0.39030  0.58600  0.28520  Biso   1.000  H
  H6       1.0000 0.26880  0.61230  0.39500  Biso   1.000  H
  C5       1.0000 0.03300  0.60890  0.25360  Biso   1.000  C
  N1       1.0000 0.25230  0.75255  0.36180  Biso   1.000  N
  H7       1.0000 0.09200  0.76140  0.32390  Biso   1.000  H
  H8       1.0000 0.23130  0.73429  0.43760  Biso   1.000  H
  N2       1.0000 0.84570  0.59740  0.20770  Biso   1.000  N
  O1       1.0000 0.02110  0.86869  0.43410  Biso   1.000  O
  O2       1.0000 0.35820  0.93644  0.45580  Biso   1.000  O
  Ag2      1.0000 0.79151  0.95377  0.50753  Biso   1.000  Ag
  C6       1.0000 0.75870  0.12000  0.57340  Biso   1.000  C
  C7       1.0000 0.61160  0.17880  0.62760  Biso   1.000  C
  H9       1.0000 0.57220  0.16340  0.70360  Biso   1.000  H
  H10      1.0000 0.45820  0.18640  0.58070  Biso   1.000  H
  C8       1.0000 0.62200  0.30320  0.70350  Biso   1.000  C
  H11      1.0000 0.44780  0.30270  0.67870  Biso   1.000  H
  H12      1.0000 0.64040  0.29100  0.78490  Biso   1.000  H
  C9       1.0000 0.72310  0.37910  0.68690  Biso   1.000  C
  H13      1.0000 0.60970  0.41400  0.71480  Biso   1.000  H
  H14      1.0000 0.73120  0.38770  0.60500  Biso   1.000  H
  C10      1.0000 0.96700  0.39110  0.74640  Biso   1.000  C
  N3       1.0000 0.74770  0.24745  0.63820  Biso   1.000  N
  H15      1.0000 0.90800  0.23860  0.67610  Biso   1.000  H
  H16      1.0000 0.76870  0.26571  0.56240  Biso   1.000  H
  N4       1.0000 0.15430  0.40260  0.79230  Biso   1.000  N
  O3       1.0000 0.97890  0.13131  0.56590  Biso   1.000  O
  O4       1.0000 0.64180  0.06356  0.54420  Biso   1.000  O
  C11      1.0000 0.75870  0.38000  0.07340  Biso   1.000  C
  C12      1.0000 0.61160  0.32120  0.12760  Biso   1.000  C
  H17      1.0000 0.57220  0.33660  0.20360  Biso   1.000  H
  H18      1.0000 0.45820  0.31360  0.08070  Biso   1.000  H
  C13      1.0000 0.62200  0.19680  0.20350  Biso   1.000  C
  H19      1.0000 0.44780  0.19730  0.17870  Biso   1.000  H
  H20      1.0000 0.64040  0.20900  0.28490  Biso   1.000  H
  C14      1.0000 0.72310  0.12090  0.18690  Biso   1.000  C
  H21      1.0000 0.60970  0.08600  0.21480  Biso   1.000  H
  H22      1.0000 0.73120  0.11230  0.10500  Biso   1.000  H
  C15      1.0000 0.96700  0.10890  0.24640  Biso   1.000  C
  N5       1.0000 0.74770  0.25255  0.13820  Biso   1.000  N
  H23      1.0000 0.90800  0.26140  0.17610  Biso   1.000  H
  H24      1.0000 0.76870  0.23429  0.06240  Biso   1.000  H
  N6       1.0000 0.15430  0.09740  0.29230  Biso   1.000  N
  O5       1.0000 0.97890  0.36869  0.06590  Biso   1.000  O
  O6       1.0000 0.64180  0.43644  0.04420  Biso   1.000  O
  Ag3      1.0000 0.79151  0.54623  0.00753  Biso   1.000  Ag
  C16      1.0000 0.24130  0.62000  0.92660  Biso   1.000  C
  C17      1.0000 0.38840  0.67880  0.87240  Biso   1.000  C
  H25      1.0000 0.42780  0.66340  0.79640  Biso   1.000  H
  H26      1.0000 0.54180  0.68640  0.91930  Biso   1.000  H
  C18      1.0000 0.37800  0.80320  0.79650  Biso   1.000  C
  H27      1.0000 0.55220  0.80270  0.82130  Biso   1.000  H
  H28      1.0000 0.35960  0.79100  0.71510  Biso   1.000  H
  C19      1.0000 0.27690  0.87910  0.81310  Biso   1.000  C
  H29      1.0000 0.39030  0.91400  0.78520  Biso   1.000  H
  H30      1.0000 0.26880  0.88770  0.89500  Biso   1.000  H
  C20      1.0000 0.03300  0.89110  0.75360  Biso   1.000  C
  N7       1.0000 0.25230  0.74745  0.86180  Biso   1.000  N
  H31      1.0000 0.09200  0.73860  0.82390  Biso   1.000  H
  H32      1.0000 0.23130  0.76571  0.93760  Biso   1.000  H
  N8       1.0000 0.84570  0.90260  0.70770  Biso   1.000  N
  O7       1.0000 0.02110  0.63131  0.93410  Biso   1.000  O
  O8       1.0000 0.35820  0.56356  0.95580  Biso   1.000  O
  Ag4      1.0000 0.20849  0.45377  0.99247  Biso   1.000  Ag
