data_image0
_cell_length_a       10.158
_cell_length_b       13.269
_cell_length_c       14.47
_cell_angle_alpha    90
_cell_angle_beta     90
_cell_angle_gamma    90

_symmetry_space_group_name_H-M    "P 1"
_symmetry_int_tables_number       1

loop_
  _symmetry_equiv_pos_as_xyz
  'x, y, z'

loop_
  _atom_site_label
  _atom_site_occupancy
  _atom_site_fract_x
  _atom_site_fract_y
  _atom_site_fract_z
  _atom_site_thermal_displace_type
  _atom_site_B_iso_or_equiv
  _atom_site_type_symbol
  La1      1.0000 0.00135  0.84236  0.69621  Biso   1.000  La
  O1       1.0000 0.22520  0.97400  0.68860  Biso   1.000  O
  O2       1.0000 0.06630  0.99710  0.79230  Biso   1.000  O
  O3       1.0000 0.34070  0.28760  0.08290  Biso   1.000  O
  O4       1.0000 0.15350  0.20450  0.07200  Biso   1.000  O
  O5       1.0000 0.84510  0.80360  0.81950  Biso   1.000  O
  O6       1.0000 0.65930  0.71570  0.81170  Biso   1.000  O
  O7       1.0000 0.53790  0.49770  0.08770  Biso   1.000  O
  O8       1.0000 0.68770  0.48210  0.19660  Biso   1.000  O
  C1       1.0000 0.26150  0.09470  0.80990  Biso   1.000  C
  C2       1.0000 0.22460  0.12670  0.89780  Biso   1.000  C
  H1       1.0000 0.14740  0.10250  0.92430  Biso   1.000  H
  C3       1.0000 0.30230  0.19450  0.94620  Biso   1.000  C
  C4       1.0000 0.41780  0.22990  0.90670  Biso   1.000  C
  H2       1.0000 0.47150  0.27390  0.93950  Biso   1.000  H
  C5       1.0000 0.45320  0.19990  0.81860  Biso   1.000  C
  H3       1.0000 0.52970  0.22520  0.79200  Biso   1.000  H
  C6       1.0000 0.37640  0.13320  0.77030  Biso   1.000  C
  H4       1.0000 0.40080  0.11350  0.71100  Biso   1.000  H
  C7       1.0000 0.17840  0.01760  0.76130  Biso   1.000  C
  C8       1.0000 0.26210  0.23150  0.04180  Biso   1.000  C
  C9       1.0000 0.77600  0.71740  0.95310  Biso   1.000  C
  C10      1.0000 0.70210  0.64010  0.99180  Biso   1.000  C
  H5       1.0000 0.63970  0.60720  0.95590  Biso   1.000  H
  C11      1.0000 0.71960  0.61100  0.08340  Biso   1.000  C
  C12      1.0000 0.80930  0.66430  0.13760  Biso   1.000  C
  H6       1.0000 0.81980  0.64720  0.19950  Biso   1.000  H
  C13      1.0000 0.88240  0.74160  0.10090  Biso   1.000  C
  H7       1.0000 0.94280  0.77570  0.13770  Biso   1.000  H
  C14      1.0000 0.86620  0.76920  0.00860  Biso   1.000  C
  H8       1.0000 0.91520  0.82200  0.98400  Biso   1.000  H
  C15      1.0000 0.75800  0.74640  0.85410  Biso   1.000  C
  C16      1.0000 0.64420  0.52500  0.12590  Biso   1.000  C
  La2      1.0000 0.99865  0.15764  0.19621  Biso   1.000  La
  O9       1.0000 0.77480  0.02600  0.18860  Biso   1.000  O
  O10      1.0000 0.93370  0.00290  0.29230  Biso   1.000  O
  O11      1.0000 0.65930  0.71240  0.58290  Biso   1.000  O
  O12      1.0000 0.84650  0.79550  0.57200  Biso   1.000  O
  O13      1.0000 0.15490  0.19640  0.31950  Biso   1.000  O
  O14      1.0000 0.34070  0.28430  0.31170  Biso   1.000  O
  O15      1.0000 0.46210  0.50230  0.58770  Biso   1.000  O
  O16      1.0000 0.31230  0.51790  0.69660  Biso   1.000  O
  C17      1.0000 0.73850  0.90530  0.30990  Biso   1.000  C
  C18      1.0000 0.77540  0.87330  0.39780  Biso   1.000  C
  H9       1.0000 0.85260  0.89750  0.42430  Biso   1.000  H
  C19      1.0000 0.69770  0.80550  0.44620  Biso   1.000  C
  C20      1.0000 0.58220  0.77010  0.40670  Biso   1.000  C
  H10      1.0000 0.52850  0.72610  0.43950  Biso   1.000  H
  C21      1.0000 0.54680  0.80010  0.31860  Biso   1.000  C
  H11      1.0000 0.47030  0.77480  0.29200  Biso   1.000  H
  C22      1.0000 0.62360  0.86680  0.27030  Biso   1.000  C
  H12      1.0000 0.59920  0.88650  0.21100  Biso   1.000  H
  C23      1.0000 0.82160  0.98240  0.26130  Biso   1.000  C
  C24      1.0000 0.73790  0.76850  0.54180  Biso   1.000  C
  C25      1.0000 0.22400  0.28260  0.45310  Biso   1.000  C
  C26      1.0000 0.29790  0.35990  0.49180  Biso   1.000  C
  H13      1.0000 0.36030  0.39280  0.45590  Biso   1.000  H
  C27      1.0000 0.28040  0.38900  0.58340  Biso   1.000  C
  C28      1.0000 0.19070  0.33570  0.63760  Biso   1.000  C
  H14      1.0000 0.18020  0.35280  0.69950  Biso   1.000  H
  C29      1.0000 0.11760  0.25840  0.60090  Biso   1.000  C
  H15      1.0000 0.05720  0.22430  0.63770  Biso   1.000  H
  C30      1.0000 0.13380  0.23080  0.50860  Biso   1.000  C
  H16      1.0000 0.08480  0.17800  0.48400  Biso   1.000  H
  C31      1.0000 0.24200  0.25360  0.35410  Biso   1.000  C
  C32      1.0000 0.35580  0.47500  0.62590  Biso   1.000  C
  La3      1.0000 0.50135  0.65764  0.69621  Biso   1.000  La
  O17      1.0000 0.72520  0.52600  0.68860  Biso   1.000  O
  O18      1.0000 0.56630  0.50290  0.79230  Biso   1.000  O
  O19      1.0000 0.84070  0.21240  0.08290  Biso   1.000  O
  O20      1.0000 0.65350  0.29550  0.07200  Biso   1.000  O
  O21      1.0000 0.34510  0.69640  0.81950  Biso   1.000  O
  O22      1.0000 0.15930  0.78430  0.81170  Biso   1.000  O
  O23      1.0000 0.03790  0.00230  0.08770  Biso   1.000  O
  O24      1.0000 0.18770  0.01790  0.19660  Biso   1.000  O
  C33      1.0000 0.76150  0.40530  0.80990  Biso   1.000  C
  C34      1.0000 0.72460  0.37330  0.89780  Biso   1.000  C
  H17      1.0000 0.64740  0.39750  0.92430  Biso   1.000  H
  C35      1.0000 0.80230  0.30550  0.94620  Biso   1.000  C
  C36      1.0000 0.91780  0.27010  0.90670  Biso   1.000  C
  H18      1.0000 0.97150  0.22610  0.93950  Biso   1.000  H
  C37      1.0000 0.95320  0.30010  0.81860  Biso   1.000  C
  H19      1.0000 0.02970  0.27480  0.79200  Biso   1.000  H
  C38      1.0000 0.87640  0.36680  0.77030  Biso   1.000  C
  H20      1.0000 0.90080  0.38650  0.71100  Biso   1.000  H
  C39      1.0000 0.67840  0.48240  0.76130  Biso   1.000  C
  C40      1.0000 0.76210  0.26850  0.04180  Biso   1.000  C
  C41      1.0000 0.27600  0.78260  0.95310  Biso   1.000  C
  C42      1.0000 0.20210  0.85990  0.99180  Biso   1.000  C
  H21      1.0000 0.13970  0.89280  0.95590  Biso   1.000  H
  C43      1.0000 0.21960  0.88900  0.08340  Biso   1.000  C
  C44      1.0000 0.30930  0.83570  0.13760  Biso   1.000  C
  H22      1.0000 0.31980  0.85280  0.19950  Biso   1.000  H
  C45      1.0000 0.38240  0.75840  0.10090  Biso   1.000  C
  H23      1.0000 0.44280  0.72430  0.13770  Biso   1.000  H
  C46      1.0000 0.36620  0.73080  0.00860  Biso   1.000  C
  H24      1.0000 0.41520  0.67800  0.98400  Biso   1.000  H
  C47      1.0000 0.25800  0.75360  0.85410  Biso   1.000  C
  C48      1.0000 0.14420  0.97500  0.12590  Biso   1.000  C
  La4      1.0000 0.49865  0.34236  0.19621  Biso   1.000  La
  O25      1.0000 0.27480  0.47400  0.18860  Biso   1.000  O
  O26      1.0000 0.43370  0.49710  0.29230  Biso   1.000  O
  O27      1.0000 0.15930  0.78760  0.58290  Biso   1.000  O
  O28      1.0000 0.34650  0.70450  0.57200  Biso   1.000  O
  O29      1.0000 0.65490  0.30360  0.31950  Biso   1.000  O
  O30      1.0000 0.84070  0.21570  0.31170  Biso   1.000  O
  O31      1.0000 0.96210  0.99770  0.58770  Biso   1.000  O
  O32      1.0000 0.81230  0.98210  0.69660  Biso   1.000  O
  C49      1.0000 0.23850  0.59470  0.30990  Biso   1.000  C
  C50      1.0000 0.27540  0.62670  0.39780  Biso   1.000  C
  H25      1.0000 0.35260  0.60250  0.42430  Biso   1.000  H
  C51      1.0000 0.19770  0.69450  0.44620  Biso   1.000  C
  C52      1.0000 0.08220  0.72990  0.40670  Biso   1.000  C
  H26      1.0000 0.02850  0.77390  0.43950  Biso   1.000  H
  C53      1.0000 0.04680  0.69990  0.31860  Biso   1.000  C
  H27      1.0000 0.97030  0.72520  0.29200  Biso   1.000  H
  C54      1.0000 0.12360  0.63320  0.27030  Biso   1.000  C
  H28      1.0000 0.09920  0.61350  0.21100  Biso   1.000  H
  C55      1.0000 0.32160  0.51760  0.26130  Biso   1.000  C
  C56      1.0000 0.23790  0.73150  0.54180  Biso   1.000  C
  C57      1.0000 0.72400  0.21740  0.45310  Biso   1.000  C
  C58      1.0000 0.79790  0.14010  0.49180  Biso   1.000  C
  H29      1.0000 0.86030  0.10720  0.45590  Biso   1.000  H
  C59      1.0000 0.78040  0.11100  0.58340  Biso   1.000  C
  C60      1.0000 0.69070  0.16430  0.63760  Biso   1.000  C
  H30      1.0000 0.68020  0.14720  0.69950  Biso   1.000  H
  C61      1.0000 0.61760  0.24160  0.60090  Biso   1.000  C
  H31      1.0000 0.55720  0.27570  0.63770  Biso   1.000  H
  C62      1.0000 0.63380  0.26920  0.50860  Biso   1.000  C
  H32      1.0000 0.58480  0.32200  0.48400  Biso   1.000  H
  C63      1.0000 0.74200  0.24640  0.35410  Biso   1.000  C
  C64      1.0000 0.85580  0.02500  0.62590  Biso   1.000  C
