data_image0
_cell_length_a       9.987
_cell_length_b       13.172
_cell_length_c       14.29
_cell_angle_alpha    90
_cell_angle_beta     90
_cell_angle_gamma    90

_symmetry_space_group_name_H-M    "P 1"
_symmetry_int_tables_number       1

loop_
  _symmetry_equiv_pos_as_xyz
  'x, y, z'

loop_
  _atom_site_label
  _atom_site_occupancy
  _atom_site_fract_x
  _atom_site_fract_y
  _atom_site_fract_z
  _atom_site_thermal_displace_type
  _atom_site_B_iso_or_equiv
  _atom_site_type_symbol
  Tb1      1.0000 0.00089  0.84388  0.69639  Biso   1.000  Tb
  O1       1.0000 0.22910  0.97190  0.68900  Biso   1.000  O
  O2       1.0000 0.06730  0.99330  0.79250  Biso   1.000  O
  O3       1.0000 0.34530  0.28860  0.08480  Biso   1.000  O
  O4       1.0000 0.15540  0.20350  0.07770  Biso   1.000  O
  O5       1.0000 0.84710  0.80410  0.81570  Biso   1.000  O
  O6       1.0000 0.65920  0.71490  0.80500  Biso   1.000  O
  O7       1.0000 0.52990  0.49360  0.08580  Biso   1.000  O
  O8       1.0000 0.68230  0.48080  0.19630  Biso   1.000  O
  C1       1.0000 0.26490  0.09240  0.81140  Biso   1.000  C
  C2       1.0000 0.22670  0.12470  0.90100  Biso   1.000  C
  H1       1.0000 0.14770  0.10100  0.92760  Biso   1.000  H
  C3       1.0000 0.30700  0.19200  0.94950  Biso   1.000  C
  C4       1.0000 0.42330  0.22690  0.90990  Biso   1.000  C
  H2       1.0000 0.47790  0.27120  0.94330  Biso   1.000  H
  C5       1.0000 0.45960  0.19720  0.82170  Biso   1.000  C
  H3       1.0000 0.53780  0.22230  0.79500  Biso   1.000  H
  C6       1.0000 0.38050  0.13030  0.77210  Biso   1.000  C
  H4       1.0000 0.40520  0.11070  0.71200  Biso   1.000  H
  C7       1.0000 0.18180  0.01480  0.76060  Biso   1.000  C
  C8       1.0000 0.26640  0.22950  0.04700  Biso   1.000  C
  C9       1.0000 0.77170  0.71870  0.95050  Biso   1.000  C
  C10      1.0000 0.69560  0.63940  0.98990  Biso   1.000  C
  H5       1.0000 0.63410  0.60460  0.95300  Biso   1.000  H
  C11      1.0000 0.71150  0.61270  0.08250  Biso   1.000  C
  C12      1.0000 0.79720  0.66760  0.13820  Biso   1.000  C
  H6       1.0000 0.80590  0.65030  0.20100  Biso   1.000  H
  C13      1.0000 0.87130  0.74850  0.10300  Biso   1.000  C
  H7       1.0000 0.92910  0.78490  0.14140  Biso   1.000  H
  C14      1.0000 0.85710  0.77350  0.00960  Biso   1.000  C
  H8       1.0000 0.90530  0.82790  0.98540  Biso   1.000  H
  C15      1.0000 0.75720  0.74770  0.85210  Biso   1.000  C
  C16      1.0000 0.63690  0.52350  0.12500  Biso   1.000  C
  Tb2      1.0000 0.99911  0.15612  0.19639  Biso   1.000  Tb
  O9       1.0000 0.77090  0.02810  0.18900  Biso   1.000  O
  O10      1.0000 0.93270  0.00670  0.29250  Biso   1.000  O
  O11      1.0000 0.65470  0.71140  0.58480  Biso   1.000  O
  O12      1.0000 0.84460  0.79650  0.57770  Biso   1.000  O
  O13      1.0000 0.15290  0.19590  0.31570  Biso   1.000  O
  O14      1.0000 0.34080  0.28510  0.30500  Biso   1.000  O
  O15      1.0000 0.47010  0.50640  0.58580  Biso   1.000  O
  O16      1.0000 0.31770  0.51920  0.69630  Biso   1.000  O
  C17      1.0000 0.73510  0.90760  0.31140  Biso   1.000  C
  C18      1.0000 0.77330  0.87530  0.40100  Biso   1.000  C
  H9       1.0000 0.85230  0.89900  0.42760  Biso   1.000  H
  C19      1.0000 0.69300  0.80800  0.44950  Biso   1.000  C
  C20      1.0000 0.57670  0.77310  0.40990  Biso   1.000  C
  H10      1.0000 0.52210  0.72880  0.44330  Biso   1.000  H
  C21      1.0000 0.54040  0.80280  0.32170  Biso   1.000  C
  H11      1.0000 0.46220  0.77770  0.29500  Biso   1.000  H
  C22      1.0000 0.61950  0.86970  0.27210  Biso   1.000  C
  H12      1.0000 0.59480  0.88930  0.21200  Biso   1.000  H
  C23      1.0000 0.81820  0.98520  0.26060  Biso   1.000  C
  C24      1.0000 0.73360  0.77050  0.54700  Biso   1.000  C
  C25      1.0000 0.22830  0.28130  0.45050  Biso   1.000  C
  C26      1.0000 0.30440  0.36060  0.48990  Biso   1.000  C
  H13      1.0000 0.36590  0.39540  0.45300  Biso   1.000  H
  C27      1.0000 0.28850  0.38730  0.58250  Biso   1.000  C
  C28      1.0000 0.20280  0.33240  0.63820  Biso   1.000  C
  H14      1.0000 0.19410  0.34970  0.70100  Biso   1.000  H
  C29      1.0000 0.12870  0.25150  0.60300  Biso   1.000  C
  H15      1.0000 0.07090  0.21510  0.64140  Biso   1.000  H
  C30      1.0000 0.14290  0.22650  0.50960  Biso   1.000  C
  H16      1.0000 0.09470  0.17210  0.48540  Biso   1.000  H
  C31      1.0000 0.24280  0.25230  0.35210  Biso   1.000  C
  C32      1.0000 0.36310  0.47650  0.62500  Biso   1.000  C
  Tb3      1.0000 0.50089  0.65612  0.69639  Biso   1.000  Tb
  O17      1.0000 0.72910  0.52810  0.68900  Biso   1.000  O
  O18      1.0000 0.56730  0.50670  0.79250  Biso   1.000  O
  O19      1.0000 0.84530  0.21140  0.08480  Biso   1.000  O
  O20      1.0000 0.65540  0.29650  0.07770  Biso   1.000  O
  O21      1.0000 0.34710  0.69590  0.81570  Biso   1.000  O
  O22      1.0000 0.15920  0.78510  0.80500  Biso   1.000  O
  O23      1.0000 0.02990  0.00640  0.08580  Biso   1.000  O
  O24      1.0000 0.18230  0.01920  0.19630  Biso   1.000  O
  C33      1.0000 0.76490  0.40760  0.81140  Biso   1.000  C
  C34      1.0000 0.72670  0.37530  0.90100  Biso   1.000  C
  H17      1.0000 0.64770  0.39900  0.92760  Biso   1.000  H
  C35      1.0000 0.80700  0.30800  0.94950  Biso   1.000  C
  C36      1.0000 0.92330  0.27310  0.90990  Biso   1.000  C
  H18      1.0000 0.97790  0.22880  0.94330  Biso   1.000  H
  C37      1.0000 0.95960  0.30280  0.82170  Biso   1.000  C
  H19      1.0000 0.03780  0.27770  0.79500  Biso   1.000  H
  C38      1.0000 0.88050  0.36970  0.77210  Biso   1.000  C
  H20      1.0000 0.90520  0.38930  0.71200  Biso   1.000  H
  C39      1.0000 0.68180  0.48520  0.76060  Biso   1.000  C
  C40      1.0000 0.76640  0.27050  0.04700  Biso   1.000  C
  C41      1.0000 0.27170  0.78130  0.95050  Biso   1.000  C
  C42      1.0000 0.19560  0.86060  0.98990  Biso   1.000  C
  H21      1.0000 0.13410  0.89540  0.95300  Biso   1.000  H
  C43      1.0000 0.21150  0.88730  0.08250  Biso   1.000  C
  C44      1.0000 0.29720  0.83240  0.13820  Biso   1.000  C
  H22      1.0000 0.30590  0.84970  0.20100  Biso   1.000  H
  C45      1.0000 0.37130  0.75150  0.10300  Biso   1.000  C
  H23      1.0000 0.42910  0.71510  0.14140  Biso   1.000  H
  C46      1.0000 0.35710  0.72650  0.00960  Biso   1.000  C
  H24      1.0000 0.40530  0.67210  0.98540  Biso   1.000  H
  C47      1.0000 0.25720  0.75230  0.85210  Biso   1.000  C
  C48      1.0000 0.13690  0.97650  0.12500  Biso   1.000  C
  Tb4      1.0000 0.49911  0.34388  0.19639  Biso   1.000  Tb
  O25      1.0000 0.27090  0.47190  0.18900  Biso   1.000  O
  O26      1.0000 0.43270  0.49330  0.29250  Biso   1.000  O
  O27      1.0000 0.15470  0.78860  0.58480  Biso   1.000  O
  O28      1.0000 0.34460  0.70350  0.57770  Biso   1.000  O
  O29      1.0000 0.65290  0.30410  0.31570  Biso   1.000  O
  O30      1.0000 0.84080  0.21490  0.30500  Biso   1.000  O
  O31      1.0000 0.97010  0.99360  0.58580  Biso   1.000  O
  O32      1.0000 0.81770  0.98080  0.69630  Biso   1.000  O
  C49      1.0000 0.23510  0.59240  0.31140  Biso   1.000  C
  C50      1.0000 0.27330  0.62470  0.40100  Biso   1.000  C
  H25      1.0000 0.35230  0.60100  0.42760  Biso   1.000  H
  C51      1.0000 0.19300  0.69200  0.44950  Biso   1.000  C
  C52      1.0000 0.07670  0.72690  0.40990  Biso   1.000  C
  H26      1.0000 0.02210  0.77120  0.44330  Biso   1.000  H
  C53      1.0000 0.04040  0.69720  0.32170  Biso   1.000  C
  H27      1.0000 0.96220  0.72230  0.29500  Biso   1.000  H
  C54      1.0000 0.11950  0.63030  0.27210  Biso   1.000  C
  H28      1.0000 0.09480  0.61070  0.21200  Biso   1.000  H
  C55      1.0000 0.31820  0.51480  0.26060  Biso   1.000  C
  C56      1.0000 0.23360  0.72950  0.54700  Biso   1.000  C
  C57      1.0000 0.72830  0.21870  0.45050  Biso   1.000  C
  C58      1.0000 0.80440  0.13940  0.48990  Biso   1.000  C
  H29      1.0000 0.86590  0.10460  0.45300  Biso   1.000  H
  C59      1.0000 0.78850  0.11270  0.58250  Biso   1.000  C
  C60      1.0000 0.70280  0.16760  0.63820  Biso   1.000  C
  H30      1.0000 0.69410  0.15030  0.70100  Biso   1.000  H
  C61      1.0000 0.62870  0.24850  0.60300  Biso   1.000  C
  H31      1.0000 0.57090  0.28490  0.64140  Biso   1.000  H
  C62      1.0000 0.64290  0.27350  0.50960  Biso   1.000  C
  H32      1.0000 0.59470  0.32790  0.48540  Biso   1.000  H
  C63      1.0000 0.74280  0.24770  0.35210  Biso   1.000  C
  C64      1.0000 0.86310  0.02350  0.62500  Biso   1.000  C
