data_OHOMIH_clean
_audit_creation_date              2014-07-02
_audit_creation_method            'Materials Studio'
_symmetry_space_group_name_H-M    'P1'
_symmetry_Int_Tables_number       1
_symmetry_cell_setting            triclinic
loop_
_symmetry_equiv_pos_as_xyz
  x,y,z
_cell_length_a                    3.4926
_cell_length_b                    9.8280
_cell_length_c                    17.1850
_cell_angle_alpha                 90.0000
_cell_angle_beta                  93.7530
_cell_angle_gamma                 90.0000
loop_
_atom_site_label
_atom_site_type_symbol
_atom_site_fract_x
_atom_site_fract_y
_atom_site_fract_z
_atom_site_U_iso_or_equiv
_atom_site_adp_type
_atom_site_occupancy
Cu1    Cu    0.58112   0.24095   0.72802   0.01267  Uiso   1.00
Cu2    Cu    0.12930   0.45535   0.60664   0.01267  Uiso   1.00
Cu3    Cu    0.08112   0.75905   0.22802   0.01267  Uiso   1.00
Cu4    Cu    0.62930   0.54465   0.10664   0.01267  Uiso   1.00
H1     H     0.61090   0.78300   0.71580   0.01267  Uiso   1.00
H2     H     0.94610   0.54250   0.89700   0.01267  Uiso   1.00
H3     H     0.08800   0.95020   0.91280   0.01267  Uiso   1.00
H4     H     0.11090   0.21700   0.21580   0.01267  Uiso   1.00
H5     H     0.44610   0.45750   0.39700   0.01267  Uiso   1.00
H6     H     0.58800   0.04980   0.41280   0.01267  Uiso   1.00
C1     C     0.83950   0.88710   0.80890   0.01267  Uiso   1.00
C2     C     0.71700   0.77350   0.76660   0.01267  Uiso   1.00
C3     C     0.75200   0.64550   0.80040   0.01267  Uiso   1.00
C4     C     0.91900   0.62900   0.87540   0.01267  Uiso   1.00
C5     C     0.04700   0.74320   0.91820   0.01267  Uiso   1.00
C6     C     0.00530   0.87360   0.88470   0.01267  Uiso   1.00
C7     C     0.77000   0.02520   0.77550   0.01267  Uiso   1.00
C8     C     0.60800   0.52540   0.75260   0.01267  Uiso   1.00
C9     C     0.23900   0.73100   0.99870   0.01267  Uiso   1.00
C10    C     0.33950   0.11290   0.30890   0.01267  Uiso   1.00
C11    C     0.21700   0.22650   0.26660   0.01267  Uiso   1.00
C12    C     0.25200   0.35450   0.30040   0.01267  Uiso   1.00
C13    C     0.41900   0.37100   0.37540   0.01267  Uiso   1.00
C14    C     0.54700   0.25680   0.41820   0.01267  Uiso   1.00
C15    C     0.50530   0.12640   0.38470   0.01267  Uiso   1.00
C16    C     0.27000   0.97480   0.27550   0.01267  Uiso   1.00
C17    C     0.10800   0.47460   0.25260   0.01267  Uiso   1.00
C18    C     0.73900   0.26900   0.49870   0.01267  Uiso   1.00
O1     O     0.58110   0.04020   0.71040   0.01267  Uiso   1.00
O2     O     0.88660   0.13170   0.81220   0.01267  Uiso   1.00
O3     O     0.63020   0.40900   0.78560   0.01267  Uiso   1.00
O4     O     0.13820   0.28780   0.66310   0.01267  Uiso   1.00
O5     O     0.49320   0.54610   0.68330   0.01267  Uiso   1.00
O6     O     0.24890   0.60920   0.02700   0.01267  Uiso   1.00
O7     O     0.37650   0.83180   0.03190   0.01267  Uiso   1.00
O8     O     0.08110   0.95980   0.21040   0.01267  Uiso   1.00
O9     O     0.38660   0.86830   0.31220   0.01267  Uiso   1.00
O10    O     0.13020   0.59100   0.28560   0.01267  Uiso   1.00
O11    O     0.63820   0.71220   0.16310   0.01267  Uiso   1.00
O12    O     0.99320   0.45390   0.18330   0.01267  Uiso   1.00
O13    O     0.74890   0.39080   0.52700   0.01267  Uiso   1.00
O14    O     0.87650   0.16820   0.53190   0.01267  Uiso   1.00
