data_image0
_cell_length_a       28.8818
_cell_length_b       27.4017
_cell_length_c       26.7889
_cell_angle_alpha    90
_cell_angle_beta     104.86
_cell_angle_gamma    90

_symmetry_space_group_name_H-M    "P 1"
_symmetry_int_tables_number       1

loop_
  _symmetry_equiv_pos_as_xyz
  'x, y, z'

loop_
  _atom_site_label
  _atom_site_occupancy
  _atom_site_fract_x
  _atom_site_fract_y
  _atom_site_fract_z
  _atom_site_thermal_displace_type
  _atom_site_B_iso_or_equiv
  _atom_site_type_symbol
  Mo1      1.0000 0.27872  0.43989  0.17288  Biso   1.000  Mo
  Mo2      1.0000 0.19254  0.46321  0.17754  Biso   1.000  Mo
  Mo3      1.0000 0.10998  0.36904  0.19061  Biso   1.000  Mo
  Mo4      1.0000 0.13791  0.27816  0.19626  Biso   1.000  Mo
  Mo5      1.0000 0.25058  0.23996  0.19215  Biso   1.000  Mo
  Mo6      1.0000 0.32362  0.32363  0.18035  Biso   1.000  Mo
  Mo7      1.0000 0.29999  0.37961  0.06152  Biso   1.000  Mo
  Mo8      1.0000 0.15863  0.21682  0.08511  Biso   1.000  Mo
  Mo9      1.0000 0.09270  0.43793  0.08061  Biso   1.000  Mo
  Mo10     1.0000 0.11015  0.38359  0.98193  Biso   1.000  Mo
  Mo11     1.0000 0.14689  0.26472  0.99846  Biso   1.000  Mo
  Mo12     1.0000 0.22706  0.35701  0.98437  Biso   1.000  Mo
  Zn1      1.0000 0.23886  0.35142  0.24933  Biso   1.000  Zn
  Zn2      1.0000 0.19879  0.46491  0.04487  Biso   1.000  Zn
  Zn3      1.0000 0.06608  0.31228  0.06702  Biso   1.000  Zn
  Zn4      1.0000 0.22634  0.24719  0.92964  Biso   1.000  Zn
  O1       1.0000 0.26160  0.35540  0.32250  Biso   1.000  O
  O2       1.0000 0.20330  0.40890  0.32430  Biso   1.000  O
  O3       1.0000 0.20766  0.48002  0.50310  Biso   1.000  O
  O4       1.0000 0.28040  0.47840  0.55810  Biso   1.000  O
  O5       1.0000 0.50250  0.21520  0.54690  Biso   1.000  O
  O6       1.0000 0.53080  0.28030  0.59620  Biso   1.000  O
  O7       1.0000 0.32295  0.38600  0.20530  Biso   1.000  O
  O8       1.0000 0.27595  0.30540  0.21984  Biso   1.000  O
  O9       1.0000 0.20200  0.24780  0.22440  Biso   1.000  O
  O10      1.0000 0.23886  0.41628  0.21710  Biso   1.000  O
  O11      1.0000 0.16944  0.33750  0.22800  Biso   1.000  O
  O12      1.0000 0.14800  0.43220  0.21850  Biso   1.000  O
  O13      1.0000 0.33856  0.33990  0.12080  Biso   1.000  O
  O14      1.0000 0.28976  0.26413  0.14500  Biso   1.000  O
  O15      1.0000 0.31058  0.43824  0.11240  Biso   1.000  O
  O16      1.0000 0.21736  0.20111  0.14066  Biso   1.000  O
  O17      1.0000 0.22386  0.46776  0.12130  Biso   1.000  O
  O18      1.0000 0.12419  0.22171  0.14420  Biso   1.000  O
  O19      1.0000 0.13374  0.47994  0.12270  Biso   1.000  O
  O20      1.0000 0.09086  0.31400  0.14360  Biso   1.000  O
  O21      1.0000 0.07111  0.40861  0.13170  Biso   1.000  O
  O22      1.0000 0.27181  0.31690  0.03519  Biso   1.000  O
  O23      1.0000 0.24185  0.41547  0.02751  Biso   1.000  O
  O24      1.0000 0.20430  0.23892  0.04715  Biso   1.000  O
  O25      1.0000 0.10924  0.26304  0.04963  Biso   1.000  O
  O26      1.0000 0.13334  0.44022  0.03098  Biso   1.000  O
  O27      1.0000 0.07861  0.37590  0.04050  Biso   1.000  O
  O28      1.0000 0.19194  0.29465  0.96111  Biso   1.000  O
  O29      1.0000 0.16317  0.39048  0.95810  Biso   1.000  O
  O30      1.0000 0.10067  0.31914  0.96861  Biso   1.000  O
  C1       1.0000 0.23880  0.38430  0.34570  Biso   1.000  C
  C2       1.0000 0.26080  0.38770  0.40310  Biso   1.000  C
  C3       1.0000 0.30050  0.36020  0.42570  Biso   1.000  C
  H1       1.0000 0.31220  0.33800  0.40570  Biso   1.000  H
  C4       1.0000 0.32360  0.36480  0.47780  Biso   1.000  C
  C5       1.0000 0.30580  0.39870  0.50630  Biso   1.000  C
  H2       1.0000 0.32130  0.40280  0.54100  Biso   1.000  H
  C6       1.0000 0.26630  0.42660  0.48520  Biso   1.000  C
  C7       1.0000 0.24280  0.42140  0.43300  Biso   1.000  C
  H3       1.0000 0.21580  0.43990  0.41830  Biso   1.000  H
  C8       1.0000 0.25070  0.46410  0.51880  Biso   1.000  C
  C9       1.0000 0.36770  0.33610  0.50120  Biso   1.000  C
  C10      1.0000 0.40430  0.35590  0.53930  Biso   1.000  C
  H4       1.0000 0.40110  0.38740  0.55090  Biso   1.000  H
  C11      1.0000 0.44530  0.33030  0.56030  Biso   1.000  C
  H5       1.0000 0.46900  0.34440  0.58650  Biso   1.000  H
  C12      1.0000 0.45240  0.28350  0.54320  Biso   1.000  C
  C13      1.0000 0.41580  0.26310  0.50620  Biso   1.000  C
  H6       1.0000 0.41920  0.23150  0.49500  Biso   1.000  H
  C14      1.0000 0.37370  0.28870  0.48490  Biso   1.000  C
  H7       1.0000 0.34940  0.27410  0.45980  Biso   1.000  H
  C15      1.0000 0.49890  0.25850  0.56450  Biso   1.000  C
  Mo13     1.0000 0.77872  0.93989  0.17288  Biso   1.000  Mo
  Mo14     1.0000 0.69254  0.96321  0.17754  Biso   1.000  Mo
  Mo15     1.0000 0.60998  0.86904  0.19061  Biso   1.000  Mo
  Mo16     1.0000 0.63791  0.77816  0.19626  Biso   1.000  Mo
  Mo17     1.0000 0.75058  0.73996  0.19215  Biso   1.000  Mo
  Mo18     1.0000 0.82362  0.82363  0.18035  Biso   1.000  Mo
  Mo19     1.0000 0.79999  0.87961  0.06152  Biso   1.000  Mo
  Mo20     1.0000 0.65863  0.71682  0.08511  Biso   1.000  Mo
  Mo21     1.0000 0.59270  0.93793  0.08061  Biso   1.000  Mo
  Mo22     1.0000 0.61015  0.88359  0.98193  Biso   1.000  Mo
  Mo23     1.0000 0.64689  0.76472  0.99846  Biso   1.000  Mo
  Mo24     1.0000 0.72706  0.85701  0.98437  Biso   1.000  Mo
  Zn5      1.0000 0.73886  0.85142  0.24933  Biso   1.000  Zn
  Zn6      1.0000 0.69879  0.96491  0.04487  Biso   1.000  Zn
  Zn7      1.0000 0.56608  0.81228  0.06702  Biso   1.000  Zn
  Zn8      1.0000 0.72634  0.74719  0.92964  Biso   1.000  Zn
  O31      1.0000 0.76160  0.85540  0.32250  Biso   1.000  O
  O32      1.0000 0.70330  0.90890  0.32430  Biso   1.000  O
  O33      1.0000 0.70766  0.98002  0.50310  Biso   1.000  O
  O34      1.0000 0.78040  0.97840  0.55810  Biso   1.000  O
  O35      1.0000 0.00250  0.71520  0.54690  Biso   1.000  O
  O36      1.0000 0.03080  0.78030  0.59620  Biso   1.000  O
  O37      1.0000 0.82295  0.88600  0.20530  Biso   1.000  O
  O38      1.0000 0.77595  0.80540  0.21984  Biso   1.000  O
  O39      1.0000 0.70200  0.74780  0.22440  Biso   1.000  O
  O40      1.0000 0.73886  0.91628  0.21710  Biso   1.000  O
  O41      1.0000 0.66944  0.83750  0.22800  Biso   1.000  O
  O42      1.0000 0.64800  0.93220  0.21850  Biso   1.000  O
  O43      1.0000 0.83856  0.83990  0.12080  Biso   1.000  O
  O44      1.0000 0.78976  0.76413  0.14500  Biso   1.000  O
  O45      1.0000 0.81058  0.93824  0.11240  Biso   1.000  O
  O46      1.0000 0.71736  0.70111  0.14066  Biso   1.000  O
  O47      1.0000 0.72386  0.96776  0.12130  Biso   1.000  O
  O48      1.0000 0.62419  0.72171  0.14420  Biso   1.000  O
  O49      1.0000 0.63374  0.97994  0.12270  Biso   1.000  O
  O50      1.0000 0.59086  0.81400  0.14360  Biso   1.000  O
  O51      1.0000 0.57111  0.90861  0.13170  Biso   1.000  O
  O52      1.0000 0.77181  0.81690  0.03519  Biso   1.000  O
  O53      1.0000 0.74185  0.91547  0.02751  Biso   1.000  O
  O54      1.0000 0.70430  0.73892  0.04715  Biso   1.000  O
  O55      1.0000 0.60924  0.76304  0.04963  Biso   1.000  O
  O56      1.0000 0.63334  0.94022  0.03098  Biso   1.000  O
  O57      1.0000 0.57861  0.87590  0.04050  Biso   1.000  O
  O58      1.0000 0.69194  0.79465  0.96111  Biso   1.000  O
  O59      1.0000 0.66317  0.89048  0.95810  Biso   1.000  O
  O60      1.0000 0.60067  0.81914  0.96861  Biso   1.000  O
  C16      1.0000 0.73880  0.88430  0.34570  Biso   1.000  C
  C17      1.0000 0.76080  0.88770  0.40310  Biso   1.000  C
  C18      1.0000 0.80050  0.86020  0.42570  Biso   1.000  C
  H8       1.0000 0.81220  0.83800  0.40570  Biso   1.000  H
  C19      1.0000 0.82360  0.86480  0.47780  Biso   1.000  C
  C20      1.0000 0.80580  0.89870  0.50630  Biso   1.000  C
  H9       1.0000 0.82130  0.90280  0.54100  Biso   1.000  H
  C21      1.0000 0.76630  0.92660  0.48520  Biso   1.000  C
  C22      1.0000 0.74280  0.92140  0.43300  Biso   1.000  C
  H10      1.0000 0.71580  0.93990  0.41830  Biso   1.000  H
  C23      1.0000 0.75070  0.96410  0.51880  Biso   1.000  C
  C24      1.0000 0.86770  0.83610  0.50120  Biso   1.000  C
  C25      1.0000 0.90430  0.85590  0.53930  Biso   1.000  C
  H11      1.0000 0.90110  0.88740  0.55090  Biso   1.000  H
  C26      1.0000 0.94530  0.83030  0.56030  Biso   1.000  C
  H12      1.0000 0.96900  0.84440  0.58650  Biso   1.000  H
  C27      1.0000 0.95240  0.78350  0.54320  Biso   1.000  C
  C28      1.0000 0.91580  0.76310  0.50620  Biso   1.000  C
  H13      1.0000 0.91920  0.73150  0.49500  Biso   1.000  H
  C29      1.0000 0.87370  0.78870  0.48490  Biso   1.000  C
  H14      1.0000 0.84940  0.77410  0.45980  Biso   1.000  H
  C30      1.0000 0.99890  0.75850  0.56450  Biso   1.000  C
  Mo25     1.0000 0.72128  0.43989  0.32712  Biso   1.000  Mo
  Mo26     1.0000 0.80746  0.46321  0.32246  Biso   1.000  Mo
  Mo27     1.0000 0.89002  0.36904  0.30939  Biso   1.000  Mo
  Mo28     1.0000 0.86209  0.27816  0.30374  Biso   1.000  Mo
  Mo29     1.0000 0.74942  0.23996  0.30785  Biso   1.000  Mo
  Mo30     1.0000 0.67638  0.32363  0.31965  Biso   1.000  Mo
  Mo31     1.0000 0.70001  0.37961  0.43848  Biso   1.000  Mo
  Mo32     1.0000 0.84137  0.21682  0.41489  Biso   1.000  Mo
  Mo33     1.0000 0.90730  0.43793  0.41939  Biso   1.000  Mo
  Mo34     1.0000 0.88985  0.38359  0.51807  Biso   1.000  Mo
  Mo35     1.0000 0.85311  0.26472  0.50154  Biso   1.000  Mo
  Mo36     1.0000 0.77294  0.35701  0.51563  Biso   1.000  Mo
  Zn9      1.0000 0.76114  0.35142  0.25067  Biso   1.000  Zn
  Zn10     1.0000 0.80121  0.46491  0.45513  Biso   1.000  Zn
  Zn11     1.0000 0.93392  0.31228  0.43298  Biso   1.000  Zn
  Zn12     1.0000 0.77366  0.24719  0.57036  Biso   1.000  Zn
  O61      1.0000 0.73840  0.35540  0.17750  Biso   1.000  O
  O62      1.0000 0.79670  0.40890  0.17570  Biso   1.000  O
  O63      1.0000 0.79234  0.48002  0.99690  Biso   1.000  O
  O64      1.0000 0.71960  0.47840  0.94190  Biso   1.000  O
  O65      1.0000 0.49750  0.21520  0.95310  Biso   1.000  O
  O66      1.0000 0.46920  0.28030  0.90380  Biso   1.000  O
  O67      1.0000 0.67705  0.38600  0.29470  Biso   1.000  O
  O68      1.0000 0.72405  0.30540  0.28016  Biso   1.000  O
  O69      1.0000 0.79800  0.24780  0.27560  Biso   1.000  O
  O70      1.0000 0.76114  0.41628  0.28290  Biso   1.000  O
  O71      1.0000 0.83056  0.33750  0.27200  Biso   1.000  O
  O72      1.0000 0.85200  0.43220  0.28150  Biso   1.000  O
  O73      1.0000 0.66144  0.33990  0.37920  Biso   1.000  O
  O74      1.0000 0.71024  0.26413  0.35500  Biso   1.000  O
  O75      1.0000 0.68942  0.43824  0.38760  Biso   1.000  O
  O76      1.0000 0.78264  0.20111  0.35934  Biso   1.000  O
  O77      1.0000 0.77614  0.46776  0.37870  Biso   1.000  O
  O78      1.0000 0.87581  0.22171  0.35580  Biso   1.000  O
  O79      1.0000 0.86626  0.47994  0.37730  Biso   1.000  O
  O80      1.0000 0.90914  0.31400  0.35640  Biso   1.000  O
  O81      1.0000 0.92889  0.40861  0.36830  Biso   1.000  O
  O82      1.0000 0.72819  0.31690  0.46481  Biso   1.000  O
  O83      1.0000 0.75815  0.41547  0.47249  Biso   1.000  O
  O84      1.0000 0.79570  0.23892  0.45285  Biso   1.000  O
  O85      1.0000 0.89076  0.26304  0.45037  Biso   1.000  O
  O86      1.0000 0.86666  0.44022  0.46902  Biso   1.000  O
  O87      1.0000 0.92139  0.37590  0.45950  Biso   1.000  O
  O88      1.0000 0.80806  0.29465  0.53889  Biso   1.000  O
  O89      1.0000 0.83683  0.39048  0.54190  Biso   1.000  O
  O90      1.0000 0.89933  0.31914  0.53139  Biso   1.000  O
  C31      1.0000 0.76120  0.38430  0.15430  Biso   1.000  C
  C32      1.0000 0.73920  0.38770  0.09690  Biso   1.000  C
  C33      1.0000 0.69950  0.36020  0.07430  Biso   1.000  C
  H15      1.0000 0.68780  0.33800  0.09430  Biso   1.000  H
  C34      1.0000 0.67640  0.36480  0.02220  Biso   1.000  C
  C35      1.0000 0.69420  0.39870  0.99370  Biso   1.000  C
  H16      1.0000 0.67870  0.40280  0.95900  Biso   1.000  H
  C36      1.0000 0.73370  0.42660  0.01480  Biso   1.000  C
  C37      1.0000 0.75720  0.42140  0.06700  Biso   1.000  C
  H17      1.0000 0.78420  0.43990  0.08170  Biso   1.000  H
  C38      1.0000 0.74930  0.46410  0.98120  Biso   1.000  C
  C39      1.0000 0.63230  0.33610  0.99880  Biso   1.000  C
  C40      1.0000 0.59570  0.35590  0.96070  Biso   1.000  C
  H18      1.0000 0.59890  0.38740  0.94910  Biso   1.000  H
  C41      1.0000 0.55470  0.33030  0.93970  Biso   1.000  C
  H19      1.0000 0.53100  0.34440  0.91350  Biso   1.000  H
  C42      1.0000 0.54760  0.28350  0.95680  Biso   1.000  C
  C43      1.0000 0.58420  0.26310  0.99380  Biso   1.000  C
  H20      1.0000 0.58080  0.23150  0.00500  Biso   1.000  H
  C44      1.0000 0.62630  0.28870  0.01510  Biso   1.000  C
  H21      1.0000 0.65060  0.27410  0.04020  Biso   1.000  H
  C45      1.0000 0.50110  0.25850  0.93550  Biso   1.000  C
  Mo37     1.0000 0.22128  0.93989  0.32712  Biso   1.000  Mo
  Mo38     1.0000 0.30746  0.96321  0.32246  Biso   1.000  Mo
  Mo39     1.0000 0.39002  0.86904  0.30939  Biso   1.000  Mo
  Mo40     1.0000 0.36209  0.77816  0.30374  Biso   1.000  Mo
  Mo41     1.0000 0.24942  0.73996  0.30785  Biso   1.000  Mo
  Mo42     1.0000 0.17638  0.82363  0.31965  Biso   1.000  Mo
  Mo43     1.0000 0.20001  0.87961  0.43848  Biso   1.000  Mo
  Mo44     1.0000 0.34137  0.71682  0.41489  Biso   1.000  Mo
  Mo45     1.0000 0.40730  0.93793  0.41939  Biso   1.000  Mo
  Mo46     1.0000 0.38985  0.88359  0.51807  Biso   1.000  Mo
  Mo47     1.0000 0.35311  0.76472  0.50154  Biso   1.000  Mo
  Mo48     1.0000 0.27294  0.85701  0.51563  Biso   1.000  Mo
  Zn13     1.0000 0.26114  0.85142  0.25067  Biso   1.000  Zn
  Zn14     1.0000 0.30121  0.96491  0.45513  Biso   1.000  Zn
  Zn15     1.0000 0.43392  0.81228  0.43298  Biso   1.000  Zn
  Zn16     1.0000 0.27366  0.74719  0.57036  Biso   1.000  Zn
  O91      1.0000 0.23840  0.85540  0.17750  Biso   1.000  O
  O92      1.0000 0.29670  0.90890  0.17570  Biso   1.000  O
  O93      1.0000 0.29234  0.98002  0.99690  Biso   1.000  O
  O94      1.0000 0.21960  0.97840  0.94190  Biso   1.000  O
  O95      1.0000 0.99750  0.71520  0.95310  Biso   1.000  O
  O96      1.0000 0.96920  0.78030  0.90380  Biso   1.000  O
  O97      1.0000 0.17705  0.88600  0.29470  Biso   1.000  O
  O98      1.0000 0.22405  0.80540  0.28016  Biso   1.000  O
  O99      1.0000 0.29800  0.74780  0.27560  Biso   1.000  O
  O100     1.0000 0.26114  0.91628  0.28290  Biso   1.000  O
  O101     1.0000 0.33056  0.83750  0.27200  Biso   1.000  O
  O102     1.0000 0.35200  0.93220  0.28150  Biso   1.000  O
  O103     1.0000 0.16144  0.83990  0.37920  Biso   1.000  O
  O104     1.0000 0.21024  0.76413  0.35500  Biso   1.000  O
  O105     1.0000 0.18942  0.93824  0.38760  Biso   1.000  O
  O106     1.0000 0.28264  0.70111  0.35934  Biso   1.000  O
  O107     1.0000 0.27614  0.96776  0.37870  Biso   1.000  O
  O108     1.0000 0.37581  0.72171  0.35580  Biso   1.000  O
  O109     1.0000 0.36626  0.97994  0.37730  Biso   1.000  O
  O110     1.0000 0.40914  0.81400  0.35640  Biso   1.000  O
  O111     1.0000 0.42889  0.90861  0.36830  Biso   1.000  O
  O112     1.0000 0.22819  0.81690  0.46481  Biso   1.000  O
  O113     1.0000 0.25815  0.91547  0.47249  Biso   1.000  O
  O114     1.0000 0.29570  0.73892  0.45285  Biso   1.000  O
  O115     1.0000 0.39076  0.76304  0.45037  Biso   1.000  O
  O116     1.0000 0.36666  0.94022  0.46902  Biso   1.000  O
  O117     1.0000 0.42139  0.87590  0.45950  Biso   1.000  O
  O118     1.0000 0.30806  0.79465  0.53889  Biso   1.000  O
  O119     1.0000 0.33683  0.89048  0.54190  Biso   1.000  O
  O120     1.0000 0.39933  0.81914  0.53139  Biso   1.000  O
  C46      1.0000 0.26120  0.88430  0.15430  Biso   1.000  C
  C47      1.0000 0.23920  0.88770  0.09690  Biso   1.000  C
  C48      1.0000 0.19950  0.86020  0.07430  Biso   1.000  C
  H22      1.0000 0.18780  0.83800  0.09430  Biso   1.000  H
  C49      1.0000 0.17640  0.86480  0.02220  Biso   1.000  C
  C50      1.0000 0.19420  0.89870  0.99370  Biso   1.000  C
  H23      1.0000 0.17870  0.90280  0.95900  Biso   1.000  H
  C51      1.0000 0.23370  0.92660  0.01480  Biso   1.000  C
  C52      1.0000 0.25720  0.92140  0.06700  Biso   1.000  C
  H24      1.0000 0.28420  0.93990  0.08170  Biso   1.000  H
  C53      1.0000 0.24930  0.96410  0.98120  Biso   1.000  C
  C54      1.0000 0.13230  0.83610  0.99880  Biso   1.000  C
  C55      1.0000 0.09570  0.85590  0.96070  Biso   1.000  C
  H25      1.0000 0.09890  0.88740  0.94910  Biso   1.000  H
  C56      1.0000 0.05470  0.83030  0.93970  Biso   1.000  C
  H26      1.0000 0.03100  0.84440  0.91350  Biso   1.000  H
  C57      1.0000 0.04760  0.78350  0.95680  Biso   1.000  C
  C58      1.0000 0.08420  0.76310  0.99380  Biso   1.000  C
  H27      1.0000 0.08080  0.73150  0.00500  Biso   1.000  H
  C59      1.0000 0.12630  0.78870  0.01510  Biso   1.000  C
  H28      1.0000 0.15060  0.77410  0.04020  Biso   1.000  H
  C60      1.0000 0.00110  0.75850  0.93550  Biso   1.000  C
  Mo49     1.0000 0.72128  0.56011  0.82712  Biso   1.000  Mo
  Mo50     1.0000 0.80746  0.53679  0.82246  Biso   1.000  Mo
  Mo51     1.0000 0.89002  0.63096  0.80939  Biso   1.000  Mo
  Mo52     1.0000 0.86209  0.72184  0.80374  Biso   1.000  Mo
  Mo53     1.0000 0.74942  0.76004  0.80785  Biso   1.000  Mo
  Mo54     1.0000 0.67638  0.67637  0.81965  Biso   1.000  Mo
  Mo55     1.0000 0.70001  0.62039  0.93848  Biso   1.000  Mo
  Mo56     1.0000 0.84137  0.78318  0.91489  Biso   1.000  Mo
  Mo57     1.0000 0.90730  0.56207  0.91939  Biso   1.000  Mo
  Mo58     1.0000 0.88985  0.61641  0.01807  Biso   1.000  Mo
  Mo59     1.0000 0.85311  0.73528  0.00154  Biso   1.000  Mo
  Mo60     1.0000 0.77294  0.64299  0.01563  Biso   1.000  Mo
  Zn17     1.0000 0.76114  0.64858  0.75067  Biso   1.000  Zn
  Zn18     1.0000 0.80121  0.53509  0.95513  Biso   1.000  Zn
  Zn19     1.0000 0.93392  0.68772  0.93298  Biso   1.000  Zn
  Zn20     1.0000 0.77366  0.75281  0.07036  Biso   1.000  Zn
  O121     1.0000 0.73840  0.64460  0.67750  Biso   1.000  O
  O122     1.0000 0.79670  0.59110  0.67570  Biso   1.000  O
  O123     1.0000 0.79234  0.51998  0.49690  Biso   1.000  O
  O124     1.0000 0.71960  0.52160  0.44190  Biso   1.000  O
  O125     1.0000 0.49750  0.78480  0.45310  Biso   1.000  O
  O126     1.0000 0.46920  0.71970  0.40380  Biso   1.000  O
  O127     1.0000 0.67705  0.61400  0.79470  Biso   1.000  O
  O128     1.0000 0.72405  0.69460  0.78016  Biso   1.000  O
  O129     1.0000 0.79800  0.75220  0.77560  Biso   1.000  O
  O130     1.0000 0.76114  0.58372  0.78290  Biso   1.000  O
  O131     1.0000 0.83056  0.66250  0.77200  Biso   1.000  O
  O132     1.0000 0.85200  0.56780  0.78150  Biso   1.000  O
  O133     1.0000 0.66144  0.66010  0.87920  Biso   1.000  O
  O134     1.0000 0.71024  0.73587  0.85500  Biso   1.000  O
  O135     1.0000 0.68942  0.56176  0.88760  Biso   1.000  O
  O136     1.0000 0.78264  0.79889  0.85934  Biso   1.000  O
  O137     1.0000 0.77614  0.53224  0.87870  Biso   1.000  O
  O138     1.0000 0.87581  0.77829  0.85580  Biso   1.000  O
  O139     1.0000 0.86626  0.52006  0.87730  Biso   1.000  O
  O140     1.0000 0.90914  0.68600  0.85640  Biso   1.000  O
  O141     1.0000 0.92889  0.59139  0.86830  Biso   1.000  O
  O142     1.0000 0.72819  0.68310  0.96481  Biso   1.000  O
  O143     1.0000 0.75815  0.58453  0.97249  Biso   1.000  O
  O144     1.0000 0.79570  0.76108  0.95285  Biso   1.000  O
  O145     1.0000 0.89076  0.73696  0.95037  Biso   1.000  O
  O146     1.0000 0.86666  0.55978  0.96902  Biso   1.000  O
  O147     1.0000 0.92139  0.62410  0.95950  Biso   1.000  O
  O148     1.0000 0.80806  0.70535  0.03889  Biso   1.000  O
  O149     1.0000 0.83683  0.60952  0.04190  Biso   1.000  O
  O150     1.0000 0.89933  0.68086  0.03139  Biso   1.000  O
  C61      1.0000 0.76120  0.61570  0.65430  Biso   1.000  C
  C62      1.0000 0.73920  0.61230  0.59690  Biso   1.000  C
  C63      1.0000 0.69950  0.63980  0.57430  Biso   1.000  C
  H29      1.0000 0.68780  0.66200  0.59430  Biso   1.000  H
  C64      1.0000 0.67640  0.63520  0.52220  Biso   1.000  C
  C65      1.0000 0.69420  0.60130  0.49370  Biso   1.000  C
  H30      1.0000 0.67870  0.59720  0.45900  Biso   1.000  H
  C66      1.0000 0.73370  0.57340  0.51480  Biso   1.000  C
  C67      1.0000 0.75720  0.57860  0.56700  Biso   1.000  C
  H31      1.0000 0.78420  0.56010  0.58170  Biso   1.000  H
  C68      1.0000 0.74930  0.53590  0.48120  Biso   1.000  C
  C69      1.0000 0.63230  0.66390  0.49880  Biso   1.000  C
  C70      1.0000 0.59570  0.64410  0.46070  Biso   1.000  C
  H32      1.0000 0.59890  0.61260  0.44910  Biso   1.000  H
  C71      1.0000 0.55470  0.66970  0.43970  Biso   1.000  C
  H33      1.0000 0.53100  0.65560  0.41350  Biso   1.000  H
  C72      1.0000 0.54760  0.71650  0.45680  Biso   1.000  C
  C73      1.0000 0.58420  0.73690  0.49380  Biso   1.000  C
  H34      1.0000 0.58080  0.76850  0.50500  Biso   1.000  H
  C74      1.0000 0.62630  0.71130  0.51510  Biso   1.000  C
  H35      1.0000 0.65060  0.72590  0.54020  Biso   1.000  H
  C75      1.0000 0.50110  0.74150  0.43550  Biso   1.000  C
  Mo61     1.0000 0.22128  0.06011  0.82712  Biso   1.000  Mo
  Mo62     1.0000 0.30746  0.03679  0.82246  Biso   1.000  Mo
  Mo63     1.0000 0.39002  0.13096  0.80939  Biso   1.000  Mo
  Mo64     1.0000 0.36209  0.22184  0.80374  Biso   1.000  Mo
  Mo65     1.0000 0.24942  0.26004  0.80785  Biso   1.000  Mo
  Mo66     1.0000 0.17638  0.17637  0.81965  Biso   1.000  Mo
  Mo67     1.0000 0.20001  0.12039  0.93848  Biso   1.000  Mo
  Mo68     1.0000 0.34137  0.28318  0.91489  Biso   1.000  Mo
  Mo69     1.0000 0.40730  0.06207  0.91939  Biso   1.000  Mo
  Mo70     1.0000 0.38985  0.11641  0.01807  Biso   1.000  Mo
  Mo71     1.0000 0.35311  0.23528  0.00154  Biso   1.000  Mo
  Mo72     1.0000 0.27294  0.14299  0.01563  Biso   1.000  Mo
  Zn21     1.0000 0.26114  0.14858  0.75067  Biso   1.000  Zn
  Zn22     1.0000 0.30121  0.03509  0.95513  Biso   1.000  Zn
  Zn23     1.0000 0.43392  0.18772  0.93298  Biso   1.000  Zn
  Zn24     1.0000 0.27366  0.25281  0.07036  Biso   1.000  Zn
  O151     1.0000 0.23840  0.14460  0.67750  Biso   1.000  O
  O152     1.0000 0.29670  0.09110  0.67570  Biso   1.000  O
  O153     1.0000 0.29234  0.01998  0.49690  Biso   1.000  O
  O154     1.0000 0.21960  0.02160  0.44190  Biso   1.000  O
  O155     1.0000 0.99750  0.28480  0.45310  Biso   1.000  O
  O156     1.0000 0.96920  0.21970  0.40380  Biso   1.000  O
  O157     1.0000 0.17705  0.11400  0.79470  Biso   1.000  O
  O158     1.0000 0.22405  0.19460  0.78016  Biso   1.000  O
  O159     1.0000 0.29800  0.25220  0.77560  Biso   1.000  O
  O160     1.0000 0.26114  0.08372  0.78290  Biso   1.000  O
  O161     1.0000 0.33056  0.16250  0.77200  Biso   1.000  O
  O162     1.0000 0.35200  0.06780  0.78150  Biso   1.000  O
  O163     1.0000 0.16144  0.16010  0.87920  Biso   1.000  O
  O164     1.0000 0.21024  0.23587  0.85500  Biso   1.000  O
  O165     1.0000 0.18942  0.06176  0.88760  Biso   1.000  O
  O166     1.0000 0.28264  0.29889  0.85934  Biso   1.000  O
  O167     1.0000 0.27614  0.03224  0.87870  Biso   1.000  O
  O168     1.0000 0.37581  0.27829  0.85580  Biso   1.000  O
  O169     1.0000 0.36626  0.02006  0.87730  Biso   1.000  O
  O170     1.0000 0.40914  0.18600  0.85640  Biso   1.000  O
  O171     1.0000 0.42889  0.09139  0.86830  Biso   1.000  O
  O172     1.0000 0.22819  0.18310  0.96481  Biso   1.000  O
  O173     1.0000 0.25815  0.08453  0.97249  Biso   1.000  O
  O174     1.0000 0.29570  0.26108  0.95285  Biso   1.000  O
  O175     1.0000 0.39076  0.23696  0.95037  Biso   1.000  O
  O176     1.0000 0.36666  0.05978  0.96902  Biso   1.000  O
  O177     1.0000 0.42139  0.12410  0.95950  Biso   1.000  O
  O178     1.0000 0.30806  0.20535  0.03889  Biso   1.000  O
  O179     1.0000 0.33683  0.10952  0.04190  Biso   1.000  O
  O180     1.0000 0.39933  0.18086  0.03139  Biso   1.000  O
  C76      1.0000 0.26120  0.11570  0.65430  Biso   1.000  C
  C77      1.0000 0.23920  0.11230  0.59690  Biso   1.000  C
  C78      1.0000 0.19950  0.13980  0.57430  Biso   1.000  C
  H36      1.0000 0.18780  0.16200  0.59430  Biso   1.000  H
  C79      1.0000 0.17640  0.13520  0.52220  Biso   1.000  C
  C80      1.0000 0.19420  0.10130  0.49370  Biso   1.000  C
  H37      1.0000 0.17870  0.09720  0.45900  Biso   1.000  H
  C81      1.0000 0.23370  0.07340  0.51480  Biso   1.000  C
  C82      1.0000 0.25720  0.07860  0.56700  Biso   1.000  C
  H38      1.0000 0.28420  0.06010  0.58170  Biso   1.000  H
  C83      1.0000 0.24930  0.03590  0.48120  Biso   1.000  C
  C84      1.0000 0.13230  0.16390  0.49880  Biso   1.000  C
  C85      1.0000 0.09570  0.14410  0.46070  Biso   1.000  C
  H39      1.0000 0.09890  0.11260  0.44910  Biso   1.000  H
  C86      1.0000 0.05470  0.16970  0.43970  Biso   1.000  C
  H40      1.0000 0.03100  0.15560  0.41350  Biso   1.000  H
  C87      1.0000 0.04760  0.21650  0.45680  Biso   1.000  C
  C88      1.0000 0.08420  0.23690  0.49380  Biso   1.000  C
  H41      1.0000 0.08080  0.26850  0.50500  Biso   1.000  H
  C89      1.0000 0.12630  0.21130  0.51510  Biso   1.000  C
  H42      1.0000 0.15060  0.22590  0.54020  Biso   1.000  H
  C90      1.0000 0.00110  0.24150  0.43550  Biso   1.000  C
  Mo73     1.0000 0.27872  0.56011  0.67288  Biso   1.000  Mo
  Mo74     1.0000 0.19254  0.53679  0.67754  Biso   1.000  Mo
  Mo75     1.0000 0.10998  0.63096  0.69061  Biso   1.000  Mo
  Mo76     1.0000 0.13791  0.72184  0.69626  Biso   1.000  Mo
  Mo77     1.0000 0.25058  0.76004  0.69215  Biso   1.000  Mo
  Mo78     1.0000 0.32362  0.67637  0.68035  Biso   1.000  Mo
  Mo79     1.0000 0.29999  0.62039  0.56152  Biso   1.000  Mo
  Mo80     1.0000 0.15863  0.78318  0.58511  Biso   1.000  Mo
  Mo81     1.0000 0.09270  0.56207  0.58061  Biso   1.000  Mo
  Mo82     1.0000 0.11015  0.61641  0.48193  Biso   1.000  Mo
  Mo83     1.0000 0.14689  0.73528  0.49846  Biso   1.000  Mo
  Mo84     1.0000 0.22706  0.64299  0.48437  Biso   1.000  Mo
  Zn25     1.0000 0.23886  0.64858  0.74933  Biso   1.000  Zn
  Zn26     1.0000 0.19879  0.53509  0.54487  Biso   1.000  Zn
  Zn27     1.0000 0.06608  0.68772  0.56702  Biso   1.000  Zn
  Zn28     1.0000 0.22634  0.75281  0.42964  Biso   1.000  Zn
  O181     1.0000 0.26160  0.64460  0.82250  Biso   1.000  O
  O182     1.0000 0.20330  0.59110  0.82430  Biso   1.000  O
  O183     1.0000 0.20766  0.51998  0.00310  Biso   1.000  O
  O184     1.0000 0.28040  0.52160  0.05810  Biso   1.000  O
  O185     1.0000 0.50250  0.78480  0.04690  Biso   1.000  O
  O186     1.0000 0.53080  0.71970  0.09620  Biso   1.000  O
  O187     1.0000 0.32295  0.61400  0.70530  Biso   1.000  O
  O188     1.0000 0.27595  0.69460  0.71984  Biso   1.000  O
  O189     1.0000 0.20200  0.75220  0.72440  Biso   1.000  O
  O190     1.0000 0.23886  0.58372  0.71710  Biso   1.000  O
  O191     1.0000 0.16944  0.66250  0.72800  Biso   1.000  O
  O192     1.0000 0.14800  0.56780  0.71850  Biso   1.000  O
  O193     1.0000 0.33856  0.66010  0.62080  Biso   1.000  O
  O194     1.0000 0.28976  0.73587  0.64500  Biso   1.000  O
  O195     1.0000 0.31058  0.56176  0.61240  Biso   1.000  O
  O196     1.0000 0.21736  0.79889  0.64066  Biso   1.000  O
  O197     1.0000 0.22386  0.53224  0.62130  Biso   1.000  O
  O198     1.0000 0.12419  0.77829  0.64420  Biso   1.000  O
  O199     1.0000 0.13374  0.52006  0.62270  Biso   1.000  O
  O200     1.0000 0.09086  0.68600  0.64360  Biso   1.000  O
  O201     1.0000 0.07111  0.59139  0.63170  Biso   1.000  O
  O202     1.0000 0.27181  0.68310  0.53519  Biso   1.000  O
  O203     1.0000 0.24185  0.58453  0.52751  Biso   1.000  O
  O204     1.0000 0.20430  0.76108  0.54715  Biso   1.000  O
  O205     1.0000 0.10924  0.73696  0.54963  Biso   1.000  O
  O206     1.0000 0.13334  0.55978  0.53098  Biso   1.000  O
  O207     1.0000 0.07861  0.62410  0.54050  Biso   1.000  O
  O208     1.0000 0.19194  0.70535  0.46111  Biso   1.000  O
  O209     1.0000 0.16317  0.60952  0.45810  Biso   1.000  O
  O210     1.0000 0.10067  0.68086  0.46861  Biso   1.000  O
  C91      1.0000 0.23880  0.61570  0.84570  Biso   1.000  C
  C92      1.0000 0.26080  0.61230  0.90310  Biso   1.000  C
  C93      1.0000 0.30050  0.63980  0.92570  Biso   1.000  C
  H43      1.0000 0.31220  0.66200  0.90570  Biso   1.000  H
  C94      1.0000 0.32360  0.63520  0.97780  Biso   1.000  C
  C95      1.0000 0.30580  0.60130  0.00630  Biso   1.000  C
  H44      1.0000 0.32130  0.59720  0.04100  Biso   1.000  H
  C96      1.0000 0.26630  0.57340  0.98520  Biso   1.000  C
  C97      1.0000 0.24280  0.57860  0.93300  Biso   1.000  C
  H45      1.0000 0.21580  0.56010  0.91830  Biso   1.000  H
  C98      1.0000 0.25070  0.53590  0.01880  Biso   1.000  C
  C99      1.0000 0.36770  0.66390  0.00120  Biso   1.000  C
  C100     1.0000 0.40430  0.64410  0.03930  Biso   1.000  C
  H46      1.0000 0.40110  0.61260  0.05090  Biso   1.000  H
  C101     1.0000 0.44530  0.66970  0.06030  Biso   1.000  C
  H47      1.0000 0.46900  0.65560  0.08650  Biso   1.000  H
  C102     1.0000 0.45240  0.71650  0.04320  Biso   1.000  C
  C103     1.0000 0.41580  0.73690  0.00620  Biso   1.000  C
  H48      1.0000 0.41920  0.76850  0.99500  Biso   1.000  H
  C104     1.0000 0.37370  0.71130  0.98490  Biso   1.000  C
  H49      1.0000 0.34940  0.72590  0.95980  Biso   1.000  H
  C105     1.0000 0.49890  0.74150  0.06450  Biso   1.000  C
  Mo85     1.0000 0.77872  0.06011  0.67288  Biso   1.000  Mo
  Mo86     1.0000 0.69254  0.03679  0.67754  Biso   1.000  Mo
  Mo87     1.0000 0.60998  0.13096  0.69061  Biso   1.000  Mo
  Mo88     1.0000 0.63791  0.22184  0.69626  Biso   1.000  Mo
  Mo89     1.0000 0.75058  0.26004  0.69215  Biso   1.000  Mo
  Mo90     1.0000 0.82362  0.17637  0.68035  Biso   1.000  Mo
  Mo91     1.0000 0.79999  0.12039  0.56152  Biso   1.000  Mo
  Mo92     1.0000 0.65863  0.28318  0.58511  Biso   1.000  Mo
  Mo93     1.0000 0.59270  0.06207  0.58061  Biso   1.000  Mo
  Mo94     1.0000 0.61015  0.11641  0.48193  Biso   1.000  Mo
  Mo95     1.0000 0.64689  0.23528  0.49846  Biso   1.000  Mo
  Mo96     1.0000 0.72706  0.14299  0.48437  Biso   1.000  Mo
  Zn29     1.0000 0.73886  0.14858  0.74933  Biso   1.000  Zn
  Zn30     1.0000 0.69879  0.03509  0.54487  Biso   1.000  Zn
  Zn31     1.0000 0.56608  0.18772  0.56702  Biso   1.000  Zn
  Zn32     1.0000 0.72634  0.25281  0.42964  Biso   1.000  Zn
  O211     1.0000 0.76160  0.14460  0.82250  Biso   1.000  O
  O212     1.0000 0.70330  0.09110  0.82430  Biso   1.000  O
  O213     1.0000 0.70766  0.01998  0.00310  Biso   1.000  O
  O214     1.0000 0.78040  0.02160  0.05810  Biso   1.000  O
  O215     1.0000 0.00250  0.28480  0.04690  Biso   1.000  O
  O216     1.0000 0.03080  0.21970  0.09620  Biso   1.000  O
  O217     1.0000 0.82295  0.11400  0.70530  Biso   1.000  O
  O218     1.0000 0.77595  0.19460  0.71984  Biso   1.000  O
  O219     1.0000 0.70200  0.25220  0.72440  Biso   1.000  O
  O220     1.0000 0.73886  0.08372  0.71710  Biso   1.000  O
  O221     1.0000 0.66944  0.16250  0.72800  Biso   1.000  O
  O222     1.0000 0.64800  0.06780  0.71850  Biso   1.000  O
  O223     1.0000 0.83856  0.16010  0.62080  Biso   1.000  O
  O224     1.0000 0.78976  0.23587  0.64500  Biso   1.000  O
  O225     1.0000 0.81058  0.06176  0.61240  Biso   1.000  O
  O226     1.0000 0.71736  0.29889  0.64066  Biso   1.000  O
  O227     1.0000 0.72386  0.03224  0.62130  Biso   1.000  O
  O228     1.0000 0.62419  0.27829  0.64420  Biso   1.000  O
  O229     1.0000 0.63374  0.02006  0.62270  Biso   1.000  O
  O230     1.0000 0.59086  0.18600  0.64360  Biso   1.000  O
  O231     1.0000 0.57111  0.09139  0.63170  Biso   1.000  O
  O232     1.0000 0.77181  0.18310  0.53519  Biso   1.000  O
  O233     1.0000 0.74185  0.08453  0.52751  Biso   1.000  O
  O234     1.0000 0.70430  0.26108  0.54715  Biso   1.000  O
  O235     1.0000 0.60924  0.23696  0.54963  Biso   1.000  O
  O236     1.0000 0.63334  0.05978  0.53098  Biso   1.000  O
  O237     1.0000 0.57861  0.12410  0.54050  Biso   1.000  O
  O238     1.0000 0.69194  0.20535  0.46111  Biso   1.000  O
  O239     1.0000 0.66317  0.10952  0.45810  Biso   1.000  O
  O240     1.0000 0.60067  0.18086  0.46861  Biso   1.000  O
  C106     1.0000 0.73880  0.11570  0.84570  Biso   1.000  C
  C107     1.0000 0.76080  0.11230  0.90310  Biso   1.000  C
  C108     1.0000 0.80050  0.13980  0.92570  Biso   1.000  C
  H50      1.0000 0.81220  0.16200  0.90570  Biso   1.000  H
  C109     1.0000 0.82360  0.13520  0.97780  Biso   1.000  C
  C110     1.0000 0.80580  0.10130  0.00630  Biso   1.000  C
  H51      1.0000 0.82130  0.09720  0.04100  Biso   1.000  H
  C111     1.0000 0.76630  0.07340  0.98520  Biso   1.000  C
  C112     1.0000 0.74280  0.07860  0.93300  Biso   1.000  C
  H52      1.0000 0.71580  0.06010  0.91830  Biso   1.000  H
  C113     1.0000 0.75070  0.03590  0.01880  Biso   1.000  C
  C114     1.0000 0.86770  0.16390  0.00120  Biso   1.000  C
  C115     1.0000 0.90430  0.14410  0.03930  Biso   1.000  C
  H53      1.0000 0.90110  0.11260  0.05090  Biso   1.000  H
  C116     1.0000 0.94530  0.16970  0.06030  Biso   1.000  C
  H54      1.0000 0.96900  0.15560  0.08650  Biso   1.000  H
  C117     1.0000 0.95240  0.21650  0.04320  Biso   1.000  C
  C118     1.0000 0.91580  0.23690  0.00620  Biso   1.000  C
  H55      1.0000 0.91920  0.26850  0.99500  Biso   1.000  H
  C119     1.0000 0.87370  0.21130  0.98490  Biso   1.000  C
  H56      1.0000 0.84940  0.22590  0.95980  Biso   1.000  H
  C120     1.0000 0.99890  0.24150  0.06450  Biso   1.000  C
