data_OJICUG_clean
_audit_creation_date              2014-07-02
_audit_creation_method            'Materials Studio'
_symmetry_space_group_name_H-M    'P1'
_symmetry_Int_Tables_number       1
_symmetry_cell_setting            triclinic
loop_
_symmetry_equiv_pos_as_xyz
  x,y,z
_cell_length_a                    14.0560
_cell_length_b                    14.0560
_cell_length_c                    18.0990
_cell_angle_alpha                 90.0000
_cell_angle_beta                  90.0000
_cell_angle_gamma                 120.0000
loop_
_atom_site_label
_atom_site_type_symbol
_atom_site_fract_x
_atom_site_fract_y
_atom_site_fract_z
_atom_site_U_iso_or_equiv
_atom_site_adp_type
_atom_site_occupancy
Sc1    Sc    0.74986   0.49972   0.75000   0.01267  Uiso   1.00
Sc2    Sc    0.74986   0.25014   0.75000   0.01267  Uiso   1.00
Sc3    Sc    0.50028   0.25014   0.75000   0.01267  Uiso   1.00
Sc4    Sc    0.25014   0.50028   0.25000   0.01267  Uiso   1.00
Sc5    Sc    0.25014   0.74986   0.25000   0.01267  Uiso   1.00
Sc6    Sc    0.49972   0.74986   0.25000   0.01267  Uiso   1.00
H1     H     0.37910   0.33290   0.94330   0.01267  Uiso   1.00
H2     H     0.95380   0.62090   0.94330   0.01267  Uiso   1.00
H3     H     0.66710   0.04620   0.94330   0.01267  Uiso   1.00
H4     H     0.62090   0.66710   0.44330   0.01267  Uiso   1.00
H5     H     0.04620   0.37910   0.44330   0.01267  Uiso   1.00
H6     H     0.33290   0.95380   0.44330   0.01267  Uiso   1.00
H7     H     0.04620   0.66710   0.05670   0.01267  Uiso   1.00
H8     H     0.33290   0.37910   0.05670   0.01267  Uiso   1.00
H9     H     0.62090   0.95380   0.05670   0.01267  Uiso   1.00
H10    H     0.95380   0.33290   0.55670   0.01267  Uiso   1.00
H11    H     0.66710   0.62090   0.55670   0.01267  Uiso   1.00
H12    H     0.37910   0.04620   0.55670   0.01267  Uiso   1.00
H13    H     0.62090   0.66710   0.05670   0.01267  Uiso   1.00
H14    H     0.04620   0.37910   0.05670   0.01267  Uiso   1.00
H15    H     0.33290   0.95380   0.05670   0.01267  Uiso   1.00
H16    H     0.37910   0.33290   0.55670   0.01267  Uiso   1.00
H17    H     0.95380   0.62090   0.55670   0.01267  Uiso   1.00
H18    H     0.66710   0.04620   0.55670   0.01267  Uiso   1.00
H19    H     0.95380   0.33290   0.94330   0.01267  Uiso   1.00
H20    H     0.66710   0.62090   0.94330   0.01267  Uiso   1.00
H21    H     0.37910   0.04620   0.94330   0.01267  Uiso   1.00
H22    H     0.04620   0.66710   0.44330   0.01267  Uiso   1.00
H23    H     0.33290   0.37910   0.44330   0.01267  Uiso   1.00
H24    H     0.62090   0.95380   0.44330   0.01267  Uiso   1.00
C1     C     0.42830   0.40070   0.96638   0.01267  Uiso   1.00
C2     C     0.97240   0.57170   0.96638   0.01267  Uiso   1.00
C3     C     0.59930   0.02760   0.96638   0.01267  Uiso   1.00
C4     C     0.57170   0.59930   0.46638   0.01267  Uiso   1.00
C5     C     0.02760   0.42830   0.46638   0.01267  Uiso   1.00
C6     C     0.40070   0.97240   0.46638   0.01267  Uiso   1.00
C7     C     0.02760   0.59930   0.03362   0.01267  Uiso   1.00
C8     C     0.40070   0.42830   0.03362   0.01267  Uiso   1.00
C9     C     0.57170   0.97240   0.03362   0.01267  Uiso   1.00
C10    C     0.97240   0.40070   0.53362   0.01267  Uiso   1.00
C11    C     0.59930   0.57170   0.53362   0.01267  Uiso   1.00
C12    C     0.42830   0.02760   0.53362   0.01267  Uiso   1.00
C13    C     0.57170   0.59930   0.03362   0.01267  Uiso   1.00
C14    C     0.02760   0.42830   0.03362   0.01267  Uiso   1.00
C15    C     0.40070   0.97240   0.03362   0.01267  Uiso   1.00
C16    C     0.42830   0.40070   0.53362   0.01267  Uiso   1.00
C17    C     0.97240   0.57170   0.53362   0.01267  Uiso   1.00
C18    C     0.59930   0.02760   0.53362   0.01267  Uiso   1.00
C19    C     0.97240   0.40070   0.96638   0.01267  Uiso   1.00
C20    C     0.59930   0.57170   0.96638   0.01267  Uiso   1.00
C21    C     0.42830   0.02760   0.96638   0.01267  Uiso   1.00
C22    C     0.02760   0.59930   0.46638   0.01267  Uiso   1.00
C23    C     0.40070   0.42830   0.46638   0.01267  Uiso   1.00
C24    C     0.57170   0.97240   0.46638   0.01267  Uiso   1.00
C25    C     0.55820   0.44180   0.86118   0.01267  Uiso   1.00
C26    C     0.52770   0.47230   0.93294   0.01267  Uiso   1.00
C27    C     0.88360   0.44180   0.86118   0.01267  Uiso   1.00
C28    C     0.94460   0.47230   0.93294   0.01267  Uiso   1.00
C29    C     0.55820   0.11640   0.86118   0.01267  Uiso   1.00
C30    C     0.52770   0.05540   0.93294   0.01267  Uiso   1.00
C31    C     0.44180   0.55820   0.36118   0.01267  Uiso   1.00
C32    C     0.47230   0.52770   0.43294   0.01267  Uiso   1.00
C33    C     0.11640   0.55820   0.36118   0.01267  Uiso   1.00
C34    C     0.05540   0.52770   0.43294   0.01267  Uiso   1.00
C35    C     0.44180   0.88360   0.36118   0.01267  Uiso   1.00
C36    C     0.47230   0.94460   0.43294   0.01267  Uiso   1.00
C37    C     0.11640   0.55820   0.13882   0.01267  Uiso   1.00
C38    C     0.05540   0.52770   0.06706   0.01267  Uiso   1.00
C39    C     0.44180   0.55820   0.13882   0.01267  Uiso   1.00
C40    C     0.47230   0.52770   0.06706   0.01267  Uiso   1.00
C41    C     0.44180   0.88360   0.13882   0.01267  Uiso   1.00
C42    C     0.47230   0.94460   0.06706   0.01267  Uiso   1.00
C43    C     0.88360   0.44180   0.63882   0.01267  Uiso   1.00
C44    C     0.94460   0.47230   0.56706   0.01267  Uiso   1.00
C45    C     0.55820   0.44180   0.63882   0.01267  Uiso   1.00
C46    C     0.52770   0.47230   0.56706   0.01267  Uiso   1.00
C47    C     0.55820   0.11640   0.63882   0.01267  Uiso   1.00
C48    C     0.52770   0.05540   0.56706   0.01267  Uiso   1.00
O1     O     0.65063   0.50930   0.83341   0.01267  Uiso   1.00
O2     O     0.85867   0.34937   0.83341   0.01267  Uiso   1.00
O3     O     0.49070   0.14133   0.83341   0.01267  Uiso   1.00
O4     O     0.34937   0.49070   0.33341   0.01267  Uiso   1.00
O5     O     0.14133   0.65063   0.33341   0.01267  Uiso   1.00
O6     O     0.50930   0.85867   0.33341   0.01267  Uiso   1.00
O7     O     0.14133   0.49070   0.16659   0.01267  Uiso   1.00
O8     O     0.50930   0.65063   0.16659   0.01267  Uiso   1.00
O9     O     0.34937   0.85867   0.16659   0.01267  Uiso   1.00
O10    O     0.85867   0.50930   0.66659   0.01267  Uiso   1.00
O11    O     0.49070   0.34937   0.66659   0.01267  Uiso   1.00
O12    O     0.65063   0.14133   0.66659   0.01267  Uiso   1.00
O13    O     0.34937   0.49070   0.16659   0.01267  Uiso   1.00
O14    O     0.14133   0.65063   0.16659   0.01267  Uiso   1.00
O15    O     0.50930   0.85867   0.16659   0.01267  Uiso   1.00
O16    O     0.65063   0.50930   0.66659   0.01267  Uiso   1.00
O17    O     0.85867   0.34937   0.66659   0.01267  Uiso   1.00
O18    O     0.49070   0.14133   0.66659   0.01267  Uiso   1.00
O19    O     0.85867   0.50930   0.83341   0.01267  Uiso   1.00
O20    O     0.49070   0.34937   0.83341   0.01267  Uiso   1.00
O21    O     0.65063   0.14133   0.83341   0.01267  Uiso   1.00
O22    O     0.14133   0.49070   0.33341   0.01267  Uiso   1.00
O23    O     0.50930   0.65063   0.33341   0.01267  Uiso   1.00
O24    O     0.34937   0.85867   0.33341   0.01267  Uiso   1.00
O25    O     0.66667   0.33334   0.75000   0.01267  Uiso   1.00
O26    O     0.33333   0.66666   0.25000   0.01267  Uiso   1.00
