data_OJIDAN_clean
_audit_creation_date              2014-07-02
_audit_creation_method            'Materials Studio'
_symmetry_space_group_name_H-M    'P1'
_symmetry_Int_Tables_number       1
_symmetry_cell_setting            triclinic
loop_
_symmetry_equiv_pos_as_xyz
  x,y,z
_cell_length_a                    16.8430
_cell_length_b                    31.4700
_cell_length_c                    31.4700
_cell_angle_alpha                 120.0000
_cell_angle_beta                  90.0000
_cell_angle_gamma                 90.0000
loop_
_atom_site_label
_atom_site_type_symbol
_atom_site_fract_x
_atom_site_fract_y
_atom_site_fract_z
_atom_site_U_iso_or_equiv
_atom_site_adp_type
_atom_site_occupancy
Sc1    Sc    0.64726   0.57059   0.49863   0.01267  Uiso   1.00
Sc2    Sc    0.64726   0.92804   0.42941   0.01267  Uiso   1.00
Sc3    Sc    0.64726   0.50137   0.07196   0.01267  Uiso   1.00
Sc4    Sc    0.85274   0.57059   0.49863   0.01267  Uiso   1.00
Sc5    Sc    0.85274   0.92804   0.42941   0.01267  Uiso   1.00
Sc6    Sc    0.85274   0.50137   0.07196   0.01267  Uiso   1.00
Sc7    Sc    0.35274   0.07196   0.50137   0.01267  Uiso   1.00
Sc8    Sc    0.35274   0.49863   0.57059   0.01267  Uiso   1.00
Sc9    Sc    0.35274   0.42941   0.92804   0.01267  Uiso   1.00
Sc10   Sc    0.14726   0.07196   0.50137   0.01267  Uiso   1.00
Sc11   Sc    0.14726   0.49863   0.57059   0.01267  Uiso   1.00
Sc12   Sc    0.14726   0.42941   0.92804   0.01267  Uiso   1.00
Sc13   Sc    0.75000   0.64212   0.46096   0.01267  Uiso   1.00
Sc14   Sc    0.75000   0.81884   0.35788   0.01267  Uiso   1.00
Sc15   Sc    0.75000   0.53904   0.18116   0.01267  Uiso   1.00
Sc16   Sc    0.25000   0.18116   0.53904   0.01267  Uiso   1.00
Sc17   Sc    0.25000   0.46096   0.64212   0.01267  Uiso   1.00
Sc18   Sc    0.25000   0.35788   0.81884   0.01267  Uiso   1.00
H1     H     0.36600   0.51990   0.15990   0.01267  Uiso   1.00
H2     H     0.37120   0.73400   0.61000   0.01267  Uiso   1.00
H3     H     0.36890   0.54920   0.23240   0.01267  Uiso   1.00
H4     H     0.46970   0.59960   0.29270   0.01267  Uiso   1.00
H5     H     0.36710   0.47560   0.07460   0.01267  Uiso   1.00
H6     H     0.47840   0.68280   0.58760   0.01267  Uiso   1.00
H7     H     0.36760   0.85220   0.57780   0.01267  Uiso   1.00
H8     H     0.56760   0.74440   0.51330   0.01267  Uiso   1.00
H9     H     0.58240   0.60360   0.33610   0.01267  Uiso   1.00
H10    H     0.45310   0.79150   0.53110   0.01267  Uiso   1.00
H11    H     0.45750   0.55370   0.41060   0.01267  Uiso   1.00
H12    H     0.34680   0.54940   0.36710   0.01267  Uiso   1.00
H13    H     0.34700   0.93910   0.61600   0.01267  Uiso   1.00
H14    H     0.35470   0.99670   0.59140   0.01267  Uiso   1.00
H15    H     0.36600   0.64000   0.48010   0.01267  Uiso   1.00
H16    H     0.37120   0.87600   0.26600   0.01267  Uiso   1.00
H17    H     0.36890   0.68320   0.45080   0.01267  Uiso   1.00
H18    H     0.46970   0.69310   0.40040   0.01267  Uiso   1.00
H19    H     0.36710   0.59900   0.52440   0.01267  Uiso   1.00
H20    H     0.47840   0.90480   0.31720   0.01267  Uiso   1.00
H21    H     0.36760   0.72560   0.14780   0.01267  Uiso   1.00
H22    H     0.56760   0.76890   0.25560   0.01267  Uiso   1.00
H23    H     0.58240   0.73250   0.39640   0.01267  Uiso   1.00
H24    H     0.45310   0.73960   0.20850   0.01267  Uiso   1.00
H25    H     0.45750   0.85690   0.44630   0.01267  Uiso   1.00
H26    H     0.34680   0.81770   0.45060   0.01267  Uiso   1.00
H27    H     0.34700   0.67690   0.06090   0.01267  Uiso   1.00
H28    H     0.35470   0.59470   0.00330   0.01267  Uiso   1.00
H29    H     0.36600   0.84010   0.36000   0.01267  Uiso   1.00
H30    H     0.37120   0.39000   0.12400   0.01267  Uiso   1.00
H31    H     0.36890   0.76760   0.31680   0.01267  Uiso   1.00
H32    H     0.46970   0.70730   0.30690   0.01267  Uiso   1.00
H33    H     0.36710   0.92540   0.40100   0.01267  Uiso   1.00
H34    H     0.47840   0.41240   0.09520   0.01267  Uiso   1.00
H35    H     0.36760   0.42220   0.27440   0.01267  Uiso   1.00
H36    H     0.56760   0.48670   0.23110   0.01267  Uiso   1.00
H37    H     0.58240   0.66390   0.26750   0.01267  Uiso   1.00
H38    H     0.45310   0.46890   0.26040   0.01267  Uiso   1.00
H39    H     0.45750   0.58940   0.14310   0.01267  Uiso   1.00
H40    H     0.34680   0.63290   0.18230   0.01267  Uiso   1.00
H41    H     0.34700   0.38400   0.32310   0.01267  Uiso   1.00
H42    H     0.35470   0.40860   0.40530   0.01267  Uiso   1.00
H43    H     0.13400   0.51990   0.15990   0.01267  Uiso   1.00
H44    H     0.12880   0.73400   0.61000   0.01267  Uiso   1.00
H45    H     0.13110   0.54920   0.23240   0.01267  Uiso   1.00
H46    H     0.03030   0.59960   0.29270   0.01267  Uiso   1.00
H47    H     0.13290   0.47560   0.07460   0.01267  Uiso   1.00
H48    H     0.02160   0.68280   0.58760   0.01267  Uiso   1.00
H49    H     0.13240   0.85220   0.57780   0.01267  Uiso   1.00
H50    H     0.93240   0.74440   0.51330   0.01267  Uiso   1.00
H51    H     0.91760   0.60360   0.33610   0.01267  Uiso   1.00
H52    H     0.04690   0.79150   0.53110   0.01267  Uiso   1.00
H53    H     0.04250   0.55370   0.41060   0.01267  Uiso   1.00
H54    H     0.15320   0.54940   0.36710   0.01267  Uiso   1.00
H55    H     0.15300   0.93910   0.61600   0.01267  Uiso   1.00
H56    H     0.14530   0.99670   0.59140   0.01267  Uiso   1.00
H57    H     0.13400   0.64000   0.48010   0.01267  Uiso   1.00
H58    H     0.12880   0.87600   0.26600   0.01267  Uiso   1.00
H59    H     0.13110   0.68320   0.45080   0.01267  Uiso   1.00
H60    H     0.03030   0.69310   0.40040   0.01267  Uiso   1.00
H61    H     0.13290   0.59900   0.52440   0.01267  Uiso   1.00
H62    H     0.02160   0.90480   0.31720   0.01267  Uiso   1.00
H63    H     0.13240   0.72560   0.14780   0.01267  Uiso   1.00
H64    H     0.93240   0.76890   0.25560   0.01267  Uiso   1.00
H65    H     0.91760   0.73250   0.39640   0.01267  Uiso   1.00
H66    H     0.04690   0.73960   0.20850   0.01267  Uiso   1.00
H67    H     0.04250   0.85690   0.44630   0.01267  Uiso   1.00
H68    H     0.15320   0.81770   0.45060   0.01267  Uiso   1.00
H69    H     0.15300   0.67690   0.06090   0.01267  Uiso   1.00
H70    H     0.14530   0.59470   0.00330   0.01267  Uiso   1.00
H71    H     0.13400   0.84010   0.36000   0.01267  Uiso   1.00
H72    H     0.12880   0.39000   0.12400   0.01267  Uiso   1.00
H73    H     0.13110   0.76760   0.31680   0.01267  Uiso   1.00
H74    H     0.03030   0.70730   0.30690   0.01267  Uiso   1.00
H75    H     0.13290   0.92540   0.40100   0.01267  Uiso   1.00
H76    H     0.02160   0.41240   0.09520   0.01267  Uiso   1.00
H77    H     0.13240   0.42220   0.27440   0.01267  Uiso   1.00
H78    H     0.93240   0.48670   0.23110   0.01267  Uiso   1.00
H79    H     0.91760   0.66390   0.26750   0.01267  Uiso   1.00
H80    H     0.04690   0.46890   0.26040   0.01267  Uiso   1.00
H81    H     0.04250   0.58940   0.14310   0.01267  Uiso   1.00
H82    H     0.15320   0.63290   0.18230   0.01267  Uiso   1.00
H83    H     0.15300   0.38400   0.32310   0.01267  Uiso   1.00
H84    H     0.14530   0.40860   0.40530   0.01267  Uiso   1.00
H85    H     0.63400   0.36000   0.84010   0.01267  Uiso   1.00
H86    H     0.62880   0.12400   0.39000   0.01267  Uiso   1.00
H87    H     0.63110   0.31680   0.76760   0.01267  Uiso   1.00
H88    H     0.53030   0.30690   0.70730   0.01267  Uiso   1.00
H89    H     0.63290   0.40100   0.92540   0.01267  Uiso   1.00
H90    H     0.52160   0.09520   0.41240   0.01267  Uiso   1.00
H91    H     0.63240   0.27440   0.42220   0.01267  Uiso   1.00
H92    H     0.43240   0.23110   0.48670   0.01267  Uiso   1.00
H93    H     0.41760   0.26750   0.66390   0.01267  Uiso   1.00
H94    H     0.54690   0.26040   0.46890   0.01267  Uiso   1.00
H95    H     0.54250   0.14310   0.58940   0.01267  Uiso   1.00
H96    H     0.65320   0.18230   0.63290   0.01267  Uiso   1.00
H97    H     0.65300   0.32310   0.38400   0.01267  Uiso   1.00
H98    H     0.64530   0.40530   0.40860   0.01267  Uiso   1.00
H99    H     0.63400   0.15990   0.51990   0.01267  Uiso   1.00
H100   H     0.62880   0.61000   0.73400   0.01267  Uiso   1.00
H101   H     0.63110   0.23240   0.54920   0.01267  Uiso   1.00
H102   H     0.53030   0.29270   0.59960   0.01267  Uiso   1.00
H103   H     0.63290   0.07460   0.47560   0.01267  Uiso   1.00
H104   H     0.52160   0.58760   0.68280   0.01267  Uiso   1.00
H105   H     0.63240   0.57780   0.85220   0.01267  Uiso   1.00
H106   H     0.43240   0.51330   0.74440   0.01267  Uiso   1.00
H107   H     0.41760   0.33610   0.60360   0.01267  Uiso   1.00
H108   H     0.54690   0.53110   0.79150   0.01267  Uiso   1.00
H109   H     0.54250   0.41060   0.55370   0.01267  Uiso   1.00
H110   H     0.65320   0.36710   0.54940   0.01267  Uiso   1.00
H111   H     0.65300   0.61600   0.93910   0.01267  Uiso   1.00
H112   H     0.64530   0.59140   0.99670   0.01267  Uiso   1.00
H113   H     0.63400   0.48010   0.64000   0.01267  Uiso   1.00
H114   H     0.62880   0.26600   0.87600   0.01267  Uiso   1.00
H115   H     0.63110   0.45080   0.68320   0.01267  Uiso   1.00
H116   H     0.53030   0.40040   0.69310   0.01267  Uiso   1.00
H117   H     0.63290   0.52440   0.59900   0.01267  Uiso   1.00
H118   H     0.52160   0.31720   0.90480   0.01267  Uiso   1.00
H119   H     0.63240   0.14780   0.72560   0.01267  Uiso   1.00
H120   H     0.43240   0.25560   0.76890   0.01267  Uiso   1.00
H121   H     0.41760   0.39640   0.73250   0.01267  Uiso   1.00
H122   H     0.54690   0.20850   0.73960   0.01267  Uiso   1.00
H123   H     0.54250   0.44630   0.85690   0.01267  Uiso   1.00
H124   H     0.65320   0.45060   0.81770   0.01267  Uiso   1.00
H125   H     0.65300   0.06090   0.67690   0.01267  Uiso   1.00
H126   H     0.64530   0.00330   0.59470   0.01267  Uiso   1.00
H127   H     0.86600   0.36000   0.84010   0.01267  Uiso   1.00
H128   H     0.87120   0.12400   0.39000   0.01267  Uiso   1.00
H129   H     0.86890   0.31680   0.76760   0.01267  Uiso   1.00
H130   H     0.96970   0.30690   0.70730   0.01267  Uiso   1.00
H131   H     0.86710   0.40100   0.92540   0.01267  Uiso   1.00
H132   H     0.97840   0.09520   0.41240   0.01267  Uiso   1.00
H133   H     0.86760   0.27440   0.42220   0.01267  Uiso   1.00
H134   H     0.06760   0.23110   0.48670   0.01267  Uiso   1.00
H135   H     0.08240   0.26750   0.66390   0.01267  Uiso   1.00
H136   H     0.95310   0.26040   0.46890   0.01267  Uiso   1.00
H137   H     0.95750   0.14310   0.58940   0.01267  Uiso   1.00
H138   H     0.84680   0.18230   0.63290   0.01267  Uiso   1.00
H139   H     0.84700   0.32310   0.38400   0.01267  Uiso   1.00
H140   H     0.85470   0.40530   0.40860   0.01267  Uiso   1.00
H141   H     0.86600   0.15990   0.51990   0.01267  Uiso   1.00
H142   H     0.87120   0.61000   0.73400   0.01267  Uiso   1.00
H143   H     0.86890   0.23240   0.54920   0.01267  Uiso   1.00
H144   H     0.96970   0.29270   0.59960   0.01267  Uiso   1.00
H145   H     0.86710   0.07460   0.47560   0.01267  Uiso   1.00
H146   H     0.97840   0.58760   0.68280   0.01267  Uiso   1.00
H147   H     0.86760   0.57780   0.85220   0.01267  Uiso   1.00
H148   H     0.06760   0.51330   0.74440   0.01267  Uiso   1.00
H149   H     0.08240   0.33610   0.60360   0.01267  Uiso   1.00
H150   H     0.95310   0.53110   0.79150   0.01267  Uiso   1.00
H151   H     0.95750   0.41060   0.55370   0.01267  Uiso   1.00
H152   H     0.84680   0.36710   0.54940   0.01267  Uiso   1.00
H153   H     0.84700   0.61600   0.93910   0.01267  Uiso   1.00
H154   H     0.85470   0.59140   0.99670   0.01267  Uiso   1.00
H155   H     0.86600   0.48010   0.64000   0.01267  Uiso   1.00
H156   H     0.87120   0.26600   0.87600   0.01267  Uiso   1.00
H157   H     0.86890   0.45080   0.68320   0.01267  Uiso   1.00
H158   H     0.96970   0.40040   0.69310   0.01267  Uiso   1.00
H159   H     0.86710   0.52440   0.59900   0.01267  Uiso   1.00
H160   H     0.97840   0.31720   0.90480   0.01267  Uiso   1.00
H161   H     0.86760   0.14780   0.72560   0.01267  Uiso   1.00
H162   H     0.06760   0.25560   0.76890   0.01267  Uiso   1.00
H163   H     0.08240   0.39640   0.73250   0.01267  Uiso   1.00
H164   H     0.95310   0.20850   0.73960   0.01267  Uiso   1.00
H165   H     0.95750   0.44630   0.85690   0.01267  Uiso   1.00
H166   H     0.84680   0.45060   0.81770   0.01267  Uiso   1.00
H167   H     0.84700   0.06090   0.67690   0.01267  Uiso   1.00
H168   H     0.85470   0.00330   0.59470   0.01267  Uiso   1.00
H169   H     0.25000   0.59210   0.35680   0.01267  Uiso   1.00
H170   H     0.25000   0.74070   0.57180   0.01267  Uiso   1.00
H171   H     0.25000   0.76470   0.40790   0.01267  Uiso   1.00
H172   H     0.25000   0.83110   0.25930   0.01267  Uiso   1.00
H173   H     0.25000   0.64320   0.23530   0.01267  Uiso   1.00
H174   H     0.25000   0.42820   0.16890   0.01267  Uiso   1.00
H175   H     0.75000   0.23530   0.64320   0.01267  Uiso   1.00
H176   H     0.75000   0.16890   0.42820   0.01267  Uiso   1.00
H177   H     0.75000   0.35680   0.59210   0.01267  Uiso   1.00
H178   H     0.75000   0.57180   0.74070   0.01267  Uiso   1.00
H179   H     0.75000   0.40790   0.76470   0.01267  Uiso   1.00
H180   H     0.75000   0.25930   0.83110   0.01267  Uiso   1.00
C1     C     0.32140   0.57110   0.29990   0.01267  Uiso   1.00
C2     C     0.39580   0.57440   0.32630   0.01267  Uiso   1.00
C3     C     0.53200   0.58010   0.37950   0.01267  Uiso   1.00
C4     C     0.31780   0.51040   0.14330   0.01267  Uiso   1.00
C5     C     0.39470   0.76680   0.57140   0.01267  Uiso   1.00
C6     C     0.40860   0.73530   0.58890   0.01267  Uiso   1.00
C7     C     0.32110   0.55440   0.24900   0.01267  Uiso   1.00
C8     C     0.46750   0.59060   0.31670   0.01267  Uiso   1.00
C9     C     0.31920   0.48370   0.09160   0.01267  Uiso   1.00
C10    C     0.32130   0.79340   0.57710   0.01267  Uiso   1.00
C11    C     0.47420   0.70570   0.57730   0.01267  Uiso   1.00
C12    C     0.31980   0.83740   0.57770   0.01267  Uiso   1.00
C13    C     0.52760   0.74170   0.53220   0.01267  Uiso   1.00
C14    C     0.53470   0.59310   0.34270   0.01267  Uiso   1.00
C15    C     0.45810   0.76990   0.54300   0.01267  Uiso   1.00
C16    C     0.60210   0.67690   0.53210   0.01267  Uiso   1.00
C17    C     0.60170   0.58300   0.40830   0.01267  Uiso   1.00
C18    C     0.46050   0.56340   0.38720   0.01267  Uiso   1.00
C19    C     0.39400   0.56070   0.36100   0.01267  Uiso   1.00
C20    C     0.53480   0.71070   0.54960   0.01267  Uiso   1.00
C21    C     0.30890   0.94020   0.59510   0.01267  Uiso   1.00
C22    C     0.31010   0.97670   0.58260   0.01267  Uiso   1.00
C23    C     0.32140   0.72880   0.42890   0.01267  Uiso   1.00
C24    C     0.39580   0.75190   0.42560   0.01267  Uiso   1.00
C25    C     0.53200   0.79940   0.41990   0.01267  Uiso   1.00
C26    C     0.31780   0.63290   0.48960   0.01267  Uiso   1.00
C27    C     0.39470   0.80460   0.23320   0.01267  Uiso   1.00
C28    C     0.40860   0.85360   0.26470   0.01267  Uiso   1.00
C29    C     0.32110   0.69460   0.44560   0.01267  Uiso   1.00
C30    C     0.46750   0.72610   0.40940   0.01267  Uiso   1.00
C31    C     0.31920   0.60790   0.51630   0.01267  Uiso   1.00
C32    C     0.32130   0.78370   0.20660   0.01267  Uiso   1.00
C33    C     0.47420   0.87160   0.29430   0.01267  Uiso   1.00
C34    C     0.31980   0.74030   0.16260   0.01267  Uiso   1.00
C35    C     0.52760   0.79050   0.25830   0.01267  Uiso   1.00
C36    C     0.53470   0.74960   0.40690   0.01267  Uiso   1.00
C37    C     0.45810   0.77310   0.23010   0.01267  Uiso   1.00
C38    C     0.60210   0.85520   0.32310   0.01267  Uiso   1.00
C39    C     0.60170   0.82530   0.41700   0.01267  Uiso   1.00
C40    C     0.46050   0.82380   0.43660   0.01267  Uiso   1.00
C41    C     0.39400   0.80030   0.43930   0.01267  Uiso   1.00
C42    C     0.53480   0.83890   0.28930   0.01267  Uiso   1.00
C43    C     0.30890   0.65490   0.05980   0.01267  Uiso   1.00
C44    C     0.31010   0.60590   0.02330   0.01267  Uiso   1.00
C45    C     0.32140   0.70010   0.27120   0.01267  Uiso   1.00
C46    C     0.39580   0.67370   0.24810   0.01267  Uiso   1.00
C47    C     0.53200   0.62050   0.20060   0.01267  Uiso   1.00
C48    C     0.31780   0.85670   0.36710   0.01267  Uiso   1.00
C49    C     0.39470   0.42860   0.19540   0.01267  Uiso   1.00
C50    C     0.40860   0.41110   0.14640   0.01267  Uiso   1.00
C51    C     0.32110   0.75100   0.30540   0.01267  Uiso   1.00
C52    C     0.46750   0.68330   0.27390   0.01267  Uiso   1.00
C53    C     0.31920   0.90840   0.39210   0.01267  Uiso   1.00
C54    C     0.32130   0.42290   0.21630   0.01267  Uiso   1.00
C55    C     0.47420   0.42270   0.12840   0.01267  Uiso   1.00
C56    C     0.31980   0.42230   0.25970   0.01267  Uiso   1.00
C57    C     0.52760   0.46780   0.20950   0.01267  Uiso   1.00
C58    C     0.53470   0.65730   0.25040   0.01267  Uiso   1.00
C59    C     0.45810   0.45700   0.22690   0.01267  Uiso   1.00
C60    C     0.60210   0.46790   0.14480   0.01267  Uiso   1.00
C61    C     0.60170   0.59170   0.17470   0.01267  Uiso   1.00
C62    C     0.46050   0.61280   0.17620   0.01267  Uiso   1.00
C63    C     0.39400   0.63900   0.19970   0.01267  Uiso   1.00
C64    C     0.53480   0.45040   0.16110   0.01267  Uiso   1.00
C65    C     0.30890   0.40490   0.34510   0.01267  Uiso   1.00
C66    C     0.31010   0.41740   0.39410   0.01267  Uiso   1.00
C67    C     0.17860   0.57110   0.29990   0.01267  Uiso   1.00
C68    C     0.10420   0.57440   0.32630   0.01267  Uiso   1.00
C69    C     0.96800   0.58010   0.37950   0.01267  Uiso   1.00
C70    C     0.18220   0.51040   0.14330   0.01267  Uiso   1.00
C71    C     0.10530   0.76680   0.57140   0.01267  Uiso   1.00
C72    C     0.09140   0.73530   0.58890   0.01267  Uiso   1.00
C73    C     0.17890   0.55440   0.24900   0.01267  Uiso   1.00
C74    C     0.03250   0.59060   0.31670   0.01267  Uiso   1.00
C75    C     0.18080   0.48370   0.09160   0.01267  Uiso   1.00
C76    C     0.17870   0.79340   0.57710   0.01267  Uiso   1.00
C77    C     0.02580   0.70570   0.57730   0.01267  Uiso   1.00
C78    C     0.18020   0.83740   0.57770   0.01267  Uiso   1.00
C79    C     0.97240   0.74170   0.53220   0.01267  Uiso   1.00
C80    C     0.96530   0.59310   0.34270   0.01267  Uiso   1.00
C81    C     0.04190   0.76990   0.54300   0.01267  Uiso   1.00
C82    C     0.89790   0.67690   0.53210   0.01267  Uiso   1.00
C83    C     0.89830   0.58300   0.40830   0.01267  Uiso   1.00
C84    C     0.03950   0.56340   0.38720   0.01267  Uiso   1.00
C85    C     0.10600   0.56070   0.36100   0.01267  Uiso   1.00
C86    C     0.96520   0.71070   0.54960   0.01267  Uiso   1.00
C87    C     0.19110   0.94020   0.59510   0.01267  Uiso   1.00
C88    C     0.18990   0.97670   0.58260   0.01267  Uiso   1.00
C89    C     0.17860   0.72880   0.42890   0.01267  Uiso   1.00
C90    C     0.10420   0.75190   0.42560   0.01267  Uiso   1.00
C91    C     0.96800   0.79940   0.41990   0.01267  Uiso   1.00
C92    C     0.18220   0.63290   0.48960   0.01267  Uiso   1.00
C93    C     0.10530   0.80460   0.23320   0.01267  Uiso   1.00
C94    C     0.09140   0.85360   0.26470   0.01267  Uiso   1.00
C95    C     0.17890   0.69460   0.44560   0.01267  Uiso   1.00
C96    C     0.03250   0.72610   0.40940   0.01267  Uiso   1.00
C97    C     0.18080   0.60790   0.51630   0.01267  Uiso   1.00
C98    C     0.17870   0.78370   0.20660   0.01267  Uiso   1.00
C99    C     0.02580   0.87160   0.29430   0.01267  Uiso   1.00
C100   C     0.18020   0.74030   0.16260   0.01267  Uiso   1.00
C101   C     0.97240   0.79050   0.25830   0.01267  Uiso   1.00
C102   C     0.96530   0.74960   0.40690   0.01267  Uiso   1.00
C103   C     0.04190   0.77310   0.23010   0.01267  Uiso   1.00
C104   C     0.89790   0.85520   0.32310   0.01267  Uiso   1.00
C105   C     0.89830   0.82530   0.41700   0.01267  Uiso   1.00
C106   C     0.03950   0.82380   0.43660   0.01267  Uiso   1.00
C107   C     0.10600   0.80030   0.43930   0.01267  Uiso   1.00
C108   C     0.96520   0.83890   0.28930   0.01267  Uiso   1.00
C109   C     0.19110   0.65490   0.05980   0.01267  Uiso   1.00
C110   C     0.18990   0.60590   0.02330   0.01267  Uiso   1.00
C111   C     0.17860   0.70010   0.27120   0.01267  Uiso   1.00
C112   C     0.10420   0.67370   0.24810   0.01267  Uiso   1.00
C113   C     0.96800   0.62050   0.20060   0.01267  Uiso   1.00
C114   C     0.18220   0.85670   0.36710   0.01267  Uiso   1.00
C115   C     0.10530   0.42860   0.19540   0.01267  Uiso   1.00
C116   C     0.09140   0.41110   0.14640   0.01267  Uiso   1.00
C117   C     0.17890   0.75100   0.30540   0.01267  Uiso   1.00
C118   C     0.03250   0.68330   0.27390   0.01267  Uiso   1.00
C119   C     0.18080   0.90840   0.39210   0.01267  Uiso   1.00
C120   C     0.17870   0.42290   0.21630   0.01267  Uiso   1.00
C121   C     0.02580   0.42270   0.12840   0.01267  Uiso   1.00
C122   C     0.18020   0.42230   0.25970   0.01267  Uiso   1.00
C123   C     0.97240   0.46780   0.20950   0.01267  Uiso   1.00
C124   C     0.96530   0.65730   0.25040   0.01267  Uiso   1.00
C125   C     0.04190   0.45700   0.22690   0.01267  Uiso   1.00
C126   C     0.89790   0.46790   0.14480   0.01267  Uiso   1.00
C127   C     0.89830   0.59170   0.17470   0.01267  Uiso   1.00
C128   C     0.03950   0.61280   0.17620   0.01267  Uiso   1.00
C129   C     0.10600   0.63900   0.19970   0.01267  Uiso   1.00
C130   C     0.96520   0.45040   0.16110   0.01267  Uiso   1.00
C131   C     0.19110   0.40490   0.34510   0.01267  Uiso   1.00
C132   C     0.18990   0.41740   0.39410   0.01267  Uiso   1.00
C133   C     0.67860   0.27120   0.70010   0.01267  Uiso   1.00
C134   C     0.60420   0.24810   0.67370   0.01267  Uiso   1.00
C135   C     0.46800   0.20060   0.62050   0.01267  Uiso   1.00
C136   C     0.68220   0.36710   0.85670   0.01267  Uiso   1.00
C137   C     0.60530   0.19540   0.42860   0.01267  Uiso   1.00
C138   C     0.59140   0.14640   0.41110   0.01267  Uiso   1.00
C139   C     0.67890   0.30540   0.75100   0.01267  Uiso   1.00
C140   C     0.53250   0.27390   0.68330   0.01267  Uiso   1.00
C141   C     0.68080   0.39210   0.90840   0.01267  Uiso   1.00
C142   C     0.67870   0.21630   0.42290   0.01267  Uiso   1.00
C143   C     0.52580   0.12840   0.42270   0.01267  Uiso   1.00
C144   C     0.68020   0.25970   0.42230   0.01267  Uiso   1.00
C145   C     0.47240   0.20950   0.46780   0.01267  Uiso   1.00
C146   C     0.46530   0.25040   0.65730   0.01267  Uiso   1.00
C147   C     0.54190   0.22690   0.45700   0.01267  Uiso   1.00
C148   C     0.39790   0.14480   0.46790   0.01267  Uiso   1.00
C149   C     0.39830   0.17470   0.59170   0.01267  Uiso   1.00
C150   C     0.53950   0.17620   0.61280   0.01267  Uiso   1.00
C151   C     0.60600   0.19970   0.63900   0.01267  Uiso   1.00
C152   C     0.46520   0.16110   0.45040   0.01267  Uiso   1.00
C153   C     0.69110   0.34510   0.40490   0.01267  Uiso   1.00
C154   C     0.68990   0.39410   0.41740   0.01267  Uiso   1.00
C155   C     0.67860   0.29990   0.57110   0.01267  Uiso   1.00
C156   C     0.60420   0.32630   0.57440   0.01267  Uiso   1.00
C157   C     0.46800   0.37950   0.58010   0.01267  Uiso   1.00
C158   C     0.68220   0.14330   0.51040   0.01267  Uiso   1.00
C159   C     0.60530   0.57140   0.76680   0.01267  Uiso   1.00
C160   C     0.59140   0.58890   0.73530   0.01267  Uiso   1.00
C161   C     0.67890   0.24900   0.55440   0.01267  Uiso   1.00
C162   C     0.53250   0.31670   0.59060   0.01267  Uiso   1.00
C163   C     0.68080   0.09160   0.48370   0.01267  Uiso   1.00
C164   C     0.67870   0.57710   0.79340   0.01267  Uiso   1.00
C165   C     0.52580   0.57730   0.70570   0.01267  Uiso   1.00
C166   C     0.68020   0.57770   0.83740   0.01267  Uiso   1.00
C167   C     0.47240   0.53220   0.74170   0.01267  Uiso   1.00
C168   C     0.46530   0.34270   0.59310   0.01267  Uiso   1.00
C169   C     0.54190   0.54300   0.76990   0.01267  Uiso   1.00
C170   C     0.39790   0.53210   0.67690   0.01267  Uiso   1.00
C171   C     0.39830   0.40830   0.58300   0.01267  Uiso   1.00
C172   C     0.53950   0.38720   0.56340   0.01267  Uiso   1.00
C173   C     0.60600   0.36100   0.56070   0.01267  Uiso   1.00
C174   C     0.46520   0.54960   0.71070   0.01267  Uiso   1.00
C175   C     0.69110   0.59510   0.94020   0.01267  Uiso   1.00
C176   C     0.68990   0.58260   0.97670   0.01267  Uiso   1.00
C177   C     0.67860   0.42890   0.72880   0.01267  Uiso   1.00
C178   C     0.60420   0.42560   0.75190   0.01267  Uiso   1.00
C179   C     0.46800   0.41990   0.79940   0.01267  Uiso   1.00
C180   C     0.68220   0.48960   0.63290   0.01267  Uiso   1.00
C181   C     0.60530   0.23320   0.80460   0.01267  Uiso   1.00
C182   C     0.59140   0.26470   0.85360   0.01267  Uiso   1.00
C183   C     0.67890   0.44560   0.69460   0.01267  Uiso   1.00
C184   C     0.53250   0.40940   0.72610   0.01267  Uiso   1.00
C185   C     0.68080   0.51630   0.60790   0.01267  Uiso   1.00
C186   C     0.67870   0.20660   0.78370   0.01267  Uiso   1.00
C187   C     0.52580   0.29430   0.87160   0.01267  Uiso   1.00
C188   C     0.68020   0.16260   0.74030   0.01267  Uiso   1.00
C189   C     0.47240   0.25830   0.79050   0.01267  Uiso   1.00
C190   C     0.46530   0.40690   0.74960   0.01267  Uiso   1.00
C191   C     0.54190   0.23010   0.77310   0.01267  Uiso   1.00
C192   C     0.39790   0.32310   0.85520   0.01267  Uiso   1.00
C193   C     0.39830   0.41700   0.82530   0.01267  Uiso   1.00
C194   C     0.53950   0.43660   0.82380   0.01267  Uiso   1.00
C195   C     0.60600   0.43930   0.80030   0.01267  Uiso   1.00
C196   C     0.46520   0.28930   0.83890   0.01267  Uiso   1.00
C197   C     0.69110   0.05980   0.65490   0.01267  Uiso   1.00
C198   C     0.68990   0.02330   0.60590   0.01267  Uiso   1.00
C199   C     0.82140   0.27120   0.70010   0.01267  Uiso   1.00
C200   C     0.89580   0.24810   0.67370   0.01267  Uiso   1.00
C201   C     0.03200   0.20060   0.62050   0.01267  Uiso   1.00
C202   C     0.81780   0.36710   0.85670   0.01267  Uiso   1.00
C203   C     0.89470   0.19540   0.42860   0.01267  Uiso   1.00
C204   C     0.90860   0.14640   0.41110   0.01267  Uiso   1.00
C205   C     0.82110   0.30540   0.75100   0.01267  Uiso   1.00
C206   C     0.96750   0.27390   0.68330   0.01267  Uiso   1.00
C207   C     0.81920   0.39210   0.90840   0.01267  Uiso   1.00
C208   C     0.82130   0.21630   0.42290   0.01267  Uiso   1.00
C209   C     0.97420   0.12840   0.42270   0.01267  Uiso   1.00
C210   C     0.81980   0.25970   0.42230   0.01267  Uiso   1.00
C211   C     0.02760   0.20950   0.46780   0.01267  Uiso   1.00
C212   C     0.03470   0.25040   0.65730   0.01267  Uiso   1.00
C213   C     0.95810   0.22690   0.45700   0.01267  Uiso   1.00
C214   C     0.10210   0.14480   0.46790   0.01267  Uiso   1.00
C215   C     0.10170   0.17470   0.59170   0.01267  Uiso   1.00
C216   C     0.96050   0.17620   0.61280   0.01267  Uiso   1.00
C217   C     0.89400   0.19970   0.63900   0.01267  Uiso   1.00
C218   C     0.03480   0.16110   0.45040   0.01267  Uiso   1.00
C219   C     0.80890   0.34510   0.40490   0.01267  Uiso   1.00
C220   C     0.81010   0.39410   0.41740   0.01267  Uiso   1.00
C221   C     0.82140   0.29990   0.57110   0.01267  Uiso   1.00
C222   C     0.89580   0.32630   0.57440   0.01267  Uiso   1.00
C223   C     0.03200   0.37950   0.58010   0.01267  Uiso   1.00
C224   C     0.81780   0.14330   0.51040   0.01267  Uiso   1.00
C225   C     0.89470   0.57140   0.76680   0.01267  Uiso   1.00
C226   C     0.90860   0.58890   0.73530   0.01267  Uiso   1.00
C227   C     0.82110   0.24900   0.55440   0.01267  Uiso   1.00
C228   C     0.96750   0.31670   0.59060   0.01267  Uiso   1.00
C229   C     0.81920   0.09160   0.48370   0.01267  Uiso   1.00
C230   C     0.82130   0.57710   0.79340   0.01267  Uiso   1.00
C231   C     0.97420   0.57730   0.70570   0.01267  Uiso   1.00
C232   C     0.81980   0.57770   0.83740   0.01267  Uiso   1.00
C233   C     0.02760   0.53220   0.74170   0.01267  Uiso   1.00
C234   C     0.03470   0.34270   0.59310   0.01267  Uiso   1.00
C235   C     0.95810   0.54300   0.76990   0.01267  Uiso   1.00
C236   C     0.10210   0.53210   0.67690   0.01267  Uiso   1.00
C237   C     0.10170   0.40830   0.58300   0.01267  Uiso   1.00
C238   C     0.96050   0.38720   0.56340   0.01267  Uiso   1.00
C239   C     0.89400   0.36100   0.56070   0.01267  Uiso   1.00
C240   C     0.03480   0.54960   0.71070   0.01267  Uiso   1.00
C241   C     0.80890   0.59510   0.94020   0.01267  Uiso   1.00
C242   C     0.81010   0.58260   0.97670   0.01267  Uiso   1.00
C243   C     0.82140   0.42890   0.72880   0.01267  Uiso   1.00
C244   C     0.89580   0.42560   0.75190   0.01267  Uiso   1.00
C245   C     0.03200   0.41990   0.79940   0.01267  Uiso   1.00
C246   C     0.81780   0.48960   0.63290   0.01267  Uiso   1.00
C247   C     0.89470   0.23320   0.80460   0.01267  Uiso   1.00
C248   C     0.90860   0.26470   0.85360   0.01267  Uiso   1.00
C249   C     0.82110   0.44560   0.69460   0.01267  Uiso   1.00
C250   C     0.96750   0.40940   0.72610   0.01267  Uiso   1.00
C251   C     0.81920   0.51630   0.60790   0.01267  Uiso   1.00
C252   C     0.82130   0.20660   0.78370   0.01267  Uiso   1.00
C253   C     0.97420   0.29430   0.87160   0.01267  Uiso   1.00
C254   C     0.81980   0.16260   0.74030   0.01267  Uiso   1.00
C255   C     0.02760   0.25830   0.79050   0.01267  Uiso   1.00
C256   C     0.03470   0.40690   0.74960   0.01267  Uiso   1.00
C257   C     0.95810   0.23010   0.77310   0.01267  Uiso   1.00
C258   C     0.10210   0.32310   0.85520   0.01267  Uiso   1.00
C259   C     0.10170   0.41700   0.82530   0.01267  Uiso   1.00
C260   C     0.96050   0.43660   0.82380   0.01267  Uiso   1.00
C261   C     0.89400   0.43930   0.80030   0.01267  Uiso   1.00
C262   C     0.03480   0.28930   0.83890   0.01267  Uiso   1.00
C263   C     0.80890   0.05980   0.65490   0.01267  Uiso   1.00
C264   C     0.81010   0.02330   0.60590   0.01267  Uiso   1.00
C265   C     0.25000   0.57960   0.32300   0.01267  Uiso   1.00
C266   C     0.25000   0.98560   0.55800   0.01267  Uiso   1.00
C267   C     0.25000   0.02320   0.54690   0.01267  Uiso   1.00
C268   C     0.25000   0.44090   0.01310   0.01267  Uiso   1.00
C269   C     0.25000   0.52300   0.17030   0.01267  Uiso   1.00
C270   C     0.25000   0.90620   0.57580   0.01267  Uiso   1.00
C271   C     0.25000   0.77170   0.57490   0.01267  Uiso   1.00
C272   C     0.25000   0.86010   0.57780   0.01267  Uiso   1.00
C273   C     0.25000   0.54560   0.22360   0.01267  Uiso   1.00
C274   C     0.25000   0.47030   0.06760   0.01267  Uiso   1.00
C275   C     0.25000   0.74340   0.42040   0.01267  Uiso   1.00
C276   C     0.25000   0.57240   0.01440   0.01267  Uiso   1.00
C277   C     0.25000   0.52370   0.97680   0.01267  Uiso   1.00
C278   C     0.25000   0.57220   0.55910   0.01267  Uiso   1.00
C279   C     0.25000   0.64730   0.47700   0.01267  Uiso   1.00
C280   C     0.25000   0.66960   0.09380   0.01267  Uiso   1.00
C281   C     0.25000   0.80320   0.22830   0.01267  Uiso   1.00
C282   C     0.25000   0.71770   0.13990   0.01267  Uiso   1.00
C283   C     0.25000   0.67800   0.45440   0.01267  Uiso   1.00
C284   C     0.25000   0.59730   0.52970   0.01267  Uiso   1.00
C285   C     0.25000   0.67700   0.25660   0.01267  Uiso   1.00
C286   C     0.25000   0.44200   0.42760   0.01267  Uiso   1.00
C287   C     0.25000   0.45310   0.47630   0.01267  Uiso   1.00
C288   C     0.25000   0.98690   0.42780   0.01267  Uiso   1.00
C289   C     0.25000   0.82970   0.35270   0.01267  Uiso   1.00
C290   C     0.25000   0.42420   0.33040   0.01267  Uiso   1.00
C291   C     0.25000   0.42510   0.19680   0.01267  Uiso   1.00
C292   C     0.25000   0.42220   0.28230   0.01267  Uiso   1.00
C293   C     0.25000   0.77640   0.32200   0.01267  Uiso   1.00
C294   C     0.25000   0.93240   0.40270   0.01267  Uiso   1.00
C295   C     0.75000   0.25660   0.67700   0.01267  Uiso   1.00
C296   C     0.75000   0.42760   0.44200   0.01267  Uiso   1.00
C297   C     0.75000   0.47630   0.45310   0.01267  Uiso   1.00
C298   C     0.75000   0.42780   0.98690   0.01267  Uiso   1.00
C299   C     0.75000   0.35270   0.82970   0.01267  Uiso   1.00
C300   C     0.75000   0.33040   0.42420   0.01267  Uiso   1.00
C301   C     0.75000   0.19680   0.42510   0.01267  Uiso   1.00
C302   C     0.75000   0.28230   0.42220   0.01267  Uiso   1.00
C303   C     0.75000   0.32200   0.77640   0.01267  Uiso   1.00
C304   C     0.75000   0.40270   0.93240   0.01267  Uiso   1.00
C305   C     0.75000   0.32300   0.57960   0.01267  Uiso   1.00
C306   C     0.75000   0.55800   0.98560   0.01267  Uiso   1.00
C307   C     0.75000   0.54690   0.02320   0.01267  Uiso   1.00
C308   C     0.75000   0.01310   0.44090   0.01267  Uiso   1.00
C309   C     0.75000   0.17030   0.52300   0.01267  Uiso   1.00
C310   C     0.75000   0.57580   0.90620   0.01267  Uiso   1.00
C311   C     0.75000   0.57490   0.77170   0.01267  Uiso   1.00
C312   C     0.75000   0.57780   0.86010   0.01267  Uiso   1.00
C313   C     0.75000   0.22360   0.54560   0.01267  Uiso   1.00
C314   C     0.75000   0.06760   0.47030   0.01267  Uiso   1.00
C315   C     0.75000   0.42040   0.74340   0.01267  Uiso   1.00
C316   C     0.75000   0.01440   0.57240   0.01267  Uiso   1.00
C317   C     0.75000   0.97680   0.52370   0.01267  Uiso   1.00
C318   C     0.75000   0.55910   0.57220   0.01267  Uiso   1.00
C319   C     0.75000   0.47700   0.64730   0.01267  Uiso   1.00
C320   C     0.75000   0.09380   0.66960   0.01267  Uiso   1.00
C321   C     0.75000   0.22830   0.80320   0.01267  Uiso   1.00
C322   C     0.75000   0.13990   0.71770   0.01267  Uiso   1.00
C323   C     0.75000   0.45440   0.67800   0.01267  Uiso   1.00
C324   C     0.75000   0.52970   0.59730   0.01267  Uiso   1.00
O1     O     0.59350   0.56999   0.44012   0.01267  Uiso   1.00
O2     O     0.31510   0.03980   0.54210   0.01267  Uiso   1.00
O3     O     0.66290   0.60510   0.40640   0.01267  Uiso   1.00
O4     O     0.31460   0.43110   0.99205   0.01267  Uiso   1.00
O5     O     0.65630   0.68253   0.50917   0.01267  Uiso   1.00
O6     O     0.60240   0.64159   0.54204   0.01267  Uiso   1.00
O7     O     0.59350   0.87013   0.43001   0.01267  Uiso   1.00
O8     O     0.31510   0.50230   0.96020   0.01267  Uiso   1.00
O9     O     0.66290   0.80130   0.39490   0.01267  Uiso   1.00
O10    O     0.31460   0.56095   0.56890   0.01267  Uiso   1.00
O11    O     0.65630   0.82664   0.31747   0.01267  Uiso   1.00
O12    O     0.60240   0.90045   0.35841   0.01267  Uiso   1.00
O13    O     0.59350   0.55988   0.12987   0.01267  Uiso   1.00
O14    O     0.31510   0.45790   0.49770   0.01267  Uiso   1.00
O15    O     0.66290   0.59360   0.19870   0.01267  Uiso   1.00
O16    O     0.31460   0.00795   0.43905   0.01267  Uiso   1.00
O17    O     0.65630   0.49083   0.17336   0.01267  Uiso   1.00
O18    O     0.60240   0.45796   0.09955   0.01267  Uiso   1.00
O19    O     0.90650   0.56999   0.44012   0.01267  Uiso   1.00
O20    O     0.18490   0.03980   0.54210   0.01267  Uiso   1.00
O21    O     0.83710   0.60510   0.40640   0.01267  Uiso   1.00
O22    O     0.18540   0.43110   0.99205   0.01267  Uiso   1.00
O23    O     0.84370   0.68253   0.50917   0.01267  Uiso   1.00
O24    O     0.89760   0.64159   0.54204   0.01267  Uiso   1.00
O25    O     0.90650   0.87013   0.43001   0.01267  Uiso   1.00
O26    O     0.18490   0.50230   0.96020   0.01267  Uiso   1.00
O27    O     0.83710   0.80130   0.39490   0.01267  Uiso   1.00
O28    O     0.18540   0.56095   0.56890   0.01267  Uiso   1.00
O29    O     0.84370   0.82664   0.31747   0.01267  Uiso   1.00
O30    O     0.89760   0.90045   0.35841   0.01267  Uiso   1.00
O31    O     0.90650   0.55988   0.12987   0.01267  Uiso   1.00
O32    O     0.18490   0.45790   0.49770   0.01267  Uiso   1.00
O33    O     0.83710   0.59360   0.19870   0.01267  Uiso   1.00
O34    O     0.18540   0.00795   0.43905   0.01267  Uiso   1.00
O35    O     0.84370   0.49083   0.17336   0.01267  Uiso   1.00
O36    O     0.89760   0.45796   0.09955   0.01267  Uiso   1.00
O37    O     0.40650   0.12987   0.55988   0.01267  Uiso   1.00
O38    O     0.68490   0.49770   0.45790   0.01267  Uiso   1.00
O39    O     0.33710   0.19870   0.59360   0.01267  Uiso   1.00
O40    O     0.68540   0.43905   0.00795   0.01267  Uiso   1.00
O41    O     0.34370   0.17336   0.49083   0.01267  Uiso   1.00
O42    O     0.39760   0.09955   0.45796   0.01267  Uiso   1.00
O43    O     0.40650   0.44012   0.56999   0.01267  Uiso   1.00
O44    O     0.68490   0.54210   0.03980   0.01267  Uiso   1.00
O45    O     0.33710   0.40640   0.60510   0.01267  Uiso   1.00
O46    O     0.68540   0.99205   0.43110   0.01267  Uiso   1.00
O47    O     0.34370   0.50917   0.68253   0.01267  Uiso   1.00
O48    O     0.39760   0.54204   0.64159   0.01267  Uiso   1.00
O49    O     0.40650   0.43001   0.87013   0.01267  Uiso   1.00
O50    O     0.68490   0.96020   0.50230   0.01267  Uiso   1.00
O51    O     0.33710   0.39490   0.80130   0.01267  Uiso   1.00
O52    O     0.68540   0.56890   0.56095   0.01267  Uiso   1.00
O53    O     0.34370   0.31747   0.82664   0.01267  Uiso   1.00
O54    O     0.39760   0.35841   0.90045   0.01267  Uiso   1.00
O55    O     0.09350   0.12987   0.55988   0.01267  Uiso   1.00
O56    O     0.81510   0.49770   0.45790   0.01267  Uiso   1.00
O57    O     0.16290   0.19870   0.59360   0.01267  Uiso   1.00
O58    O     0.81460   0.43905   0.00795   0.01267  Uiso   1.00
O59    O     0.15630   0.17336   0.49083   0.01267  Uiso   1.00
O60    O     0.10240   0.09955   0.45796   0.01267  Uiso   1.00
O61    O     0.09350   0.44012   0.56999   0.01267  Uiso   1.00
O62    O     0.81510   0.54210   0.03980   0.01267  Uiso   1.00
O63    O     0.16290   0.40640   0.60510   0.01267  Uiso   1.00
O64    O     0.81460   0.99205   0.43110   0.01267  Uiso   1.00
O65    O     0.15630   0.50917   0.68253   0.01267  Uiso   1.00
O66    O     0.10240   0.54204   0.64159   0.01267  Uiso   1.00
O67    O     0.09350   0.43001   0.87013   0.01267  Uiso   1.00
O68    O     0.81510   0.96020   0.50230   0.01267  Uiso   1.00
O69    O     0.16290   0.39490   0.80130   0.01267  Uiso   1.00
O70    O     0.81460   0.56890   0.56095   0.01267  Uiso   1.00
O71    O     0.15630   0.31747   0.82664   0.01267  Uiso   1.00
O72    O     0.10240   0.35841   0.90045   0.01267  Uiso   1.00
O73    O     0.75000   0.59340   0.48574   0.01267  Uiso   1.00
O74    O     0.75000   0.89234   0.40660   0.01267  Uiso   1.00
O75    O     0.75000   0.51426   0.10766   0.01267  Uiso   1.00
O76    O     0.25000   0.10766   0.51426   0.01267  Uiso   1.00
O77    O     0.25000   0.48574   0.59340   0.01267  Uiso   1.00
O78    O     0.25000   0.40660   0.89234   0.01267  Uiso   1.00
