data_OJIWIO_clean
_audit_creation_date              2014-07-02
_audit_creation_method            'Materials Studio'
_symmetry_space_group_name_H-M    'P1'
_symmetry_Int_Tables_number       1
_symmetry_cell_setting            triclinic
loop_
_symmetry_equiv_pos_as_xyz
  x,y,z
_cell_length_a                    11.2170
_cell_length_b                    11.5260
_cell_length_c                    17.7030
_cell_angle_alpha                 90.0000
_cell_angle_beta                  90.0000
_cell_angle_gamma                 106.9170
loop_
_atom_site_label
_atom_site_type_symbol
_atom_site_fract_x
_atom_site_fract_y
_atom_site_fract_z
_atom_site_U_iso_or_equiv
_atom_site_adp_type
_atom_site_occupancy
Zn1    Zn    0.45895   0.86465   0.99223   0.01267  Uiso   1.00
Zn2    Zn    0.04105   0.13535   0.49223   0.01267  Uiso   1.00
Zn3    Zn    0.54105   0.13535   0.00777   0.01267  Uiso   1.00
Zn4    Zn    0.95895   0.86465   0.50777   0.01267  Uiso   1.00
H1     H     0.64830   0.85890   0.63480   0.01267  Uiso   1.00
H2     H     0.55590   0.84610   0.75380   0.01267  Uiso   1.00
H3     H     0.70360   0.20550   0.78110   0.01267  Uiso   1.00
H4     H     0.80510   0.21870   0.66400   0.01267  Uiso   1.00
H5     H     0.21240   0.70640   0.03540   0.01267  Uiso   1.00
H6     H     0.09720   0.50280   0.03910   0.01267  Uiso   1.00
H7     H     0.38040   0.42430   0.93380   0.01267  Uiso   1.00
H8     H     0.48540   0.62830   0.93050   0.01267  Uiso   1.00
H9     H     0.90260   0.12630   0.84310   0.01267  Uiso   1.00
H10    H     0.20150   0.08110   0.15180   0.01267  Uiso   1.00
H11    H     0.85170   0.14110   0.13480   0.01267  Uiso   1.00
H12    H     0.94410   0.15390   0.25380   0.01267  Uiso   1.00
H13    H     0.79640   0.79450   0.28110   0.01267  Uiso   1.00
H14    H     0.69490   0.78130   0.16400   0.01267  Uiso   1.00
H15    H     0.28760   0.29360   0.53540   0.01267  Uiso   1.00
H16    H     0.40280   0.49720   0.53910   0.01267  Uiso   1.00
H17    H     0.11960   0.57570   0.43380   0.01267  Uiso   1.00
H18    H     0.01460   0.37170   0.43050   0.01267  Uiso   1.00
H19    H     0.59740   0.87370   0.34310   0.01267  Uiso   1.00
H20    H     0.29850   0.91890   0.65180   0.01267  Uiso   1.00
H21    H     0.35170   0.14110   0.36520   0.01267  Uiso   1.00
H22    H     0.44410   0.15390   0.24620   0.01267  Uiso   1.00
H23    H     0.29640   0.79450   0.21890   0.01267  Uiso   1.00
H24    H     0.19490   0.78130   0.33600   0.01267  Uiso   1.00
H25    H     0.78760   0.29360   0.96460   0.01267  Uiso   1.00
H26    H     0.90280   0.49720   0.96090   0.01267  Uiso   1.00
H27    H     0.61960   0.57570   0.06620   0.01267  Uiso   1.00
H28    H     0.51460   0.37170   0.06950   0.01267  Uiso   1.00
H29    H     0.09740   0.87370   0.15690   0.01267  Uiso   1.00
H30    H     0.79850   0.91890   0.84820   0.01267  Uiso   1.00
H31    H     0.14830   0.85890   0.86520   0.01267  Uiso   1.00
H32    H     0.05590   0.84610   0.74620   0.01267  Uiso   1.00
H33    H     0.20360   0.20550   0.71890   0.01267  Uiso   1.00
H34    H     0.30510   0.21870   0.83600   0.01267  Uiso   1.00
H35    H     0.71240   0.70640   0.46460   0.01267  Uiso   1.00
H36    H     0.59720   0.50280   0.46090   0.01267  Uiso   1.00
H37    H     0.88040   0.42430   0.56620   0.01267  Uiso   1.00
H38    H     0.98540   0.62830   0.56950   0.01267  Uiso   1.00
H39    H     0.40260   0.12630   0.65690   0.01267  Uiso   1.00
H40    H     0.70150   0.08110   0.34820   0.01267  Uiso   1.00
C1     C     0.81600   0.04410   0.56650   0.01267  Uiso   1.00
C2     C     0.74070   0.03960   0.63870   0.01267  Uiso   1.00
C3     C     0.66290   0.92860   0.66500   0.01267  Uiso   1.00
C4     C     0.60680   0.92120   0.73630   0.01267  Uiso   1.00
C5     C     0.62580   0.02380   0.78140   0.01267  Uiso   1.00
C6     C     0.69580   0.13460   0.75280   0.01267  Uiso   1.00
C7     C     0.75560   0.14320   0.68190   0.01267  Uiso   1.00
C8     C     0.57650   0.01440   0.86240   0.01267  Uiso   1.00
C9     C     0.24730   0.64820   0.01530   0.01267  Uiso   1.00
C10    C     0.17750   0.52610   0.01790   0.01267  Uiso   1.00
C11    C     0.22820   0.44130   0.98910   0.01267  Uiso   1.00
C12    C     0.34450   0.48060   0.95550   0.01267  Uiso   1.00
C13    C     0.40720   0.60250   0.95430   0.01267  Uiso   1.00
C14    C     0.18900   0.24440   0.05280   0.01267  Uiso   1.00
C15    C     0.11900   0.11560   0.05610   0.01267  Uiso   1.00
C16    C     0.03200   0.06460   0.99880   0.01267  Uiso   1.00
C17    C     0.00330   0.13370   0.93850   0.01267  Uiso   1.00
C18    C     0.06790   0.26670   0.93680   0.01267  Uiso   1.00
C19    C     0.91870   0.07930   0.88310   0.01267  Uiso   1.00
C20    C     0.14330   0.04530   0.11420   0.01267  Uiso   1.00
C21    C     0.68400   0.95590   0.06650   0.01267  Uiso   1.00
C22    C     0.75930   0.96040   0.13870   0.01267  Uiso   1.00
C23    C     0.83710   0.07140   0.16500   0.01267  Uiso   1.00
C24    C     0.89320   0.07880   0.23630   0.01267  Uiso   1.00
C25    C     0.87420   0.97620   0.28140   0.01267  Uiso   1.00
C26    C     0.80420   0.86540   0.25280   0.01267  Uiso   1.00
C27    C     0.74440   0.85680   0.18190   0.01267  Uiso   1.00
C28    C     0.92350   0.98560   0.36240   0.01267  Uiso   1.00
C29    C     0.25270   0.35180   0.51530   0.01267  Uiso   1.00
C30    C     0.32250   0.47390   0.51790   0.01267  Uiso   1.00
C31    C     0.27180   0.55870   0.48910   0.01267  Uiso   1.00
C32    C     0.15550   0.51940   0.45550   0.01267  Uiso   1.00
C33    C     0.09280   0.39750   0.45430   0.01267  Uiso   1.00
C34    C     0.31100   0.75560   0.55280   0.01267  Uiso   1.00
C35    C     0.38100   0.88440   0.55610   0.01267  Uiso   1.00
C36    C     0.46800   0.93540   0.49880   0.01267  Uiso   1.00
C37    C     0.49670   0.86630   0.43850   0.01267  Uiso   1.00
C38    C     0.43210   0.73330   0.43680   0.01267  Uiso   1.00
C39    C     0.58130   0.92070   0.38310   0.01267  Uiso   1.00
C40    C     0.35670   0.95470   0.61420   0.01267  Uiso   1.00
C41    C     0.18400   0.95590   0.43350   0.01267  Uiso   1.00
C42    C     0.25930   0.96040   0.36130   0.01267  Uiso   1.00
C43    C     0.33710   0.07140   0.33500   0.01267  Uiso   1.00
C44    C     0.39320   0.07880   0.26370   0.01267  Uiso   1.00
C45    C     0.37420   0.97620   0.21860   0.01267  Uiso   1.00
C46    C     0.30420   0.86540   0.24720   0.01267  Uiso   1.00
C47    C     0.24440   0.85680   0.31810   0.01267  Uiso   1.00
C48    C     0.42350   0.98560   0.13760   0.01267  Uiso   1.00
C49    C     0.75270   0.35180   0.98470   0.01267  Uiso   1.00
C50    C     0.82250   0.47390   0.98210   0.01267  Uiso   1.00
C51    C     0.77180   0.55870   0.01090   0.01267  Uiso   1.00
C52    C     0.65550   0.51940   0.04450   0.01267  Uiso   1.00
C53    C     0.59280   0.39750   0.04570   0.01267  Uiso   1.00
C54    C     0.81100   0.75560   0.94720   0.01267  Uiso   1.00
C55    C     0.88100   0.88440   0.94390   0.01267  Uiso   1.00
C56    C     0.96800   0.93540   0.00120   0.01267  Uiso   1.00
C57    C     0.99670   0.86630   0.06150   0.01267  Uiso   1.00
C58    C     0.93210   0.73330   0.06320   0.01267  Uiso   1.00
C59    C     0.08130   0.92070   0.11690   0.01267  Uiso   1.00
C60    C     0.85670   0.95470   0.88580   0.01267  Uiso   1.00
C61    C     0.31600   0.04410   0.93350   0.01267  Uiso   1.00
C62    C     0.24070   0.03960   0.86130   0.01267  Uiso   1.00
C63    C     0.16290   0.92860   0.83500   0.01267  Uiso   1.00
C64    C     0.10680   0.92120   0.76370   0.01267  Uiso   1.00
C65    C     0.12580   0.02380   0.71860   0.01267  Uiso   1.00
C66    C     0.19580   0.13460   0.74720   0.01267  Uiso   1.00
C67    C     0.25560   0.14320   0.81810   0.01267  Uiso   1.00
C68    C     0.07650   0.01440   0.63760   0.01267  Uiso   1.00
C69    C     0.74730   0.64820   0.48470   0.01267  Uiso   1.00
C70    C     0.67750   0.52610   0.48210   0.01267  Uiso   1.00
C71    C     0.72820   0.44130   0.51090   0.01267  Uiso   1.00
C72    C     0.84450   0.48060   0.54450   0.01267  Uiso   1.00
C73    C     0.90720   0.60250   0.54570   0.01267  Uiso   1.00
C74    C     0.68900   0.24440   0.44720   0.01267  Uiso   1.00
C75    C     0.61900   0.11560   0.44390   0.01267  Uiso   1.00
C76    C     0.53200   0.06460   0.50120   0.01267  Uiso   1.00
C77    C     0.50330   0.13370   0.56150   0.01267  Uiso   1.00
C78    C     0.56790   0.26670   0.56320   0.01267  Uiso   1.00
C79    C     0.41870   0.07930   0.61690   0.01267  Uiso   1.00
C80    C     0.64330   0.04530   0.38580   0.01267  Uiso   1.00
N1     N     0.36070   0.68560   0.98570   0.01267  Uiso   1.00
N2     N     0.16000   0.31190   0.99200   0.01267  Uiso   1.00
N3     N     0.13930   0.31440   0.48570   0.01267  Uiso   1.00
N4     N     0.34000   0.68810   0.49200   0.01267  Uiso   1.00
N5     N     0.63930   0.31440   0.01430   0.01267  Uiso   1.00
N6     N     0.84000   0.68810   0.00800   0.01267  Uiso   1.00
N7     N     0.86070   0.68560   0.51430   0.01267  Uiso   1.00
N8     N     0.66000   0.31190   0.50800   0.01267  Uiso   1.00
O1     O     0.81750   0.94220   0.53910   0.01267  Uiso   1.00
O2     O     0.87610   0.14640   0.54080   0.01267  Uiso   1.00
O3     O     0.52930   0.90700   0.88750   0.01267  Uiso   1.00
O4     O     0.59090   0.11110   0.89790   0.01267  Uiso   1.00
O5     O     0.27150   0.29800   0.09780   0.01267  Uiso   1.00
O6     O     0.04470   0.33520   0.88900   0.01267  Uiso   1.00
O7     O     0.68250   0.05780   0.03910   0.01267  Uiso   1.00
O8     O     0.62390   0.85360   0.04080   0.01267  Uiso   1.00
O9     O     0.97070   0.09300   0.38750   0.01267  Uiso   1.00
O10    O     0.90910   0.88890   0.39790   0.01267  Uiso   1.00
O11    O     0.22850   0.70200   0.59780   0.01267  Uiso   1.00
O12    O     0.45530   0.66480   0.38900   0.01267  Uiso   1.00
O13    O     0.18250   0.05780   0.46090   0.01267  Uiso   1.00
O14    O     0.12390   0.85360   0.45920   0.01267  Uiso   1.00
O15    O     0.47070   0.09300   0.11250   0.01267  Uiso   1.00
O16    O     0.40910   0.88890   0.10210   0.01267  Uiso   1.00
O17    O     0.72850   0.70200   0.90220   0.01267  Uiso   1.00
O18    O     0.95530   0.66480   0.11100   0.01267  Uiso   1.00
O19    O     0.31750   0.94220   0.96090   0.01267  Uiso   1.00
O20    O     0.37610   0.14640   0.95920   0.01267  Uiso   1.00
O21    O     0.02930   0.90700   0.61250   0.01267  Uiso   1.00
O22    O     0.09090   0.11110   0.60210   0.01267  Uiso   1.00
O23    O     0.77150   0.29800   0.40220   0.01267  Uiso   1.00
O24    O     0.54470   0.33520   0.61100   0.01267  Uiso   1.00
