data_OJONOQ_clean
_audit_creation_date              2014-07-02
_audit_creation_method            'Materials Studio'
_symmetry_space_group_name_H-M    'P1'
_symmetry_Int_Tables_number       1
_symmetry_cell_setting            triclinic
loop_
_symmetry_equiv_pos_as_xyz
  x,y,z
_cell_length_a                    7.2308
_cell_length_b                    17.9845
_cell_length_c                    17.9845
_cell_angle_alpha                 61.7670
_cell_angle_beta                  82.2981
_cell_angle_gamma                 97.7019
loop_
_atom_site_label
_atom_site_type_symbol
_atom_site_fract_x
_atom_site_fract_y
_atom_site_fract_z
_atom_site_U_iso_or_equiv
_atom_site_adp_type
_atom_site_occupancy
Er1    Er    0.78323   0.00052   0.66851   0.01267  Uiso   1.00
Er2    Er    0.45174   0.66851   0.33097   0.01267  Uiso   1.00
Er3    Er    0.78271   0.33097   0.00052   0.01267  Uiso   1.00
Er4    Er    0.21677   0.99948   0.33149   0.01267  Uiso   1.00
Er5    Er    0.54826   0.33149   0.66903   0.01267  Uiso   1.00
Er6    Er    0.21729   0.66903   0.99948   0.01267  Uiso   1.00
C1     C     0.07610   0.03970   0.49040   0.01267  Uiso   1.00
C2     C     0.57320   0.13340   0.70740   0.01267  Uiso   1.00
C3     C     0.74300   0.19530   0.63040   0.01267  Uiso   1.00
C4     C     0.56650   0.49040   0.46990   0.01267  Uiso   1.00
C5     C     0.28060   0.70740   0.15920   0.01267  Uiso   1.00
C6     C     0.37340   0.63040   0.17430   0.01267  Uiso   1.00
C7     C     0.03640   0.46990   0.03970   0.01267  Uiso   1.00
C8     C     0.43980   0.15920   0.13340   0.01267  Uiso   1.00
C9     C     0.54770   0.17430   0.19530   0.01267  Uiso   1.00
C10    C     0.92390   0.96030   0.50960   0.01267  Uiso   1.00
C11    C     0.42680   0.86660   0.29260   0.01267  Uiso   1.00
C12    C     0.25700   0.80470   0.36960   0.01267  Uiso   1.00
C13    C     0.43350   0.50960   0.53010   0.01267  Uiso   1.00
C14    C     0.71940   0.29260   0.84080   0.01267  Uiso   1.00
C15    C     0.62660   0.36960   0.82570   0.01267  Uiso   1.00
C16    C     0.96360   0.53010   0.96030   0.01267  Uiso   1.00
C17    C     0.56020   0.84080   0.86660   0.01267  Uiso   1.00
C18    C     0.45230   0.82570   0.80470   0.01267  Uiso   1.00
O1     O     0.55577   0.05484   0.73243   0.01267  Uiso   1.00
O2     O     0.84570   0.16134   0.60064   0.01267  Uiso   1.00
O3     O     0.05010   0.06859   0.54149   0.01267  Uiso   1.00
O4     O     0.20943   0.06870   0.42511   0.01267  Uiso   1.00
O5     O     0.46876   0.16790   0.73662   0.01267  Uiso   1.00
O6     O     0.76060   0.27436   0.60506   0.01267  Uiso   1.00
O7     O     0.28820   0.73243   0.21273   0.01267  Uiso   1.00
O8     O     0.44634   0.60064   0.23802   0.01267  Uiso   1.00
O9     O     0.59159   0.54149   0.38992   0.01267  Uiso   1.00
O10    O     0.63454   0.42511   0.50619   0.01267  Uiso   1.00
O11    O     0.20538   0.73662   0.09548   0.01267  Uiso   1.00
O12    O     0.36566   0.60506   0.12058   0.01267  Uiso   1.00
O13    O     0.50093   0.21273   0.05484   0.01267  Uiso   1.00
O14    O     0.68436   0.23802   0.16134   0.01267  Uiso   1.00
O15    O     0.98151   0.38992   0.06859   0.01267  Uiso   1.00
O16    O     0.14073   0.50619   0.06870   0.01267  Uiso   1.00
O17    O     0.30086   0.09548   0.16790   0.01267  Uiso   1.00
O18    O     0.48624   0.12058   0.27436   0.01267  Uiso   1.00
O19    O     0.44423   0.94516   0.26757   0.01267  Uiso   1.00
O20    O     0.15430   0.83866   0.39936   0.01267  Uiso   1.00
O21    O     0.94990   0.93141   0.45851   0.01267  Uiso   1.00
O22    O     0.79057   0.93130   0.57489   0.01267  Uiso   1.00
O23    O     0.53124   0.83210   0.26338   0.01267  Uiso   1.00
O24    O     0.23940   0.72564   0.39494   0.01267  Uiso   1.00
O25    O     0.71180   0.26757   0.78727   0.01267  Uiso   1.00
O26    O     0.55366   0.39936   0.76198   0.01267  Uiso   1.00
O27    O     0.40841   0.45851   0.61008   0.01267  Uiso   1.00
O28    O     0.36546   0.57489   0.49381   0.01267  Uiso   1.00
O29    O     0.79462   0.26338   0.90452   0.01267  Uiso   1.00
O30    O     0.63434   0.39494   0.87942   0.01267  Uiso   1.00
O31    O     0.49907   0.78727   0.94516   0.01267  Uiso   1.00
O32    O     0.31564   0.76198   0.83866   0.01267  Uiso   1.00
O33    O     0.01849   0.61008   0.93141   0.01267  Uiso   1.00
O34    O     0.85927   0.49381   0.93130   0.01267  Uiso   1.00
O35    O     0.69914   0.90452   0.83210   0.01267  Uiso   1.00
O36    O     0.51376   0.87942   0.72564   0.01267  Uiso   1.00
