data_image0
_cell_length_a       15.954
_cell_length_b       19.226
_cell_length_c       16.734
_cell_angle_alpha    90
_cell_angle_beta     96.828
_cell_angle_gamma    90

_symmetry_space_group_name_H-M    "P 1"
_symmetry_int_tables_number       1

loop_
  _symmetry_equiv_pos_as_xyz
  'x, y, z'

loop_
  _atom_site_label
  _atom_site_occupancy
  _atom_site_fract_x
  _atom_site_fract_y
  _atom_site_fract_z
  _atom_site_thermal_displace_type
  _atom_site_B_iso_or_equiv
  _atom_site_type_symbol
  Zn1      1.0000 0.53449  0.42732  0.53330  Biso   1.000  Zn
  Zn2      1.0000 0.33372  0.43102  0.50184  Biso   1.000  Zn
  O1       1.0000 0.48610  0.35740  0.60840  Biso   1.000  O
  O2       1.0000 0.34540  0.36610  0.59610  Biso   1.000  O
  O3       1.0000 0.48870  0.12420  0.92680  Biso   1.000  O
  O4       1.0000 0.34960  0.13490  0.91530  Biso   1.000  O
  O5       1.0000 0.21490  0.45200  0.47500  Biso   1.000  O
  O6       1.0000 0.22310  0.50010  0.59510  Biso   1.000  O
  O7       1.0000 0.42730  0.49431  0.53700  Biso   1.000  O
  N1       1.0000 0.57680  0.19760  0.82910  Biso   1.000  N
  H1       1.0000 0.57720  0.15800  0.85300  Biso   1.000  H
  N2       1.0000 0.26060  0.30150  0.70040  Biso   1.000  N
  H2       1.0000 0.26210  0.33810  0.67100  Biso   1.000  H
  N3       1.0000 0.91780  0.46550  0.34720  Biso   1.000  N
  H3       1.0000 0.86820  0.44790  0.34690  Biso   1.000  H
  C1       1.0000 0.72670  0.18520  0.84270  Biso   1.000  C
  H4       1.0000 0.71920  0.13810  0.85190  Biso   1.000  H
  C2       1.0000 0.80740  0.21110  0.84540  Biso   1.000  C
  H5       1.0000 0.85390  0.18170  0.85460  Biso   1.000  H
  C3       1.0000 0.81770  0.28080  0.83410  Biso   1.000  C
  H6       1.0000 0.87170  0.29950  0.83680  Biso   1.000  H
  C4       1.0000 0.74710  0.32420  0.81850  Biso   1.000  C
  H7       1.0000 0.75530  0.37130  0.80910  Biso   1.000  H
  C5       1.0000 0.66540  0.29920  0.81650  Biso   1.000  C
  H8       1.0000 0.61920  0.32890  0.80860  Biso   1.000  H
  C6       1.0000 0.65500  0.22830  0.82650  Biso   1.000  C
  C7       1.0000 0.49670  0.22270  0.79800  Biso   1.000  C
  C8       1.0000 0.42190  0.20210  0.82670  Biso   1.000  C
  C9       1.0000 0.34530  0.22680  0.79160  Biso   1.000  C
  H9       1.0000 0.29630  0.21170  0.81120  Biso   1.000  H
  C10      1.0000 0.33890  0.27240  0.72950  Biso   1.000  C
  C11      1.0000 0.41360  0.29390  0.69800  Biso   1.000  C
  C12      1.0000 0.49010  0.26840  0.73350  Biso   1.000  C
  H10      1.0000 0.53920  0.28250  0.71320  Biso   1.000  H
  C13      1.0000 0.42150  0.14910  0.89620  Biso   1.000  C
  C14      1.0000 0.41520  0.34280  0.62910  Biso   1.000  C
  C15      1.0000 0.17990  0.27810  0.71340  Biso   1.000  C
  C16      1.0000 0.11660  0.32300  0.72120  Biso   1.000  C
  H11      1.0000 0.12710  0.37050  0.72110  Biso   1.000  H
  C17      1.0000 0.03620  0.29930  0.72940  Biso   1.000  C
  H12      1.0000 0.99300  0.33090  0.73410  Biso   1.000  H
  C18      1.0000 0.02010  0.23010  0.73070  Biso   1.000  C
  H13      1.0000 0.96640  0.21450  0.73800  Biso   1.000  H
  C19      1.0000 0.08220  0.18370  0.72150  Biso   1.000  C
  H14      1.0000 0.07100  0.13620  0.72130  Biso   1.000  H
  C20      1.0000 0.16070  0.20710  0.71260  Biso   1.000  C
  H15      1.0000 0.20300  0.17500  0.70570  Biso   1.000  H
  C21      1.0000 0.18020  0.48110  0.53360  Biso   1.000  C
  C22      1.0000 0.08870  0.48980  0.51890  Biso   1.000  C
  C23      1.0000 0.04530  0.47460  0.44450  Biso   1.000  C
  H16      1.0000 0.07680  0.45680  0.40590  Biso   1.000  H
  C24      1.0000 0.95910  0.48340  0.42160  Biso   1.000  C
  C25      1.0000 0.94750  0.47280  0.27160  Biso   1.000  C
  C26      1.0000 0.89560  0.44120  0.20730  Biso   1.000  C
  H17      1.0000 0.84740  0.41660  0.21620  Biso   1.000  H
  C27      1.0000 0.99780  0.49060  0.12210  Biso   1.000  C
  H18      1.0000 0.01480  0.49730  0.07140  Biso   1.000  H
  C28      1.0000 0.92030  0.44860  0.12740  Biso   1.000  C
  H19      1.0000 0.88980  0.42850  0.08240  Biso   1.000  H
  C29      1.0000 0.04300  0.51820  0.18280  Biso   1.000  C
  H20      1.0000 0.09130  0.54330  0.17540  Biso   1.000  H
  C30      1.0000 0.01860  0.51020  0.26090  Biso   1.000  C
  H21      1.0000 0.05080  0.53020  0.30500  Biso   1.000  H
  Zn3      1.0000 0.46551  0.92732  0.96670  Biso   1.000  Zn
  Zn4      1.0000 0.66628  0.93102  0.99816  Biso   1.000  Zn
  O8       1.0000 0.51390  0.85740  0.89160  Biso   1.000  O
  O9       1.0000 0.65460  0.86610  0.90390  Biso   1.000  O
  O10      1.0000 0.51130  0.62420  0.57320  Biso   1.000  O
  O11      1.0000 0.65040  0.63490  0.58470  Biso   1.000  O
  O12      1.0000 0.78510  0.95200  0.02500  Biso   1.000  O
  O13      1.0000 0.77690  0.00010  0.90490  Biso   1.000  O
  O14      1.0000 0.57270  0.99431  0.96300  Biso   1.000  O
  N4       1.0000 0.42320  0.69760  0.67090  Biso   1.000  N
  H22      1.0000 0.42280  0.65800  0.64700  Biso   1.000  H
  N5       1.0000 0.73940  0.80150  0.79960  Biso   1.000  N
  H23      1.0000 0.73790  0.83810  0.82900  Biso   1.000  H
  N6       1.0000 0.08220  0.96550  0.15280  Biso   1.000  N
  H24      1.0000 0.13180  0.94790  0.15310  Biso   1.000  H
  C31      1.0000 0.27330  0.68520  0.65730  Biso   1.000  C
  H25      1.0000 0.28080  0.63810  0.64810  Biso   1.000  H
  C32      1.0000 0.19260  0.71110  0.65460  Biso   1.000  C
  H26      1.0000 0.14610  0.68170  0.64540  Biso   1.000  H
  C33      1.0000 0.18230  0.78080  0.66590  Biso   1.000  C
  H27      1.0000 0.12830  0.79950  0.66320  Biso   1.000  H
  C34      1.0000 0.25290  0.82420  0.68150  Biso   1.000  C
  H28      1.0000 0.24470  0.87130  0.69090  Biso   1.000  H
  C35      1.0000 0.33460  0.79920  0.68350  Biso   1.000  C
  H29      1.0000 0.38080  0.82890  0.69140  Biso   1.000  H
  C36      1.0000 0.34500  0.72830  0.67350  Biso   1.000  C
  C37      1.0000 0.50330  0.72270  0.70200  Biso   1.000  C
  C38      1.0000 0.57810  0.70210  0.67330  Biso   1.000  C
  C39      1.0000 0.65470  0.72680  0.70840  Biso   1.000  C
  H30      1.0000 0.70370  0.71170  0.68880  Biso   1.000  H
  C40      1.0000 0.66110  0.77240  0.77050  Biso   1.000  C
  C41      1.0000 0.58640  0.79390  0.80200  Biso   1.000  C
  C42      1.0000 0.50990  0.76840  0.76650  Biso   1.000  C
  H31      1.0000 0.46080  0.78250  0.78680  Biso   1.000  H
  C43      1.0000 0.57850  0.64910  0.60380  Biso   1.000  C
  C44      1.0000 0.58480  0.84280  0.87090  Biso   1.000  C
  C45      1.0000 0.82010  0.77810  0.78660  Biso   1.000  C
  C46      1.0000 0.88340  0.82300  0.77880  Biso   1.000  C
  H32      1.0000 0.87290  0.87050  0.77890  Biso   1.000  H
  C47      1.0000 0.96380  0.79930  0.77060  Biso   1.000  C
  H33      1.0000 0.00700  0.83090  0.76590  Biso   1.000  H
  C48      1.0000 0.97990  0.73010  0.76930  Biso   1.000  C
  H34      1.0000 0.03360  0.71450  0.76200  Biso   1.000  H
  C49      1.0000 0.91780  0.68370  0.77850  Biso   1.000  C
  H35      1.0000 0.92900  0.63620  0.77870  Biso   1.000  H
  C50      1.0000 0.83930  0.70710  0.78740  Biso   1.000  C
  H36      1.0000 0.79700  0.67500  0.79430  Biso   1.000  H
  C51      1.0000 0.81980  0.98110  0.96640  Biso   1.000  C
  C52      1.0000 0.91130  0.98980  0.98110  Biso   1.000  C
  C53      1.0000 0.95470  0.97460  0.05550  Biso   1.000  C
  H37      1.0000 0.92320  0.95680  0.09410  Biso   1.000  H
  C54      1.0000 0.04090  0.98340  0.07840  Biso   1.000  C
  C55      1.0000 0.05250  0.97280  0.22840  Biso   1.000  C
  C56      1.0000 0.10440  0.94120  0.29270  Biso   1.000  C
  H38      1.0000 0.15260  0.91660  0.28380  Biso   1.000  H
  C57      1.0000 0.00220  0.99060  0.37790  Biso   1.000  C
  H39      1.0000 0.98520  0.99730  0.42860  Biso   1.000  H
  C58      1.0000 0.07970  0.94860  0.37260  Biso   1.000  C
  H40      1.0000 0.11020  0.92850  0.41760  Biso   1.000  H
  C59      1.0000 0.95700  0.01820  0.31720  Biso   1.000  C
  H41      1.0000 0.90870  0.04330  0.32460  Biso   1.000  H
  C60      1.0000 0.98140  0.01020  0.23910  Biso   1.000  C
  H42      1.0000 0.94920  0.03020  0.19500  Biso   1.000  H
  Zn5      1.0000 0.46551  0.57268  0.46670  Biso   1.000  Zn
  Zn6      1.0000 0.66628  0.56898  0.49816  Biso   1.000  Zn
  O15      1.0000 0.51390  0.64260  0.39160  Biso   1.000  O
  O16      1.0000 0.65460  0.63390  0.40390  Biso   1.000  O
  O17      1.0000 0.51130  0.87580  0.07320  Biso   1.000  O
  O18      1.0000 0.65040  0.86510  0.08470  Biso   1.000  O
  O19      1.0000 0.78510  0.54800  0.52500  Biso   1.000  O
  O20      1.0000 0.77690  0.49990  0.40490  Biso   1.000  O
  O21      1.0000 0.57270  0.50569  0.46300  Biso   1.000  O
  N7       1.0000 0.42320  0.80240  0.17090  Biso   1.000  N
  H43      1.0000 0.42280  0.84200  0.14700  Biso   1.000  H
  N8       1.0000 0.73940  0.69850  0.29960  Biso   1.000  N
  H44      1.0000 0.73790  0.66190  0.32900  Biso   1.000  H
  N9       1.0000 0.08220  0.53450  0.65280  Biso   1.000  N
  H45      1.0000 0.13180  0.55210  0.65310  Biso   1.000  H
  C61      1.0000 0.27330  0.81480  0.15730  Biso   1.000  C
  H46      1.0000 0.28080  0.86190  0.14810  Biso   1.000  H
  C62      1.0000 0.19260  0.78890  0.15460  Biso   1.000  C
  H47      1.0000 0.14610  0.81830  0.14540  Biso   1.000  H
  C63      1.0000 0.18230  0.71920  0.16590  Biso   1.000  C
  H48      1.0000 0.12830  0.70050  0.16320  Biso   1.000  H
  C64      1.0000 0.25290  0.67580  0.18150  Biso   1.000  C
  H49      1.0000 0.24470  0.62870  0.19090  Biso   1.000  H
  C65      1.0000 0.33460  0.70080  0.18350  Biso   1.000  C
  H50      1.0000 0.38080  0.67110  0.19140  Biso   1.000  H
  C66      1.0000 0.34500  0.77170  0.17350  Biso   1.000  C
  C67      1.0000 0.50330  0.77730  0.20200  Biso   1.000  C
  C68      1.0000 0.57810  0.79790  0.17330  Biso   1.000  C
  C69      1.0000 0.65470  0.77320  0.20840  Biso   1.000  C
  H51      1.0000 0.70370  0.78830  0.18880  Biso   1.000  H
  C70      1.0000 0.66110  0.72760  0.27050  Biso   1.000  C
  C71      1.0000 0.58640  0.70610  0.30200  Biso   1.000  C
  C72      1.0000 0.50990  0.73160  0.26650  Biso   1.000  C
  H52      1.0000 0.46080  0.71750  0.28680  Biso   1.000  H
  C73      1.0000 0.57850  0.85090  0.10380  Biso   1.000  C
  C74      1.0000 0.58480  0.65720  0.37090  Biso   1.000  C
  C75      1.0000 0.82010  0.72190  0.28660  Biso   1.000  C
  C76      1.0000 0.88340  0.67700  0.27880  Biso   1.000  C
  H53      1.0000 0.87290  0.62950  0.27890  Biso   1.000  H
  C77      1.0000 0.96380  0.70070  0.27060  Biso   1.000  C
  H54      1.0000 0.00700  0.66910  0.26590  Biso   1.000  H
  C78      1.0000 0.97990  0.76990  0.26930  Biso   1.000  C
  H55      1.0000 0.03360  0.78550  0.26200  Biso   1.000  H
  C79      1.0000 0.91780  0.81630  0.27850  Biso   1.000  C
  H56      1.0000 0.92900  0.86380  0.27870  Biso   1.000  H
  C80      1.0000 0.83930  0.79290  0.28740  Biso   1.000  C
  H57      1.0000 0.79700  0.82500  0.29430  Biso   1.000  H
  C81      1.0000 0.81980  0.51890  0.46640  Biso   1.000  C
  C82      1.0000 0.91130  0.51020  0.48110  Biso   1.000  C
  C83      1.0000 0.95470  0.52540  0.55550  Biso   1.000  C
  H58      1.0000 0.92320  0.54320  0.59410  Biso   1.000  H
  C84      1.0000 0.04090  0.51660  0.57840  Biso   1.000  C
  C85      1.0000 0.05250  0.52720  0.72840  Biso   1.000  C
  C86      1.0000 0.10440  0.55880  0.79270  Biso   1.000  C
  H59      1.0000 0.15260  0.58340  0.78380  Biso   1.000  H
  C87      1.0000 0.00220  0.50940  0.87790  Biso   1.000  C
  H60      1.0000 0.98520  0.50270  0.92860  Biso   1.000  H
  C88      1.0000 0.07970  0.55140  0.87260  Biso   1.000  C
  H61      1.0000 0.11020  0.57150  0.91760  Biso   1.000  H
  C89      1.0000 0.95700  0.48180  0.81720  Biso   1.000  C
  H62      1.0000 0.90870  0.45670  0.82460  Biso   1.000  H
  C90      1.0000 0.98140  0.48980  0.73910  Biso   1.000  C
  H63      1.0000 0.94920  0.46980  0.69500  Biso   1.000  H
  Zn7      1.0000 0.53449  0.07268  0.03330  Biso   1.000  Zn
  Zn8      1.0000 0.33372  0.06898  0.00184  Biso   1.000  Zn
  O22      1.0000 0.48610  0.14260  0.10840  Biso   1.000  O
  O23      1.0000 0.34540  0.13390  0.09610  Biso   1.000  O
  O24      1.0000 0.48870  0.37580  0.42680  Biso   1.000  O
  O25      1.0000 0.34960  0.36510  0.41530  Biso   1.000  O
  O26      1.0000 0.21490  0.04800  0.97500  Biso   1.000  O
  O27      1.0000 0.22310  0.99990  0.09510  Biso   1.000  O
  O28      1.0000 0.42730  0.00569  0.03700  Biso   1.000  O
  N10      1.0000 0.57680  0.30240  0.32910  Biso   1.000  N
  H64      1.0000 0.57720  0.34200  0.35300  Biso   1.000  H
  N11      1.0000 0.26060  0.19850  0.20040  Biso   1.000  N
  H65      1.0000 0.26210  0.16190  0.17100  Biso   1.000  H
  N12      1.0000 0.91780  0.03450  0.84720  Biso   1.000  N
  H66      1.0000 0.86820  0.05210  0.84690  Biso   1.000  H
  C91      1.0000 0.72670  0.31480  0.34270  Biso   1.000  C
  H67      1.0000 0.71920  0.36190  0.35190  Biso   1.000  H
  C92      1.0000 0.80740  0.28890  0.34540  Biso   1.000  C
  H68      1.0000 0.85390  0.31830  0.35460  Biso   1.000  H
  C93      1.0000 0.81770  0.21920  0.33410  Biso   1.000  C
  H69      1.0000 0.87170  0.20050  0.33680  Biso   1.000  H
  C94      1.0000 0.74710  0.17580  0.31850  Biso   1.000  C
  H70      1.0000 0.75530  0.12870  0.30910  Biso   1.000  H
  C95      1.0000 0.66540  0.20080  0.31650  Biso   1.000  C
  H71      1.0000 0.61920  0.17110  0.30860  Biso   1.000  H
  C96      1.0000 0.65500  0.27170  0.32650  Biso   1.000  C
  C97      1.0000 0.49670  0.27730  0.29800  Biso   1.000  C
  C98      1.0000 0.42190  0.29790  0.32670  Biso   1.000  C
  C99      1.0000 0.34530  0.27320  0.29160  Biso   1.000  C
  H72      1.0000 0.29630  0.28830  0.31120  Biso   1.000  H
  C100     1.0000 0.33890  0.22760  0.22950  Biso   1.000  C
  C101     1.0000 0.41360  0.20610  0.19800  Biso   1.000  C
  C102     1.0000 0.49010  0.23160  0.23350  Biso   1.000  C
  H73      1.0000 0.53920  0.21750  0.21320  Biso   1.000  H
  C103     1.0000 0.42150  0.35090  0.39620  Biso   1.000  C
  C104     1.0000 0.41520  0.15720  0.12910  Biso   1.000  C
  C105     1.0000 0.17990  0.22190  0.21340  Biso   1.000  C
  C106     1.0000 0.11660  0.17700  0.22120  Biso   1.000  C
  H74      1.0000 0.12710  0.12950  0.22110  Biso   1.000  H
  C107     1.0000 0.03620  0.20070  0.22940  Biso   1.000  C
  H75      1.0000 0.99300  0.16910  0.23410  Biso   1.000  H
  C108     1.0000 0.02010  0.26990  0.23070  Biso   1.000  C
  H76      1.0000 0.96640  0.28550  0.23800  Biso   1.000  H
  C109     1.0000 0.08220  0.31630  0.22150  Biso   1.000  C
  H77      1.0000 0.07100  0.36380  0.22130  Biso   1.000  H
  C110     1.0000 0.16070  0.29290  0.21260  Biso   1.000  C
  H78      1.0000 0.20300  0.32500  0.20570  Biso   1.000  H
  C111     1.0000 0.18020  0.01890  0.03360  Biso   1.000  C
  C112     1.0000 0.08870  0.01020  0.01890  Biso   1.000  C
  C113     1.0000 0.04530  0.02540  0.94450  Biso   1.000  C
  H79      1.0000 0.07680  0.04320  0.90590  Biso   1.000  H
  C114     1.0000 0.95910  0.01660  0.92160  Biso   1.000  C
  C115     1.0000 0.94750  0.02720  0.77160  Biso   1.000  C
  C116     1.0000 0.89560  0.05880  0.70730  Biso   1.000  C
  H80      1.0000 0.84740  0.08340  0.71620  Biso   1.000  H
  C117     1.0000 0.99780  0.00940  0.62210  Biso   1.000  C
  H81      1.0000 0.01480  0.00270  0.57140  Biso   1.000  H
  C118     1.0000 0.92030  0.05140  0.62740  Biso   1.000  C
  H82      1.0000 0.88980  0.07150  0.58240  Biso   1.000  H
  C119     1.0000 0.04300  0.98180  0.68280  Biso   1.000  C
  H83      1.0000 0.09130  0.95670  0.67540  Biso   1.000  H
  C120     1.0000 0.01860  0.98980  0.76090  Biso   1.000  C
  H84      1.0000 0.05080  0.96980  0.80500  Biso   1.000  H
