data_image0
_cell_length_a       6.1139
_cell_length_b       8.7718
_cell_length_c       13.1543
_cell_angle_alpha    101.048
_cell_angle_beta     101.805
_cell_angle_gamma    96.546

_symmetry_space_group_name_H-M    "P 1"
_symmetry_int_tables_number       1

loop_
  _symmetry_equiv_pos_as_xyz
  'x, y, z'

loop_
  _atom_site_label
  _atom_site_occupancy
  _atom_site_fract_x
  _atom_site_fract_y
  _atom_site_fract_z
  _atom_site_thermal_displace_type
  _atom_site_B_iso_or_equiv
  _atom_site_type_symbol
  Gd1      1.0000 0.74716  0.21931  0.72457  Biso   1.000  Gd
  O1       1.0000 0.50170  0.80020  0.45150  Biso   1.000  O
  O2       1.0000 0.06500  0.10660  0.80050  Biso   1.000  O
  O3       1.0000 0.76690  0.35690  0.90970  Biso   1.000  O
  H1       1.0000 0.68300  0.33000  0.95100  Biso   1.000  H
  O4       1.0000 0.06730  0.45510  0.81370  Biso   1.000  O
  H2       1.0000 0.17300  0.50900  0.79100  Biso   1.000  H
  O5       1.0000 0.65950  0.47920  0.71240  Biso   1.000  O
  O6       1.0000 0.63020  0.02900  0.82930  Biso   1.000  O
  H3       1.0000 0.67400  0.93600  0.82500  Biso   1.000  H
  O7       1.0000 0.50530  0.21270  0.01030  Biso   1.000  O
  H4       1.0000 0.45960  0.24640  0.06510  Biso   1.000  H
  O8       1.0000 0.65830  0.71380  0.81540  Biso   1.000  O
  O9       1.0000 0.36390  0.20070  0.74420  Biso   1.000  O
  O10      1.0000 0.67800  0.95860  0.60990  Biso   1.000  O
  C1       1.0000 0.40840  0.00830  0.85050  Biso   1.000  C
  H5       1.0000 0.33550  0.89630  0.82030  Biso   1.000  H
  C2       1.0000 0.26780  0.11520  0.79400  Biso   1.000  C
  C3       1.0000 0.41720  0.04790  0.97040  Biso   1.000  C
  H6       1.0000 0.26240  0.02390  0.98300  Biso   1.000  H
  C4       1.0000 0.89550  0.50790  0.95870  Biso   1.000  C
  H7       1.0000 0.80060  0.57720  0.99370  Biso   1.000  H
  C5       1.0000 0.55030  0.92860  0.51770  Biso   1.000  C
  C6       1.0000 0.74360  0.59130  0.79160  Biso   1.000  C
  C7       1.0000 0.96070  0.57170  0.86740  Biso   1.000  C
  H8       1.0000 0.06600  0.67400  0.89470  Biso   1.000  H
  Gd2      1.0000 0.25284  0.78069  0.27543  Biso   1.000  Gd
  O11      1.0000 0.49830  0.19980  0.54850  Biso   1.000  O
  O12      1.0000 0.93500  0.89340  0.19950  Biso   1.000  O
  O13      1.0000 0.23310  0.64310  0.09030  Biso   1.000  O
  H9       1.0000 0.31700  0.67000  0.04900  Biso   1.000  H
  O14      1.0000 0.93270  0.54490  0.18630  Biso   1.000  O
  H10      1.0000 0.82700  0.49100  0.20900  Biso   1.000  H
  O15      1.0000 0.34050  0.52080  0.28760  Biso   1.000  O
  O16      1.0000 0.36980  0.97100  0.17070  Biso   1.000  O
  H11      1.0000 0.32600  0.06400  0.17500  Biso   1.000  H
  O17      1.0000 0.49470  0.78730  0.98970  Biso   1.000  O
  H12      1.0000 0.54040  0.75360  0.93490  Biso   1.000  H
  O18      1.0000 0.34170  0.28620  0.18460  Biso   1.000  O
  O19      1.0000 0.63610  0.79930  0.25580  Biso   1.000  O
  O20      1.0000 0.32200  0.04140  0.39010  Biso   1.000  O
  C8       1.0000 0.59160  0.99170  0.14950  Biso   1.000  C
  H13      1.0000 0.66450  0.10370  0.17970  Biso   1.000  H
  C9       1.0000 0.73220  0.88480  0.20600  Biso   1.000  C
  C10      1.0000 0.58280  0.95210  0.02960  Biso   1.000  C
  H14      1.0000 0.73760  0.97610  0.01700  Biso   1.000  H
  C11      1.0000 0.10450  0.49210  0.04130  Biso   1.000  C
  H15      1.0000 0.19940  0.42280  0.00630  Biso   1.000  H
  C12      1.0000 0.44970  0.07140  0.48230  Biso   1.000  C
  C13      1.0000 0.25640  0.40870  0.20840  Biso   1.000  C
  C14      1.0000 0.03930  0.42830  0.13260  Biso   1.000  C
  H16      1.0000 0.93400  0.32600  0.10530  Biso   1.000  H
