data_image0
_cell_length_a       11.5955
_cell_length_b       5.5581
_cell_length_c       22.9548
_cell_angle_alpha    90
_cell_angle_beta     101.062
_cell_angle_gamma    90

_symmetry_space_group_name_H-M    "P 1"
_symmetry_int_tables_number       1

loop_
  _symmetry_equiv_pos_as_xyz
  'x, y, z'

loop_
  _atom_site_label
  _atom_site_occupancy
  _atom_site_fract_x
  _atom_site_fract_y
  _atom_site_fract_z
  _atom_site_thermal_displace_type
  _atom_site_B_iso_or_equiv
  _atom_site_type_symbol
  O1       1.0000 0.73729  0.47860  0.67232  Biso   1.000  O
  C1       1.0000 0.72776  0.26330  0.65555  Biso   1.000  C
  Ca1      1.0000 0.36319  0.24220  0.27917  Biso   1.000  Ca
  S1       1.0000 0.60426  0.03343  0.39467  Biso   1.000  S
  O2       1.0000 0.01164  0.47440  0.25206  Biso   1.000  O
  O3       1.0000 0.74104  0.08660  0.69107  Biso   1.000  O
  O4       1.0000 0.50603  0.19110  0.37164  Biso   1.000  O
  O5       1.0000 0.04045  0.07930  0.24321  Biso   1.000  O
  O6       1.0000 0.58752  0.77672  0.39113  Biso   1.000  O
  C2       1.0000 0.70469  0.21020  0.59021  Biso   1.000  C
  C3       1.0000 0.73740  0.98950  0.56944  Biso   1.000  C
  H1       1.0000 0.77680  0.87660  0.59590  Biso   1.000  H
  C4       1.0000 0.72159  0.10730  0.35948  Biso   1.000  C
  C5       1.0000 0.65030  0.10880  0.47036  Biso   1.000  C
  C6       1.0000 0.90071  0.20690  0.29904  Biso   1.000  C
  C7       1.0000 0.90060  0.98960  0.32949  Biso   1.000  C
  H2       1.0000 0.96010  0.87790  0.32900  Biso   1.000  H
  C8       1.0000 0.81169  0.94010  0.36058  Biso   1.000  C
  H3       1.0000 0.81220  0.79750  0.38180  Biso   1.000  H
  C9       1.0000 0.62029  0.33230  0.49026  Biso   1.000  C
  H4       1.0000 0.58210  0.44610  0.46370  Biso   1.000  H
  C10      1.0000 0.81221  0.37500  0.30039  Biso   1.000  C
  H5       1.0000 0.81420  0.52190  0.28120  Biso   1.000  H
  C11      1.0000 0.71094  0.93880  0.50899  Biso   1.000  C
  H6       1.0000 0.73350  0.79320  0.49460  Biso   1.000  H
  C12      1.0000 0.99290  0.25770  0.26199  Biso   1.000  C
  C13      1.0000 0.72097  0.32640  0.32993  Biso   1.000  C
  H7       1.0000 0.66090  0.43720  0.33000  Biso   1.000  H
  C14      1.0000 0.64849  0.38210  0.55056  Biso   1.000  C
  H8       1.0000 0.62970  0.53130  0.56460  Biso   1.000  H
  O7       1.0000 0.76271  0.97860  0.82768  Biso   1.000  O
  C15      1.0000 0.77224  0.76330  0.84445  Biso   1.000  C
  Ca2      1.0000 0.13681  0.74220  0.22083  Biso   1.000  Ca
  S2       1.0000 0.89574  0.53343  0.10533  Biso   1.000  S
  O8       1.0000 0.48836  0.97440  0.24794  Biso   1.000  O
  O9       1.0000 0.75896  0.58660  0.80893  Biso   1.000  O
  O10      1.0000 0.99397  0.69110  0.12836  Biso   1.000  O
  O11      1.0000 0.45955  0.57930  0.25679  Biso   1.000  O
  O12      1.0000 0.91248  0.27672  0.10887  Biso   1.000  O
  C16      1.0000 0.79531  0.71020  0.90979  Biso   1.000  C
  C17      1.0000 0.76260  0.48950  0.93056  Biso   1.000  C
  H9       1.0000 0.72320  0.37660  0.90410  Biso   1.000  H
  C18      1.0000 0.77841  0.60730  0.14052  Biso   1.000  C
  C19      1.0000 0.84970  0.60880  0.02964  Biso   1.000  C
  C20      1.0000 0.59929  0.70690  0.20096  Biso   1.000  C
  C21      1.0000 0.59940  0.48960  0.17051  Biso   1.000  C
  H10      1.0000 0.53990  0.37790  0.17100  Biso   1.000  H
  C22      1.0000 0.68831  0.44010  0.13942  Biso   1.000  C
  H11      1.0000 0.68780  0.29750  0.11820  Biso   1.000  H
  C23      1.0000 0.87971  0.83230  0.00974  Biso   1.000  C
  H12      1.0000 0.91790  0.94610  0.03630  Biso   1.000  H
  C24      1.0000 0.68779  0.87500  0.19961  Biso   1.000  C
  H13      1.0000 0.68580  0.02190  0.21880  Biso   1.000  H
  C25      1.0000 0.78906  0.43880  0.99101  Biso   1.000  C
  H14      1.0000 0.76650  0.29320  0.00540  Biso   1.000  H
  C26      1.0000 0.50710  0.75770  0.23801  Biso   1.000  C
  C27      1.0000 0.77903  0.82640  0.17007  Biso   1.000  C
  H15      1.0000 0.83910  0.93720  0.17000  Biso   1.000  H
  C28      1.0000 0.85151  0.88210  0.94944  Biso   1.000  C
  H16      1.0000 0.87030  0.03130  0.93540  Biso   1.000  H
  O13      1.0000 0.26271  0.52140  0.32768  Biso   1.000  O
  C29      1.0000 0.27224  0.73670  0.34445  Biso   1.000  C
  Ca3      1.0000 0.63681  0.75780  0.72083  Biso   1.000  Ca
  S3       1.0000 0.39574  0.96657  0.60533  Biso   1.000  S
  O14      1.0000 0.98836  0.52560  0.74794  Biso   1.000  O
  O15      1.0000 0.25896  0.91340  0.30893  Biso   1.000  O
  O16      1.0000 0.49397  0.80890  0.62836  Biso   1.000  O
  O17      1.0000 0.95955  0.92070  0.75679  Biso   1.000  O
  O18      1.0000 0.41248  0.22328  0.60887  Biso   1.000  O
  C30      1.0000 0.29531  0.78980  0.40979  Biso   1.000  C
  C31      1.0000 0.26260  0.01050  0.43056  Biso   1.000  C
  H17      1.0000 0.22320  0.12340  0.40410  Biso   1.000  H
  C32      1.0000 0.27841  0.89270  0.64052  Biso   1.000  C
  C33      1.0000 0.34970  0.89120  0.52964  Biso   1.000  C
  C34      1.0000 0.09929  0.79310  0.70096  Biso   1.000  C
  C35      1.0000 0.09940  0.01040  0.67051  Biso   1.000  C
  H18      1.0000 0.03990  0.12210  0.67100  Biso   1.000  H
  C36      1.0000 0.18831  0.05990  0.63942  Biso   1.000  C
  H19      1.0000 0.18780  0.20250  0.61820  Biso   1.000  H
  C37      1.0000 0.37971  0.66770  0.50974  Biso   1.000  C
  H20      1.0000 0.41790  0.55390  0.53630  Biso   1.000  H
  C38      1.0000 0.18779  0.62500  0.69961  Biso   1.000  C
  H21      1.0000 0.18580  0.47810  0.71880  Biso   1.000  H
  C39      1.0000 0.28906  0.06120  0.49101  Biso   1.000  C
  H22      1.0000 0.26650  0.20680  0.50540  Biso   1.000  H
  C40      1.0000 0.00710  0.74230  0.73801  Biso   1.000  C
  C41      1.0000 0.27903  0.67360  0.67007  Biso   1.000  C
  H23      1.0000 0.33910  0.56280  0.67000  Biso   1.000  H
  C42      1.0000 0.35151  0.61790  0.44944  Biso   1.000  C
  H24      1.0000 0.37030  0.46870  0.43540  Biso   1.000  H
  O19      1.0000 0.23729  0.02140  0.17232  Biso   1.000  O
  C43      1.0000 0.22776  0.23670  0.15555  Biso   1.000  C
  Ca4      1.0000 0.86319  0.25780  0.77917  Biso   1.000  Ca
  S4       1.0000 0.10426  0.46657  0.89467  Biso   1.000  S
  O20      1.0000 0.51164  0.02560  0.75206  Biso   1.000  O
  O21      1.0000 0.24104  0.41340  0.19107  Biso   1.000  O
  O22      1.0000 0.00603  0.30890  0.87164  Biso   1.000  O
  O23      1.0000 0.54045  0.42070  0.74321  Biso   1.000  O
  O24      1.0000 0.08752  0.72328  0.89113  Biso   1.000  O
  C44      1.0000 0.20469  0.28980  0.09021  Biso   1.000  C
  C45      1.0000 0.23740  0.51050  0.06944  Biso   1.000  C
  H25      1.0000 0.27680  0.62340  0.09590  Biso   1.000  H
  C46      1.0000 0.22159  0.39270  0.85948  Biso   1.000  C
  C47      1.0000 0.15030  0.39120  0.97036  Biso   1.000  C
  C48      1.0000 0.40071  0.29310  0.79904  Biso   1.000  C
  C49      1.0000 0.40060  0.51040  0.82949  Biso   1.000  C
  H26      1.0000 0.46010  0.62210  0.82900  Biso   1.000  H
  C50      1.0000 0.31169  0.55990  0.86058  Biso   1.000  C
  H27      1.0000 0.31220  0.70250  0.88180  Biso   1.000  H
  C51      1.0000 0.12029  0.16770  0.99026  Biso   1.000  C
  H28      1.0000 0.08210  0.05390  0.96370  Biso   1.000  H
  C52      1.0000 0.31221  0.12500  0.80039  Biso   1.000  C
  H29      1.0000 0.31420  0.97810  0.78120  Biso   1.000  H
  C53      1.0000 0.21094  0.56120  0.00899  Biso   1.000  C
  H30      1.0000 0.23350  0.70680  0.99460  Biso   1.000  H
  C54      1.0000 0.49290  0.24230  0.76199  Biso   1.000  C
  C55      1.0000 0.22097  0.17360  0.82993  Biso   1.000  C
  H31      1.0000 0.16090  0.06280  0.83000  Biso   1.000  H
  C56      1.0000 0.14849  0.11790  0.05056  Biso   1.000  C
  H32      1.0000 0.12970  0.96870  0.06460  Biso   1.000  H
