data_image0
_cell_length_a       11.6667
_cell_length_b       5.5586
_cell_length_c       22.935
_cell_angle_alpha    90
_cell_angle_beta     101.011
_cell_angle_gamma    90

_symmetry_space_group_name_H-M    "P 1"
_symmetry_int_tables_number       1

loop_
  _symmetry_equiv_pos_as_xyz
  'x, y, z'

loop_
  _atom_site_label
  _atom_site_occupancy
  _atom_site_fract_x
  _atom_site_fract_y
  _atom_site_fract_z
  _atom_site_thermal_displace_type
  _atom_site_B_iso_or_equiv
  _atom_site_type_symbol
  S1       1.0000 0.39611  0.03460  0.10598  Biso   1.000  S
  O1       1.0000 0.98690  0.47560  0.24710  Biso   1.000  O
  O2       1.0000 0.25950  0.08340  0.80970  Biso   1.000  O
  O3       1.0000 0.95880  0.08020  0.25560  Biso   1.000  O
  O4       1.0000 0.26410  0.47680  0.82727  Biso   1.000  O
  O5       1.0000 0.41270  0.77550  0.11000  Biso   1.000  O
  O6       1.0000 0.49360  0.19640  0.12913  Biso   1.000  O
  C1       1.0000 0.18860  0.94220  0.13920  Biso   1.000  C
  H1       1.0000 0.18770  0.79700  0.11730  Biso   1.000  H
  C2       1.0000 0.27920  0.10940  0.14090  Biso   1.000  C
  C3       1.0000 0.29060  0.94060  0.99130  Biso   1.000  C
  H2       1.0000 0.26760  0.79280  0.00640  Biso   1.000  H
  C4       1.0000 0.35200  0.10970  0.02900  Biso   1.000  C
  C5       1.0000 0.27810  0.32940  0.17050  Biso   1.000  C
  H3       1.0000 0.33850  0.44390  0.17030  Biso   1.000  H
  C6       1.0000 0.38060  0.33520  0.01060  Biso   1.000  C
  H4       1.0000 0.41790  0.45210  0.03800  Biso   1.000  H
  C7       1.0000 0.26350  0.98980  0.93150  Biso   1.000  C
  H5       1.0000 0.22280  0.87460  0.90460  Biso   1.000  H
  C8       1.0000 0.10030  0.99290  0.17010  Biso   1.000  C
  H6       1.0000 0.04010  0.87830  0.17070  Biso   1.000  H
  C9       1.0000 0.18820  0.37710  0.19980  Biso   1.000  C
  H7       1.0000 0.18720  0.52630  0.22000  Biso   1.000  H
  C10      1.0000 0.35210  0.38270  0.94960  Biso   1.000  C
  H8       1.0000 0.37130  0.53480  0.93510  Biso   1.000  H
  C11      1.0000 0.27380  0.26060  0.84500  Biso   1.000  C
  C12      1.0000 0.00610  0.25620  0.23720  Biso   1.000  C
  C13      1.0000 0.09870  0.21280  0.20080  Biso   1.000  C
  C14      1.0000 0.29660  0.21310  0.91000  Biso   1.000  C
  Ca1      1.0000 0.63659  0.24372  0.22129  Biso   1.000  Ca
  S2       1.0000 0.10389  0.53460  0.39402  Biso   1.000  S
  O7       1.0000 0.51310  0.97560  0.25290  Biso   1.000  O
  O8       1.0000 0.24050  0.58340  0.69030  Biso   1.000  O
  O9       1.0000 0.54120  0.58020  0.24440  Biso   1.000  O
  O10      1.0000 0.23590  0.97680  0.67273  Biso   1.000  O
  O11      1.0000 0.08730  0.27550  0.39000  Biso   1.000  O
  O12      1.0000 0.00640  0.69640  0.37087  Biso   1.000  O
  C15      1.0000 0.31140  0.44220  0.36080  Biso   1.000  C
  H9       1.0000 0.31230  0.29700  0.38270  Biso   1.000  H
  C16      1.0000 0.22080  0.60940  0.35910  Biso   1.000  C
  C17      1.0000 0.20940  0.44060  0.50870  Biso   1.000  C
  H10      1.0000 0.23240  0.29280  0.49360  Biso   1.000  H
  C18      1.0000 0.14800  0.60970  0.47100  Biso   1.000  C
  C19      1.0000 0.22190  0.82940  0.32950  Biso   1.000  C
  H11      1.0000 0.16150  0.94390  0.32970  Biso   1.000  H
  C20      1.0000 0.11940  0.83520  0.48940  Biso   1.000  C
  H12      1.0000 0.08210  0.95210  0.46200  Biso   1.000  H
  C21      1.0000 0.23650  0.48980  0.56850  Biso   1.000  C
  H13      1.0000 0.27720  0.37460  0.59540  Biso   1.000  H
  C22      1.0000 0.39970  0.49290  0.32990  Biso   1.000  C
  H14      1.0000 0.45990  0.37830  0.32930  Biso   1.000  H
  C23      1.0000 0.31180  0.87710  0.30020  Biso   1.000  C
  H15      1.0000 0.31280  0.02630  0.28000  Biso   1.000  H
  C24      1.0000 0.14790  0.88270  0.55040  Biso   1.000  C
  H16      1.0000 0.12870  0.03480  0.56490  Biso   1.000  H
  C25      1.0000 0.22620  0.76060  0.65500  Biso   1.000  C
  C26      1.0000 0.49390  0.75620  0.26280  Biso   1.000  C
  C27      1.0000 0.40130  0.71280  0.29920  Biso   1.000  C
  C28      1.0000 0.20340  0.71310  0.59000  Biso   1.000  C
  Ca2      1.0000 0.86341  0.74372  0.27871  Biso   1.000  Ca
  S3       1.0000 0.60389  0.96540  0.89402  Biso   1.000  S
  O13      1.0000 0.01310  0.52440  0.75290  Biso   1.000  O
  O14      1.0000 0.74050  0.91660  0.19030  Biso   1.000  O
  O15      1.0000 0.04120  0.91980  0.74440  Biso   1.000  O
  O16      1.0000 0.73590  0.52320  0.17273  Biso   1.000  O
  O17      1.0000 0.58730  0.22450  0.89000  Biso   1.000  O
  O18      1.0000 0.50640  0.80360  0.87087  Biso   1.000  O
  C29      1.0000 0.81140  0.05780  0.86080  Biso   1.000  C
  H17      1.0000 0.81230  0.20300  0.88270  Biso   1.000  H
  C30      1.0000 0.72080  0.89060  0.85910  Biso   1.000  C
  C31      1.0000 0.70940  0.05940  0.00870  Biso   1.000  C
  H18      1.0000 0.73240  0.20720  0.99360  Biso   1.000  H
  C32      1.0000 0.64800  0.89030  0.97100  Biso   1.000  C
  C33      1.0000 0.72190  0.67060  0.82950  Biso   1.000  C
  H19      1.0000 0.66150  0.55610  0.82970  Biso   1.000  H
  C34      1.0000 0.61940  0.66480  0.98940  Biso   1.000  C
  H20      1.0000 0.58210  0.54790  0.96200  Biso   1.000  H
  C35      1.0000 0.73650  0.01020  0.06850  Biso   1.000  C
  H21      1.0000 0.77720  0.12540  0.09540  Biso   1.000  H
  C36      1.0000 0.89970  0.00710  0.82990  Biso   1.000  C
  H22      1.0000 0.95990  0.12170  0.82930  Biso   1.000  H
  C37      1.0000 0.81180  0.62290  0.80020  Biso   1.000  C
  H23      1.0000 0.81280  0.47370  0.78000  Biso   1.000  H
  C38      1.0000 0.64790  0.61730  0.05040  Biso   1.000  C
  H24      1.0000 0.62870  0.46520  0.06490  Biso   1.000  H
  C39      1.0000 0.72620  0.73940  0.15500  Biso   1.000  C
  C40      1.0000 0.99390  0.74380  0.76280  Biso   1.000  C
  C41      1.0000 0.90130  0.78720  0.79920  Biso   1.000  C
  C42      1.0000 0.70340  0.78690  0.09000  Biso   1.000  C
  Ca3      1.0000 0.36341  0.75628  0.77871  Biso   1.000  Ca
  S4       1.0000 0.89611  0.46540  0.60598  Biso   1.000  S
  O19      1.0000 0.48690  0.02440  0.74710  Biso   1.000  O
  O20      1.0000 0.75950  0.41660  0.30970  Biso   1.000  O
  O21      1.0000 0.45880  0.41980  0.75560  Biso   1.000  O
  O22      1.0000 0.76410  0.02320  0.32727  Biso   1.000  O
  O23      1.0000 0.91270  0.72450  0.61000  Biso   1.000  O
  O24      1.0000 0.99360  0.30360  0.62913  Biso   1.000  O
  C43      1.0000 0.68860  0.55780  0.63920  Biso   1.000  C
  H25      1.0000 0.68770  0.70300  0.61730  Biso   1.000  H
  C44      1.0000 0.77920  0.39060  0.64090  Biso   1.000  C
  C45      1.0000 0.79060  0.55940  0.49130  Biso   1.000  C
  H26      1.0000 0.76760  0.70720  0.50640  Biso   1.000  H
  C46      1.0000 0.85200  0.39030  0.52900  Biso   1.000  C
  C47      1.0000 0.77810  0.17060  0.67050  Biso   1.000  C
  H27      1.0000 0.83850  0.05610  0.67030  Biso   1.000  H
  C48      1.0000 0.88060  0.16480  0.51060  Biso   1.000  C
  H28      1.0000 0.91790  0.04790  0.53800  Biso   1.000  H
  C49      1.0000 0.76350  0.51020  0.43150  Biso   1.000  C
  H29      1.0000 0.72280  0.62540  0.40460  Biso   1.000  H
  C50      1.0000 0.60030  0.50710  0.67010  Biso   1.000  C
  H30      1.0000 0.54010  0.62170  0.67070  Biso   1.000  H
  C51      1.0000 0.68820  0.12290  0.69980  Biso   1.000  C
  H31      1.0000 0.68720  0.97370  0.72000  Biso   1.000  H
  C52      1.0000 0.85210  0.11730  0.44960  Biso   1.000  C
  H32      1.0000 0.87130  0.96520  0.43510  Biso   1.000  H
  C53      1.0000 0.77380  0.23940  0.34500  Biso   1.000  C
  C54      1.0000 0.50610  0.24380  0.73720  Biso   1.000  C
  C55      1.0000 0.59870  0.28720  0.70080  Biso   1.000  C
  C56      1.0000 0.79660  0.28690  0.41000  Biso   1.000  C
  Ca4      1.0000 0.13659  0.25628  0.72129  Biso   1.000  Ca
