data_image0
_cell_length_a       16.7942
_cell_length_b       16.7942
_cell_length_c       16.7942
_cell_angle_alpha    90
_cell_angle_beta     90
_cell_angle_gamma    90

_symmetry_space_group_name_H-M    "P 1"
_symmetry_int_tables_number       1

loop_
  _symmetry_equiv_pos_as_xyz
  'x, y, z'

loop_
  _atom_site_label
  _atom_site_occupancy
  _atom_site_fract_x
  _atom_site_fract_y
  _atom_site_fract_z
  _atom_site_thermal_displace_type
  _atom_site_B_iso_or_equiv
  _atom_site_type_symbol
  P1       1.0000 0.12289  0.43554  0.12217  Biso   1.000  P
  O1       1.0000 0.14597  0.35132  0.14297  Biso   1.000  O
  O2       1.0000 0.19471  0.48395  0.09007  Biso   1.000  O
  O3       1.0000 0.09342  0.48318  0.19447  Biso   1.000  O
  O4       1.0000 0.05757  0.43542  0.05792  Biso   1.000  O
  P2       1.0000 0.87711  0.56446  0.12217  Biso   1.000  P
  O5       1.0000 0.85403  0.64868  0.14297  Biso   1.000  O
  O6       1.0000 0.80529  0.51605  0.09007  Biso   1.000  O
  O7       1.0000 0.90658  0.51682  0.19447  Biso   1.000  O
  O8       1.0000 0.94243  0.56458  0.05792  Biso   1.000  O
  P3       1.0000 0.87711  0.43554  0.87783  Biso   1.000  P
  O9       1.0000 0.85403  0.35132  0.85703  Biso   1.000  O
  O10      1.0000 0.80529  0.48395  0.90993  Biso   1.000  O
  O11      1.0000 0.90658  0.48318  0.80553  Biso   1.000  O
  O12      1.0000 0.94243  0.43542  0.94208  Biso   1.000  O
  P4       1.0000 0.12289  0.56446  0.87783  Biso   1.000  P
  O13      1.0000 0.14597  0.64868  0.85703  Biso   1.000  O
  O14      1.0000 0.19471  0.51605  0.90993  Biso   1.000  O
  O15      1.0000 0.09342  0.51682  0.80553  Biso   1.000  O
  O16      1.0000 0.05757  0.56458  0.94208  Biso   1.000  O
  P5       1.0000 0.12217  0.12289  0.43554  Biso   1.000  P
  O17      1.0000 0.14297  0.14597  0.35132  Biso   1.000  O
  O18      1.0000 0.09007  0.19471  0.48395  Biso   1.000  O
  O19      1.0000 0.19447  0.09342  0.48318  Biso   1.000  O
  O20      1.0000 0.05792  0.05757  0.43542  Biso   1.000  O
  P6       1.0000 0.12217  0.87711  0.56446  Biso   1.000  P
  O21      1.0000 0.14297  0.85403  0.64868  Biso   1.000  O
  O22      1.0000 0.09007  0.80529  0.51605  Biso   1.000  O
  O23      1.0000 0.19447  0.90658  0.51682  Biso   1.000  O
  O24      1.0000 0.05792  0.94243  0.56458  Biso   1.000  O
  P7       1.0000 0.87783  0.87711  0.43554  Biso   1.000  P
  O25      1.0000 0.85703  0.85403  0.35132  Biso   1.000  O
  O26      1.0000 0.90993  0.80529  0.48395  Biso   1.000  O
  O27      1.0000 0.80553  0.90658  0.48318  Biso   1.000  O
  O28      1.0000 0.94208  0.94243  0.43542  Biso   1.000  O
  P8       1.0000 0.87783  0.12289  0.56446  Biso   1.000  P
  O29      1.0000 0.85703  0.14597  0.64868  Biso   1.000  O
  O30      1.0000 0.90993  0.19471  0.51605  Biso   1.000  O
  O31      1.0000 0.80553  0.09342  0.51682  Biso   1.000  O
  O32      1.0000 0.94208  0.05757  0.56458  Biso   1.000  O
  P9       1.0000 0.43554  0.12217  0.12289  Biso   1.000  P
  O33      1.0000 0.35132  0.14297  0.14597  Biso   1.000  O
  O34      1.0000 0.48395  0.09007  0.19471  Biso   1.000  O
  O35      1.0000 0.48318  0.19447  0.09342  Biso   1.000  O
  O36      1.0000 0.43542  0.05792  0.05757  Biso   1.000  O
  P10      1.0000 0.56446  0.12217  0.87711  Biso   1.000  P
  O37      1.0000 0.64868  0.14297  0.85403  Biso   1.000  O
  O38      1.0000 0.51605  0.09007  0.80529  Biso   1.000  O
  O39      1.0000 0.51682  0.19447  0.90658  Biso   1.000  O
  O40      1.0000 0.56458  0.05792  0.94243  Biso   1.000  O
  P11      1.0000 0.43554  0.87783  0.87711  Biso   1.000  P
  O41      1.0000 0.35132  0.85703  0.85403  Biso   1.000  O
  O42      1.0000 0.48395  0.90993  0.80529  Biso   1.000  O
  O43      1.0000 0.48318  0.80553  0.90658  Biso   1.000  O
  O44      1.0000 0.43542  0.94208  0.94243  Biso   1.000  O
  P12      1.0000 0.56446  0.87783  0.12289  Biso   1.000  P
  O45      1.0000 0.64868  0.85703  0.14597  Biso   1.000  O
  O46      1.0000 0.51605  0.90993  0.19471  Biso   1.000  O
  O47      1.0000 0.51682  0.80553  0.09342  Biso   1.000  O
  O48      1.0000 0.56458  0.94208  0.05757  Biso   1.000  O
  P13      1.0000 0.93554  0.62289  0.62217  Biso   1.000  P
  O49      1.0000 0.85132  0.64597  0.64297  Biso   1.000  O
  O50      1.0000 0.98395  0.69471  0.59007  Biso   1.000  O
  O51      1.0000 0.98318  0.59342  0.69447  Biso   1.000  O
  O52      1.0000 0.93542  0.55757  0.55792  Biso   1.000  O
  P14      1.0000 0.06446  0.37711  0.62217  Biso   1.000  P
  O53      1.0000 0.14868  0.35403  0.64297  Biso   1.000  O
  O54      1.0000 0.01605  0.30529  0.59007  Biso   1.000  O
  O55      1.0000 0.01682  0.40658  0.69447  Biso   1.000  O
  O56      1.0000 0.06458  0.44243  0.55792  Biso   1.000  O
  P15      1.0000 0.93554  0.37711  0.37783  Biso   1.000  P
  O57      1.0000 0.85132  0.35403  0.35703  Biso   1.000  O
  O58      1.0000 0.98395  0.30529  0.40993  Biso   1.000  O
  O59      1.0000 0.98318  0.40658  0.30553  Biso   1.000  O
  O60      1.0000 0.93542  0.44243  0.44208  Biso   1.000  O
  P16      1.0000 0.06446  0.62289  0.37783  Biso   1.000  P
  O61      1.0000 0.14868  0.64597  0.35703  Biso   1.000  O
  O62      1.0000 0.01605  0.69471  0.40993  Biso   1.000  O
  O63      1.0000 0.01682  0.59342  0.30553  Biso   1.000  O
  O64      1.0000 0.06458  0.55757  0.44208  Biso   1.000  O
  P17      1.0000 0.62289  0.62217  0.93554  Biso   1.000  P
  O65      1.0000 0.64597  0.64297  0.85132  Biso   1.000  O
  O66      1.0000 0.69471  0.59007  0.98395  Biso   1.000  O
  O67      1.0000 0.59342  0.69447  0.98318  Biso   1.000  O
  O68      1.0000 0.55757  0.55792  0.93542  Biso   1.000  O
  P18      1.0000 0.37711  0.62217  0.06446  Biso   1.000  P
  O69      1.0000 0.35403  0.64297  0.14868  Biso   1.000  O
  O70      1.0000 0.30529  0.59007  0.01605  Biso   1.000  O
  O71      1.0000 0.40658  0.69447  0.01682  Biso   1.000  O
  O72      1.0000 0.44243  0.55792  0.06458  Biso   1.000  O
  P19      1.0000 0.37711  0.37783  0.93554  Biso   1.000  P
  O73      1.0000 0.35403  0.35703  0.85132  Biso   1.000  O
  O74      1.0000 0.30529  0.40993  0.98395  Biso   1.000  O
  O75      1.0000 0.40658  0.30553  0.98318  Biso   1.000  O
  O76      1.0000 0.44243  0.44208  0.93542  Biso   1.000  O
  P20      1.0000 0.62289  0.37783  0.06446  Biso   1.000  P
  O77      1.0000 0.64597  0.35703  0.14868  Biso   1.000  O
  O78      1.0000 0.69471  0.40993  0.01605  Biso   1.000  O
  O79      1.0000 0.59342  0.30553  0.01682  Biso   1.000  O
  O80      1.0000 0.55757  0.44208  0.06458  Biso   1.000  O
  P21      1.0000 0.62217  0.93554  0.62289  Biso   1.000  P
  O81      1.0000 0.64297  0.85132  0.64597  Biso   1.000  O
  O82      1.0000 0.59007  0.98395  0.69471  Biso   1.000  O
  O83      1.0000 0.69447  0.98318  0.59342  Biso   1.000  O
  O84      1.0000 0.55792  0.93542  0.55757  Biso   1.000  O
  P22      1.0000 0.62217  0.06446  0.37711  Biso   1.000  P
  O85      1.0000 0.64297  0.14868  0.35403  Biso   1.000  O
  O86      1.0000 0.59007  0.01605  0.30529  Biso   1.000  O
  O87      1.0000 0.69447  0.01682  0.40658  Biso   1.000  O
  O88      1.0000 0.55792  0.06458  0.44243  Biso   1.000  O
  P23      1.0000 0.37783  0.93554  0.37711  Biso   1.000  P
  O89      1.0000 0.35703  0.85132  0.35403  Biso   1.000  O
  O90      1.0000 0.40993  0.98395  0.30529  Biso   1.000  O
  O91      1.0000 0.30553  0.98318  0.40658  Biso   1.000  O
  O92      1.0000 0.44208  0.93542  0.44243  Biso   1.000  O
  P24      1.0000 0.37783  0.06446  0.62289  Biso   1.000  P
  O93      1.0000 0.35703  0.14868  0.64597  Biso   1.000  O
  O94      1.0000 0.40993  0.01605  0.69471  Biso   1.000  O
  O95      1.0000 0.30553  0.01682  0.59342  Biso   1.000  O
  O96      1.0000 0.44208  0.06458  0.55757  Biso   1.000  O
  Al1      1.0000 0.00000  0.50000  0.00000  Biso   1.000  Al
  Al2      1.0000 0.00000  0.00000  0.50000  Biso   1.000  Al
  Al3      1.0000 0.50000  0.00000  0.00000  Biso   1.000  Al
  Al4      1.0000 0.00000  0.50000  0.50000  Biso   1.000  Al
  Al5      1.0000 0.50000  0.50000  0.00000  Biso   1.000  Al
  Al6      1.0000 0.50000  0.00000  0.50000  Biso   1.000  Al
  Al7      1.0000 0.25000  0.50000  0.00000  Biso   1.000  Al
  Al8      1.0000 0.75000  0.50000  0.00000  Biso   1.000  Al
  Al9      1.0000 0.00000  0.25000  0.50000  Biso   1.000  Al
  Al10     1.0000 0.00000  0.75000  0.50000  Biso   1.000  Al
  Al11     1.0000 0.50000  0.00000  0.25000  Biso   1.000  Al
  Al12     1.0000 0.50000  0.00000  0.75000  Biso   1.000  Al
  Al13     1.0000 0.00000  0.50000  0.25000  Biso   1.000  Al
  Al14     1.0000 0.00000  0.50000  0.75000  Biso   1.000  Al
  Al15     1.0000 0.25000  0.00000  0.50000  Biso   1.000  Al
  Al16     1.0000 0.75000  0.00000  0.50000  Biso   1.000  Al
  Al17     1.0000 0.50000  0.25000  0.00000  Biso   1.000  Al
  Al18     1.0000 0.50000  0.75000  0.00000  Biso   1.000  Al
