data_image0
_cell_length_a       23.432
_cell_length_b       9.5422
_cell_length_c       18.9958
_cell_angle_alpha    90
_cell_angle_beta     125.964
_cell_angle_gamma    90

_symmetry_space_group_name_H-M    "P 1"
_symmetry_int_tables_number       1

loop_
  _symmetry_equiv_pos_as_xyz
  'x, y, z'

loop_
  _atom_site_label
  _atom_site_occupancy
  _atom_site_fract_x
  _atom_site_fract_y
  _atom_site_fract_z
  _atom_site_thermal_displace_type
  _atom_site_B_iso_or_equiv
  _atom_site_type_symbol
  O1       1.0000 0.07198  0.14410  0.83648  Biso   1.000  O
  O2       1.0000 0.13060  0.94630  0.89567  Biso   1.000  O
  O3       1.0000 0.03949  0.05460  0.18887  Biso   1.000  O
  O4       1.0000 0.03398  0.28560  0.19674  Biso   1.000  O
  C1       1.0000 0.12665  0.07470  0.89212  Biso   1.000  C
  C2       1.0000 0.19129  0.16200  0.95296  Biso   1.000  C
  C3       1.0000 0.23597  0.18120  0.92862  Biso   1.000  C
  H1       1.0000 0.22610  0.13390  0.87980  Biso   1.000  H
  C4       1.0000 0.20485  0.23200  0.02628  Biso   1.000  C
  C5       1.0000 0.16072  0.21760  0.05839  Biso   1.000  C
  C6       1.0000 0.14871  0.33350  0.09254  Biso   1.000  C
  H2       1.0000 0.16580  0.42080  0.09130  Biso   1.000  H
  C7       1.0000 0.11184  0.32070  0.12817  Biso   1.000  C
  H3       1.0000 0.10400  0.39970  0.15010  Biso   1.000  H
  C8       1.0000 0.08644  0.19210  0.13177  Biso   1.000  C
  C9       1.0000 0.04966  0.17870  0.17551  Biso   1.000  C
  C10      1.0000 0.09681  0.07740  0.09605  Biso   1.000  C
  H4       1.0000 0.07890  0.99060  0.09640  Biso   1.000  H
  C11      1.0000 0.13336  0.08920  0.05980  Biso   1.000  C
  H5       1.0000 0.13970  0.01060  0.03620  Biso   1.000  H
  O5       1.0000 0.57198  0.64410  0.83648  Biso   1.000  O
  O6       1.0000 0.63060  0.44630  0.89567  Biso   1.000  O
  O7       1.0000 0.53949  0.55460  0.18887  Biso   1.000  O
  O8       1.0000 0.53398  0.78560  0.19674  Biso   1.000  O
  C12      1.0000 0.62665  0.57470  0.89212  Biso   1.000  C
  C13      1.0000 0.69129  0.66200  0.95296  Biso   1.000  C
  C14      1.0000 0.73597  0.68120  0.92862  Biso   1.000  C
  H6       1.0000 0.72610  0.63390  0.87980  Biso   1.000  H
  C15      1.0000 0.70485  0.73200  0.02628  Biso   1.000  C
  C16      1.0000 0.66072  0.71760  0.05839  Biso   1.000  C
  C17      1.0000 0.64871  0.83350  0.09254  Biso   1.000  C
  H7       1.0000 0.66580  0.92080  0.09130  Biso   1.000  H
  C18      1.0000 0.61184  0.82070  0.12817  Biso   1.000  C
  H8       1.0000 0.60400  0.89970  0.15010  Biso   1.000  H
  C19      1.0000 0.58644  0.69210  0.13177  Biso   1.000  C
  C20      1.0000 0.54966  0.67870  0.17551  Biso   1.000  C
  C21      1.0000 0.59681  0.57740  0.09605  Biso   1.000  C
  H9       1.0000 0.57890  0.49060  0.09640  Biso   1.000  H
  C22      1.0000 0.63336  0.58920  0.05980  Biso   1.000  C
  H10      1.0000 0.63970  0.51060  0.03620  Biso   1.000  H
  O9       1.0000 0.92802  0.14410  0.66352  Biso   1.000  O
  O10      1.0000 0.86940  0.94630  0.60433  Biso   1.000  O
  O11      1.0000 0.96051  0.05460  0.31113  Biso   1.000  O
  O12      1.0000 0.96602  0.28560  0.30326  Biso   1.000  O
  C23      1.0000 0.87335  0.07470  0.60788  Biso   1.000  C
  C24      1.0000 0.80871  0.16200  0.54704  Biso   1.000  C
  C25      1.0000 0.76403  0.18120  0.57138  Biso   1.000  C
  H11      1.0000 0.77390  0.13390  0.62020  Biso   1.000  H
  C26      1.0000 0.79515  0.23200  0.47372  Biso   1.000  C
  C27      1.0000 0.83928  0.21760  0.44161  Biso   1.000  C
  C28      1.0000 0.85129  0.33350  0.40746  Biso   1.000  C
  H12      1.0000 0.83420  0.42080  0.40870  Biso   1.000  H
  C29      1.0000 0.88816  0.32070  0.37183  Biso   1.000  C
  H13      1.0000 0.89600  0.39970  0.34990  Biso   1.000  H
  C30      1.0000 0.91356  0.19210  0.36823  Biso   1.000  C
  C31      1.0000 0.95034  0.17870  0.32449  Biso   1.000  C
  C32      1.0000 0.90319  0.07740  0.40395  Biso   1.000  C
  H14      1.0000 0.92110  0.99060  0.40360  Biso   1.000  H
  C33      1.0000 0.86664  0.08920  0.44020  Biso   1.000  C
  H15      1.0000 0.86030  0.01060  0.46380  Biso   1.000  H
  O13      1.0000 0.42802  0.64410  0.66352  Biso   1.000  O
  O14      1.0000 0.36940  0.44630  0.60433  Biso   1.000  O
  O15      1.0000 0.46051  0.55460  0.31113  Biso   1.000  O
  O16      1.0000 0.46602  0.78560  0.30326  Biso   1.000  O
  C34      1.0000 0.37335  0.57470  0.60788  Biso   1.000  C
  C35      1.0000 0.30871  0.66200  0.54704  Biso   1.000  C
  C36      1.0000 0.26403  0.68120  0.57138  Biso   1.000  C
  H16      1.0000 0.27390  0.63390  0.62020  Biso   1.000  H
  C37      1.0000 0.29515  0.73200  0.47372  Biso   1.000  C
  C38      1.0000 0.33928  0.71760  0.44161  Biso   1.000  C
  C39      1.0000 0.35129  0.83350  0.40746  Biso   1.000  C
  H17      1.0000 0.33420  0.92080  0.40870  Biso   1.000  H
  C40      1.0000 0.38816  0.82070  0.37183  Biso   1.000  C
  H18      1.0000 0.39600  0.89970  0.34990  Biso   1.000  H
  C41      1.0000 0.41356  0.69210  0.36823  Biso   1.000  C
  C42      1.0000 0.45034  0.67870  0.32449  Biso   1.000  C
  C43      1.0000 0.40319  0.57740  0.40395  Biso   1.000  C
  H19      1.0000 0.42110  0.49060  0.40360  Biso   1.000  H
  C44      1.0000 0.36664  0.58920  0.44020  Biso   1.000  C
  H20      1.0000 0.36030  0.51060  0.46380  Biso   1.000  H
  O17      1.0000 0.92802  0.85590  0.16352  Biso   1.000  O
  O18      1.0000 0.86940  0.05370  0.10433  Biso   1.000  O
  O19      1.0000 0.96051  0.94540  0.81113  Biso   1.000  O
  O20      1.0000 0.96602  0.71440  0.80326  Biso   1.000  O
  C45      1.0000 0.87335  0.92530  0.10788  Biso   1.000  C
  C46      1.0000 0.80871  0.83800  0.04704  Biso   1.000  C
  C47      1.0000 0.76403  0.81880  0.07138  Biso   1.000  C
  H21      1.0000 0.77390  0.86610  0.12020  Biso   1.000  H
  C48      1.0000 0.79515  0.76800  0.97372  Biso   1.000  C
  C49      1.0000 0.83928  0.78240  0.94161  Biso   1.000  C
  C50      1.0000 0.85129  0.66650  0.90746  Biso   1.000  C
  H22      1.0000 0.83420  0.57920  0.90870  Biso   1.000  H
  C51      1.0000 0.88816  0.67930  0.87183  Biso   1.000  C
  H23      1.0000 0.89600  0.60030  0.84990  Biso   1.000  H
  C52      1.0000 0.91356  0.80790  0.86823  Biso   1.000  C
  C53      1.0000 0.95034  0.82130  0.82449  Biso   1.000  C
  C54      1.0000 0.90319  0.92260  0.90395  Biso   1.000  C
  H24      1.0000 0.92110  0.00940  0.90360  Biso   1.000  H
  C55      1.0000 0.86664  0.91080  0.94020  Biso   1.000  C
  H25      1.0000 0.86030  0.98940  0.96380  Biso   1.000  H
  O21      1.0000 0.42802  0.35590  0.16352  Biso   1.000  O
  O22      1.0000 0.36940  0.55370  0.10433  Biso   1.000  O
  O23      1.0000 0.46051  0.44540  0.81113  Biso   1.000  O
  O24      1.0000 0.46602  0.21440  0.80326  Biso   1.000  O
  C56      1.0000 0.37335  0.42530  0.10788  Biso   1.000  C
  C57      1.0000 0.30871  0.33800  0.04704  Biso   1.000  C
  C58      1.0000 0.26403  0.31880  0.07138  Biso   1.000  C
  H26      1.0000 0.27390  0.36610  0.12020  Biso   1.000  H
  C59      1.0000 0.29515  0.26800  0.97372  Biso   1.000  C
  C60      1.0000 0.33928  0.28240  0.94161  Biso   1.000  C
  C61      1.0000 0.35129  0.16650  0.90746  Biso   1.000  C
  H27      1.0000 0.33420  0.07920  0.90870  Biso   1.000  H
  C62      1.0000 0.38816  0.17930  0.87183  Biso   1.000  C
  H28      1.0000 0.39600  0.10030  0.84990  Biso   1.000  H
  C63      1.0000 0.41356  0.30790  0.86823  Biso   1.000  C
  C64      1.0000 0.45034  0.32130  0.82449  Biso   1.000  C
  C65      1.0000 0.40319  0.42260  0.90395  Biso   1.000  C
  H29      1.0000 0.42110  0.50940  0.90360  Biso   1.000  H
  C66      1.0000 0.36664  0.41080  0.94020  Biso   1.000  C
  H30      1.0000 0.36030  0.48940  0.96380  Biso   1.000  H
  O25      1.0000 0.07198  0.85590  0.33648  Biso   1.000  O
  O26      1.0000 0.13060  0.05370  0.39567  Biso   1.000  O
  O27      1.0000 0.03949  0.94540  0.68887  Biso   1.000  O
  O28      1.0000 0.03398  0.71440  0.69674  Biso   1.000  O
  C67      1.0000 0.12665  0.92530  0.39212  Biso   1.000  C
  C68      1.0000 0.19129  0.83800  0.45296  Biso   1.000  C
  C69      1.0000 0.23597  0.81880  0.42862  Biso   1.000  C
  H31      1.0000 0.22610  0.86610  0.37980  Biso   1.000  H
  C70      1.0000 0.20485  0.76800  0.52628  Biso   1.000  C
  C71      1.0000 0.16072  0.78240  0.55839  Biso   1.000  C
  C72      1.0000 0.14871  0.66650  0.59254  Biso   1.000  C
  H32      1.0000 0.16580  0.57920  0.59130  Biso   1.000  H
  C73      1.0000 0.11184  0.67930  0.62817  Biso   1.000  C
  H33      1.0000 0.10400  0.60030  0.65010  Biso   1.000  H
  C74      1.0000 0.08644  0.80790  0.63177  Biso   1.000  C
  C75      1.0000 0.04966  0.82130  0.67551  Biso   1.000  C
  C76      1.0000 0.09681  0.92260  0.59605  Biso   1.000  C
  H34      1.0000 0.07890  0.00940  0.59640  Biso   1.000  H
  C77      1.0000 0.13336  0.91080  0.55980  Biso   1.000  C
  H35      1.0000 0.13970  0.98940  0.53620  Biso   1.000  H
  O29      1.0000 0.57198  0.35590  0.33648  Biso   1.000  O
  O30      1.0000 0.63060  0.55370  0.39567  Biso   1.000  O
  O31      1.0000 0.53949  0.44540  0.68887  Biso   1.000  O
  O32      1.0000 0.53398  0.21440  0.69674  Biso   1.000  O
  C78      1.0000 0.62665  0.42530  0.39212  Biso   1.000  C
  C79      1.0000 0.69129  0.33800  0.45296  Biso   1.000  C
  C80      1.0000 0.73597  0.31880  0.42862  Biso   1.000  C
  H36      1.0000 0.72610  0.36610  0.37980  Biso   1.000  H
  C81      1.0000 0.70485  0.26800  0.52628  Biso   1.000  C
  C82      1.0000 0.66072  0.28240  0.55839  Biso   1.000  C
  C83      1.0000 0.64871  0.16650  0.59254  Biso   1.000  C
  H37      1.0000 0.66580  0.07920  0.59130  Biso   1.000  H
  C84      1.0000 0.61184  0.17930  0.62817  Biso   1.000  C
  H38      1.0000 0.60400  0.10030  0.65010  Biso   1.000  H
  C85      1.0000 0.58644  0.30790  0.63177  Biso   1.000  C
  C86      1.0000 0.54966  0.32130  0.67551  Biso   1.000  C
  C87      1.0000 0.59681  0.42260  0.59605  Biso   1.000  C
  H39      1.0000 0.57890  0.50940  0.59640  Biso   1.000  H
  C88      1.0000 0.63336  0.41080  0.55980  Biso   1.000  C
  H40      1.0000 0.63970  0.48940  0.53620  Biso   1.000  H
  Zn1      1.0000 0.00000  0.00620  0.75000  Biso   1.000  Zn
  Zn2      1.0000 0.50000  0.50620  0.75000  Biso   1.000  Zn
  Zn3      1.0000 0.00000  0.99380  0.25000  Biso   1.000  Zn
  Zn4      1.0000 0.50000  0.49380  0.25000  Biso   1.000  Zn
