data_image0
_cell_length_a       7.7476
_cell_length_b       18.393
_cell_length_c       18.753
_cell_angle_alpha    90
_cell_angle_beta     101.72
_cell_angle_gamma    90

_symmetry_space_group_name_H-M    "P 1"
_symmetry_int_tables_number       1

loop_
  _symmetry_equiv_pos_as_xyz
  'x, y, z'

loop_
  _atom_site_label
  _atom_site_occupancy
  _atom_site_fract_x
  _atom_site_fract_y
  _atom_site_fract_z
  _atom_site_thermal_displace_type
  _atom_site_B_iso_or_equiv
  _atom_site_type_symbol
  Cd1      1.0000 0.45931  0.16342  0.10277  Biso   1.000  Cd
  Cd2      1.0000 0.08366  0.46304  0.36255  Biso   1.000  Cd
  O1       1.0000 0.08920  0.51040  0.25360  Biso   1.000  O
  O2       1.0000 0.03330  0.60860  0.31330  Biso   1.000  O
  O3       1.0000 0.98020  0.84710  0.18880  Biso   1.000  O
  O4       1.0000 0.98650  0.85560  0.07270  Biso   1.000  O
  O5       1.0000 0.42940  0.41540  0.70400  Biso   1.000  O
  O6       1.0000 0.43640  0.29780  0.72090  Biso   1.000  O
  O7       1.0000 0.44420  0.20050  0.97330  Biso   1.000  O
  O8       1.0000 0.39400  0.27830  0.05710  Biso   1.000  O
  O9       1.0000 0.59860  0.06170  0.07650  Biso   1.000  O
  O10      1.0000 0.82130  0.02060  0.03000  Biso   1.000  O
  N1       1.0000 0.22750  0.53130  0.00230  Biso   1.000  N
  N2       1.0000 0.26530  0.58470  0.90340  Biso   1.000  N
  H1       1.0000 0.29070  0.59210  0.86140  Biso   1.000  H
  N3       1.0000 0.20990  0.63560  0.94590  Biso   1.000  N
  C1       1.0000 0.06730  0.57850  0.25840  Biso   1.000  C
  C2       1.0000 0.08410  0.62400  0.19150  Biso   1.000  C
  C3       1.0000 0.04370  0.69710  0.19090  Biso   1.000  C
  H2       1.0000 0.01070  0.71790  0.23130  Biso   1.000  H
  C4       1.0000 0.05170  0.74060  0.13010  Biso   1.000  C
  C5       1.0000 0.09930  0.70970  0.06940  Biso   1.000  C
  H3       1.0000 0.10540  0.73810  0.02900  Biso   1.000  H
  C6       1.0000 0.13840  0.63480  0.06990  Biso   1.000  C
  C7       1.0000 0.13510  0.59270  0.13070  Biso   1.000  C
  H4       1.0000 0.16640  0.54390  0.13130  Biso   1.000  H
  C8       1.0000 0.00530  0.81940  0.13000  Biso   1.000  C
  C9       1.0000 0.19300  0.60230  0.00610  Biso   1.000  C
  C10      1.0000 0.27300  0.52340  0.93690  Biso   1.000  C
  C11      1.0000 0.32050  0.45230  0.91310  Biso   1.000  C
  C12      1.0000 0.33720  0.39240  0.95960  Biso   1.000  C
  H5       1.0000 0.31480  0.39850  0.00610  Biso   1.000  H
  C13      1.0000 0.38510  0.32500  0.93960  Biso   1.000  C
  C14      1.0000 0.41200  0.31650  0.86750  Biso   1.000  C
  H6       1.0000 0.44120  0.27080  0.85220  Biso   1.000  H
  C15      1.0000 0.39670  0.37220  0.82090  Biso   1.000  C
  C16      1.0000 0.35100  0.44100  0.84220  Biso   1.000  C
  H7       1.0000 0.34050  0.47960  0.80960  Biso   1.000  H
  C17      1.0000 0.42160  0.36150  0.74310  Biso   1.000  C
  C18      1.0000 0.41000  0.26290  0.99360  Biso   1.000  C
  C19      1.0000 0.69830  0.06360  0.03080  Biso   1.000  C
  H8       1.0000 0.67780  0.09960  0.99530  Biso   1.000  H
  Cd3      1.0000 0.54069  0.66342  0.39723  Biso   1.000  Cd
  Cd4      1.0000 0.91634  0.96304  0.13745  Biso   1.000  Cd
  O11      1.0000 0.91080  0.01040  0.24640  Biso   1.000  O
  O12      1.0000 0.96670  0.10860  0.18670  Biso   1.000  O
  O13      1.0000 0.01980  0.34710  0.31120  Biso   1.000  O
  O14      1.0000 0.01350  0.35560  0.42730  Biso   1.000  O
  O15      1.0000 0.57060  0.91540  0.79600  Biso   1.000  O
  O16      1.0000 0.56360  0.79780  0.77910  Biso   1.000  O
  O17      1.0000 0.55580  0.70050  0.52670  Biso   1.000  O
  O18      1.0000 0.60600  0.77830  0.44290  Biso   1.000  O
  O19      1.0000 0.40140  0.56170  0.42350  Biso   1.000  O
  O20      1.0000 0.17870  0.52060  0.47000  Biso   1.000  O
  N4       1.0000 0.77250  0.03130  0.49770  Biso   1.000  N
  N5       1.0000 0.73470  0.08470  0.59660  Biso   1.000  N
  H9       1.0000 0.70930  0.09210  0.63860  Biso   1.000  H
  N6       1.0000 0.79010  0.13560  0.55410  Biso   1.000  N
  C20      1.0000 0.93270  0.07850  0.24160  Biso   1.000  C
  C21      1.0000 0.91590  0.12400  0.30850  Biso   1.000  C
  C22      1.0000 0.95630  0.19710  0.30910  Biso   1.000  C
  H10      1.0000 0.98930  0.21790  0.26870  Biso   1.000  H
  C23      1.0000 0.94830  0.24060  0.36990  Biso   1.000  C
  C24      1.0000 0.90070  0.20970  0.43060  Biso   1.000  C
  H11      1.0000 0.89460  0.23810  0.47100  Biso   1.000  H
  C25      1.0000 0.86160  0.13480  0.43010  Biso   1.000  C
  C26      1.0000 0.86490  0.09270  0.36930  Biso   1.000  C
  H12      1.0000 0.83360  0.04390  0.36870  Biso   1.000  H
  C27      1.0000 0.99470  0.31940  0.37000  Biso   1.000  C
  C28      1.0000 0.80700  0.10230  0.49390  Biso   1.000  C
  C29      1.0000 0.72700  0.02340  0.56310  Biso   1.000  C
  C30      1.0000 0.67950  0.95230  0.58690  Biso   1.000  C
  C31      1.0000 0.66280  0.89240  0.54040  Biso   1.000  C
  H13      1.0000 0.68520  0.89850  0.49390  Biso   1.000  H
  C32      1.0000 0.61490  0.82500  0.56040  Biso   1.000  C
  C33      1.0000 0.58800  0.81650  0.63250  Biso   1.000  C
  H14      1.0000 0.55880  0.77080  0.64780  Biso   1.000  H
  C34      1.0000 0.60330  0.87220  0.67910  Biso   1.000  C
  C35      1.0000 0.64900  0.94100  0.65780  Biso   1.000  C
  H15      1.0000 0.65950  0.97960  0.69040  Biso   1.000  H
  C36      1.0000 0.57840  0.86150  0.75690  Biso   1.000  C
  C37      1.0000 0.59000  0.76290  0.50640  Biso   1.000  C
  C38      1.0000 0.30170  0.56360  0.46920  Biso   1.000  C
  H16      1.0000 0.32220  0.59960  0.50470  Biso   1.000  H
  Cd5      1.0000 0.54069  0.83658  0.89723  Biso   1.000  Cd
  Cd6      1.0000 0.91634  0.53696  0.63745  Biso   1.000  Cd
  O21      1.0000 0.91080  0.48960  0.74640  Biso   1.000  O
  O22      1.0000 0.96670  0.39140  0.68670  Biso   1.000  O
  O23      1.0000 0.01980  0.15290  0.81120  Biso   1.000  O
  O24      1.0000 0.01350  0.14440  0.92730  Biso   1.000  O
  O25      1.0000 0.57060  0.58460  0.29600  Biso   1.000  O
  O26      1.0000 0.56360  0.70220  0.27910  Biso   1.000  O
  O27      1.0000 0.55580  0.79950  0.02670  Biso   1.000  O
  O28      1.0000 0.60600  0.72170  0.94290  Biso   1.000  O
  O29      1.0000 0.40140  0.93830  0.92350  Biso   1.000  O
  O30      1.0000 0.17870  0.97940  0.97000  Biso   1.000  O
  N7       1.0000 0.77250  0.46870  0.99770  Biso   1.000  N
  N8       1.0000 0.73470  0.41530  0.09660  Biso   1.000  N
  H17      1.0000 0.70930  0.40790  0.13860  Biso   1.000  H
  N9       1.0000 0.79010  0.36440  0.05410  Biso   1.000  N
  C39      1.0000 0.93270  0.42150  0.74160  Biso   1.000  C
  C40      1.0000 0.91590  0.37600  0.80850  Biso   1.000  C
  C41      1.0000 0.95630  0.30290  0.80910  Biso   1.000  C
  H18      1.0000 0.98930  0.28210  0.76870  Biso   1.000  H
  C42      1.0000 0.94830  0.25940  0.86990  Biso   1.000  C
  C43      1.0000 0.90070  0.29030  0.93060  Biso   1.000  C
  H19      1.0000 0.89460  0.26190  0.97100  Biso   1.000  H
  C44      1.0000 0.86160  0.36520  0.93010  Biso   1.000  C
  C45      1.0000 0.86490  0.40730  0.86930  Biso   1.000  C
  H20      1.0000 0.83360  0.45610  0.86870  Biso   1.000  H
  C46      1.0000 0.99470  0.18060  0.87000  Biso   1.000  C
  C47      1.0000 0.80700  0.39770  0.99390  Biso   1.000  C
  C48      1.0000 0.72700  0.47660  0.06310  Biso   1.000  C
  C49      1.0000 0.67950  0.54770  0.08690  Biso   1.000  C
  C50      1.0000 0.66280  0.60760  0.04040  Biso   1.000  C
  H21      1.0000 0.68520  0.60150  0.99390  Biso   1.000  H
  C51      1.0000 0.61490  0.67500  0.06040  Biso   1.000  C
  C52      1.0000 0.58800  0.68350  0.13250  Biso   1.000  C
  H22      1.0000 0.55880  0.72920  0.14780  Biso   1.000  H
  C53      1.0000 0.60330  0.62780  0.17910  Biso   1.000  C
  C54      1.0000 0.64900  0.55900  0.15780  Biso   1.000  C
  H23      1.0000 0.65950  0.52040  0.19040  Biso   1.000  H
  C55      1.0000 0.57840  0.63850  0.25690  Biso   1.000  C
  C56      1.0000 0.59000  0.73710  0.00640  Biso   1.000  C
  C57      1.0000 0.30170  0.93640  0.96920  Biso   1.000  C
  H24      1.0000 0.32220  0.90040  0.00470  Biso   1.000  H
  Cd7      1.0000 0.45931  0.33658  0.60277  Biso   1.000  Cd
  Cd8      1.0000 0.08366  0.03696  0.86255  Biso   1.000  Cd
  O31      1.0000 0.08920  0.98960  0.75360  Biso   1.000  O
  O32      1.0000 0.03330  0.89140  0.81330  Biso   1.000  O
  O33      1.0000 0.98020  0.65290  0.68880  Biso   1.000  O
  O34      1.0000 0.98650  0.64440  0.57270  Biso   1.000  O
  O35      1.0000 0.42940  0.08460  0.20400  Biso   1.000  O
  O36      1.0000 0.43640  0.20220  0.22090  Biso   1.000  O
  O37      1.0000 0.44420  0.29950  0.47330  Biso   1.000  O
  O38      1.0000 0.39400  0.22170  0.55710  Biso   1.000  O
  O39      1.0000 0.59860  0.43830  0.57650  Biso   1.000  O
  O40      1.0000 0.82130  0.47940  0.53000  Biso   1.000  O
  N10      1.0000 0.22750  0.96870  0.50230  Biso   1.000  N
  N11      1.0000 0.26530  0.91530  0.40340  Biso   1.000  N
  H25      1.0000 0.29070  0.90790  0.36140  Biso   1.000  H
  N12      1.0000 0.20990  0.86440  0.44590  Biso   1.000  N
  C58      1.0000 0.06730  0.92150  0.75840  Biso   1.000  C
  C59      1.0000 0.08410  0.87600  0.69150  Biso   1.000  C
  C60      1.0000 0.04370  0.80290  0.69090  Biso   1.000  C
  H26      1.0000 0.01070  0.78210  0.73130  Biso   1.000  H
  C61      1.0000 0.05170  0.75940  0.63010  Biso   1.000  C
  C62      1.0000 0.09930  0.79030  0.56940  Biso   1.000  C
  H27      1.0000 0.10540  0.76190  0.52900  Biso   1.000  H
  C63      1.0000 0.13840  0.86520  0.56990  Biso   1.000  C
  C64      1.0000 0.13510  0.90730  0.63070  Biso   1.000  C
  H28      1.0000 0.16640  0.95610  0.63130  Biso   1.000  H
  C65      1.0000 0.00530  0.68060  0.63000  Biso   1.000  C
  C66      1.0000 0.19300  0.89770  0.50610  Biso   1.000  C
  C67      1.0000 0.27300  0.97660  0.43690  Biso   1.000  C
  C68      1.0000 0.32050  0.04770  0.41310  Biso   1.000  C
  C69      1.0000 0.33720  0.10760  0.45960  Biso   1.000  C
  H29      1.0000 0.31480  0.10150  0.50610  Biso   1.000  H
  C70      1.0000 0.38510  0.17500  0.43960  Biso   1.000  C
  C71      1.0000 0.41200  0.18350  0.36750  Biso   1.000  C
  H30      1.0000 0.44120  0.22920  0.35220  Biso   1.000  H
  C72      1.0000 0.39670  0.12780  0.32090  Biso   1.000  C
  C73      1.0000 0.35100  0.05900  0.34220  Biso   1.000  C
  H31      1.0000 0.34050  0.02040  0.30960  Biso   1.000  H
  C74      1.0000 0.42160  0.13850  0.24310  Biso   1.000  C
  C75      1.0000 0.41000  0.23710  0.49360  Biso   1.000  C
  C76      1.0000 0.69830  0.43640  0.53080  Biso   1.000  C
  H32      1.0000 0.67780  0.40040  0.49530  Biso   1.000  H
