data_OKILIE_clean
_audit_creation_date              2014-07-02
_audit_creation_method            'Materials Studio'
_symmetry_space_group_name_H-M    'P1'
_symmetry_Int_Tables_number       1
_symmetry_cell_setting            triclinic
loop_
_symmetry_equiv_pos_as_xyz
  x,y,z
_cell_length_a                    8.7442
_cell_length_b                    16.7659
_cell_length_c                    16.7659
_cell_angle_alpha                 62.9566
_cell_angle_beta                  79.9884
_cell_angle_gamma                 100.0120
loop_
_atom_site_label
_atom_site_type_symbol
_atom_site_fract_x
_atom_site_fract_y
_atom_site_fract_z
_atom_site_U_iso_or_equiv
_atom_site_adp_type
_atom_site_occupancy
Mn1    Mn    0.71491   0.42352   0.42792   0.01267  Uiso   1.00
Mn2    Mn    0.14283   0.42792   0.14856   0.01267  Uiso   1.00
Mn3    Mn    0.29139   0.14856   0.42352   0.01267  Uiso   1.00
Mn4    Mn    0.64283   0.85144   0.57208   0.01267  Uiso   1.00
Mn5    Mn    0.79139   0.57648   0.85144   0.01267  Uiso   1.00
Mn6    Mn    0.21491   0.57208   0.57648   0.01267  Uiso   1.00
H1     H     0.58980   0.37430   0.76750   0.01267  Uiso   1.00
H2     H     0.33370   0.27250   0.81090   0.01267  Uiso   1.00
H3     H     0.14600   0.12670   0.87840   0.01267  Uiso   1.00
H4     H     0.14420   0.04080   0.80840   0.01267  Uiso   1.00
H5     H     0.36560   0.07440   0.68810   0.01267  Uiso   1.00
H6     H     0.55500   0.21390   0.61760   0.01267  Uiso   1.00
H7     H     0.35730   0.76750   0.85820   0.01267  Uiso   1.00
H8     H     0.14460   0.81090   0.91660   0.01267  Uiso   1.00
H9     H     0.02440   0.87840   0.99490   0.01267  Uiso   1.00
H10    H     0.95260   0.80840   0.15080   0.01267  Uiso   1.00
H11    H     0.05370   0.68810   0.23750   0.01267  Uiso   1.00
H12    H     0.17260   0.61760   0.16850   0.01267  Uiso   1.00
H13    H     0.21550   0.85820   0.37430   0.01267  Uiso   1.00
H14    H     0.06120   0.91660   0.27250   0.01267  Uiso   1.00
H15    H     0.01930   0.99490   0.12670   0.01267  Uiso   1.00
H16    H     0.10340   0.15080   0.04080   0.01267  Uiso   1.00
H17    H     0.29120   0.23750   0.07440   0.01267  Uiso   1.00
H18    H     0.34110   0.16850   0.21390   0.01267  Uiso   1.00
H19    H     0.85730   0.14180   0.23250   0.01267  Uiso   1.00
H20    H     0.64460   0.08340   0.18910   0.01267  Uiso   1.00
H21    H     0.52440   0.00510   0.12160   0.01267  Uiso   1.00
H22    H     0.45260   0.84920   0.19160   0.01267  Uiso   1.00
H23    H     0.55370   0.76250   0.31190   0.01267  Uiso   1.00
H24    H     0.67260   0.83150   0.38240   0.01267  Uiso   1.00
H25    H     0.71550   0.62570   0.14180   0.01267  Uiso   1.00
H26    H     0.56120   0.72750   0.08340   0.01267  Uiso   1.00
H27    H     0.51930   0.87330   0.00510   0.01267  Uiso   1.00
H28    H     0.60340   0.95920   0.84920   0.01267  Uiso   1.00
H29    H     0.79120   0.92560   0.76250   0.01267  Uiso   1.00
H30    H     0.84110   0.78610   0.83150   0.01267  Uiso   1.00
H31    H     0.08980   0.23250   0.62570   0.01267  Uiso   1.00
H32    H     0.83370   0.18910   0.72750   0.01267  Uiso   1.00
H33    H     0.64600   0.12160   0.87330   0.01267  Uiso   1.00
H34    H     0.64420   0.19160   0.95920   0.01267  Uiso   1.00
H35    H     0.86560   0.31190   0.92560   0.01267  Uiso   1.00
H36    H     0.05500   0.38240   0.78610   0.01267  Uiso   1.00
C1     C     0.82020   0.45920   0.57640   0.01267  Uiso   1.00
C2     C     0.78440   0.46270   0.65820   0.01267  Uiso   1.00
C3     C     0.60340   0.34510   0.66570   0.01267  Uiso   1.00
C4     C     0.94440   0.51990   0.48770   0.01267  Uiso   1.00
C5     C     0.84490   0.51230   0.70330   0.01267  Uiso   1.00
C6     C     0.46700   0.25630   0.70560   0.01267  Uiso   1.00
C7     C     0.33960   0.23310   0.78620   0.01267  Uiso   1.00
C8     C     0.22760   0.14800   0.82350   0.01267  Uiso   1.00
C9     C     0.23050   0.09440   0.78460   0.01267  Uiso   1.00
C10    C     0.35890   0.11610   0.71000   0.01267  Uiso   1.00
C11    C     0.47160   0.19690   0.67020   0.01267  Uiso   1.00
C12    C     0.39660   0.57640   0.96440   0.01267  Uiso   1.00
C13    C     0.44260   0.65820   0.87910   0.01267  Uiso   1.00
C14    C     0.26910   0.66570   0.98920   0.01267  Uiso   1.00
C15    C     0.43210   0.48770   0.99240   0.01267  Uiso   1.00
C16    C     0.54820   0.70330   0.78440   0.01267  Uiso   1.00
C17    C     0.17260   0.70560   0.03810   0.01267  Uiso   1.00
C18    C     0.12580   0.78620   0.98070   0.01267  Uiso   1.00
C19    C     0.05110   0.82350   0.02850   0.01267  Uiso   1.00
C20    C     0.01510   0.78460   0.12100   0.01267  Uiso   1.00
C21    C     0.06890   0.71000   0.17390   0.01267  Uiso   1.00
C22    C     0.14180   0.67020   0.13290   0.01267  Uiso   1.00
C23    C     0.36100   0.96440   0.45920   0.01267  Uiso   1.00
C24    C     0.32170   0.87910   0.46270   0.01267  Uiso   1.00
C25    C     0.25830   0.98920   0.34510   0.01267  Uiso   1.00
C26    C     0.42450   0.99240   0.51990   0.01267  Uiso   1.00
C27    C     0.33260   0.78440   0.51230   0.01267  Uiso   1.00
C28    C     0.21070   0.03810   0.25630   0.01267  Uiso   1.00
C29    C     0.10650   0.98070   0.23310   0.01267  Uiso   1.00
C30    C     0.07960   0.02850   0.14800   0.01267  Uiso   1.00
C31    C     0.13610   0.12100   0.09440   0.01267  Uiso   1.00
C32    C     0.24280   0.17390   0.11610   0.01267  Uiso   1.00
C33    C     0.27470   0.13290   0.19690   0.01267  Uiso   1.00
C34    C     0.89660   0.03560   0.42360   0.01267  Uiso   1.00
C35    C     0.94260   0.12090   0.34180   0.01267  Uiso   1.00
C36    C     0.76910   0.01080   0.33430   0.01267  Uiso   1.00
C37    C     0.93210   0.00760   0.51230   0.01267  Uiso   1.00
C38    C     0.04820   0.21560   0.29670   0.01267  Uiso   1.00
C39    C     0.67260   0.96190   0.29440   0.01267  Uiso   1.00
C40    C     0.62580   0.01930   0.21380   0.01267  Uiso   1.00
C41    C     0.55110   0.97150   0.17650   0.01267  Uiso   1.00
C42    C     0.51510   0.87900   0.21540   0.01267  Uiso   1.00
C43    C     0.56890   0.82610   0.29000   0.01267  Uiso   1.00
C44    C     0.64180   0.86710   0.32980   0.01267  Uiso   1.00
C45    C     0.86100   0.54080   0.03560   0.01267  Uiso   1.00
C46    C     0.82170   0.53730   0.12090   0.01267  Uiso   1.00
C47    C     0.75830   0.65490   0.01080   0.01267  Uiso   1.00
C48    C     0.92450   0.48010   0.00760   0.01267  Uiso   1.00
C49    C     0.83260   0.48770   0.21560   0.01267  Uiso   1.00
C50    C     0.71070   0.74370   0.96190   0.01267  Uiso   1.00
C51    C     0.60650   0.76690   0.01930   0.01267  Uiso   1.00
C52    C     0.57960   0.85200   0.97150   0.01267  Uiso   1.00
C53    C     0.63610   0.90560   0.87900   0.01267  Uiso   1.00
C54    C     0.74280   0.88390   0.82610   0.01267  Uiso   1.00
C55    C     0.77470   0.80310   0.86710   0.01267  Uiso   1.00
C56    C     0.32020   0.42360   0.54080   0.01267  Uiso   1.00
C57    C     0.28440   0.34180   0.53730   0.01267  Uiso   1.00
C58    C     0.10340   0.33430   0.65490   0.01267  Uiso   1.00
C59    C     0.44440   0.51230   0.48010   0.01267  Uiso   1.00
C60    C     0.34490   0.29670   0.48770   0.01267  Uiso   1.00
C61    C     0.96700   0.29440   0.74370   0.01267  Uiso   1.00
C62    C     0.83960   0.21380   0.76690   0.01267  Uiso   1.00
C63    C     0.72760   0.17650   0.85200   0.01267  Uiso   1.00
C64    C     0.73050   0.21540   0.90560   0.01267  Uiso   1.00
C65    C     0.85890   0.29000   0.88390   0.01267  Uiso   1.00
C66    C     0.97160   0.32980   0.80310   0.01267  Uiso   1.00
N1     N     0.70810   0.38830   0.57960   0.01267  Uiso   1.00
N2     N     0.64370   0.38940   0.71210   0.01267  Uiso   1.00
N3     N     0.28770   0.57960   0.03210   0.01267  Uiso   1.00
N4     N     0.35580   0.71210   0.89850   0.01267  Uiso   1.00
N5     N     0.31980   0.03210   0.38830   0.01267  Uiso   1.00
N6     N     0.25430   0.89850   0.38940   0.01267  Uiso   1.00
N7     N     0.78770   0.96790   0.42040   0.01267  Uiso   1.00
N8     N     0.85580   0.10150   0.28790   0.01267  Uiso   1.00
N9     N     0.81980   0.61170   0.96790   0.01267  Uiso   1.00
N10    N     0.75430   0.61060   0.10150   0.01267  Uiso   1.00
N11    N     0.20810   0.42040   0.61170   0.01267  Uiso   1.00
N12    N     0.14370   0.28790   0.61060   0.01267  Uiso   1.00
O1     O     0.92976   0.51902   0.41794   0.01267  Uiso   1.00
O2     O     0.07142   0.57594   0.48278   0.01267  Uiso   1.00
O3     O     0.00063   0.56060   0.66751   0.01267  Uiso   1.00
O4     O     0.75961   0.50765   0.77092   0.01267  Uiso   1.00
O5     O     0.34770   0.41794   0.06304   0.01267  Uiso   1.00
O6     O     0.55420   0.48278   0.94128   0.01267  Uiso   1.00
O7     O     0.66814   0.66751   0.77189   0.01267  Uiso   1.00
O8     O     0.53053   0.77092   0.72143   0.01267  Uiso   1.00
O9     O     0.41074   0.06304   0.51902   0.01267  Uiso   1.00
O10    O     0.49548   0.94128   0.57594   0.01267  Uiso   1.00
O11    O     0.44003   0.77189   0.56060   0.01267  Uiso   1.00
O12    O     0.25196   0.72143   0.50765   0.01267  Uiso   1.00
O13    O     0.84770   0.93696   0.58206   0.01267  Uiso   1.00
O14    O     0.05420   0.05872   0.51722   0.01267  Uiso   1.00
O15    O     0.16814   0.22811   0.33249   0.01267  Uiso   1.00
O16    O     0.03053   0.27857   0.22908   0.01267  Uiso   1.00
O17    O     0.91074   0.48098   0.93696   0.01267  Uiso   1.00
O18    O     0.99548   0.42406   0.05872   0.01267  Uiso   1.00
O19    O     0.94003   0.43940   0.22811   0.01267  Uiso   1.00
O20    O     0.75196   0.49235   0.27857   0.01267  Uiso   1.00
O21    O     0.42976   0.58206   0.48098   0.01267  Uiso   1.00
O22    O     0.57142   0.51722   0.42406   0.01267  Uiso   1.00
O23    O     0.50063   0.33249   0.43940   0.01267  Uiso   1.00
O24    O     0.25961   0.22908   0.49235   0.01267  Uiso   1.00
