data_OKINIG_clean
_audit_creation_date              2014-07-02
_audit_creation_method            'Materials Studio'
_symmetry_space_group_name_H-M    'P1'
_symmetry_Int_Tables_number       1
_symmetry_cell_setting            triclinic
loop_
_symmetry_equiv_pos_as_xyz
  x,y,z
_cell_length_a                    9.4778
_cell_length_b                    9.9538
_cell_length_c                    17.6920
_cell_angle_alpha                 90.0000
_cell_angle_beta                  90.0000
_cell_angle_gamma                 104.4190
loop_
_atom_site_label
_atom_site_type_symbol
_atom_site_fract_x
_atom_site_fract_y
_atom_site_fract_z
_atom_site_U_iso_or_equiv
_atom_site_adp_type
_atom_site_occupancy
Li1    Li    0.78030   0.94910   0.74090   0.01267  Uiso   1.00
Li2    Li    0.87080   0.80700   0.86190   0.01267  Uiso   1.00
Li3    Li    0.97290   0.55360   0.59270   0.01267  Uiso   1.00
Li4    Li    0.97280   0.04780   0.51980   0.01267  Uiso   1.00
Li5    Li    0.13780   0.34420   0.54070   0.01267  Uiso   1.00
Li6    Li    0.13320   0.82930   0.51680   0.01267  Uiso   1.00
Li7    Li    0.13470   0.70380   0.75750   0.01267  Uiso   1.00
Li8    Li    0.21970   0.05090   0.24090   0.01267  Uiso   1.00
Li9    Li    0.12920   0.19300   0.36190   0.01267  Uiso   1.00
Li10   Li    0.02710   0.44640   0.09270   0.01267  Uiso   1.00
Li11   Li    0.02720   0.95220   0.01980   0.01267  Uiso   1.00
Li12   Li    0.86220   0.65580   0.04070   0.01267  Uiso   1.00
Li13   Li    0.86680   0.17070   0.01680   0.01267  Uiso   1.00
Li14   Li    0.86530   0.29620   0.25750   0.01267  Uiso   1.00
H1     H     0.82960   0.55560   0.91110   0.01267  Uiso   1.00
H2     H     0.74620   0.65280   0.91960   0.01267  Uiso   1.00
H3     H     0.70160   0.50400   0.66130   0.01267  Uiso   1.00
H4     H     0.67530   0.58220   0.55050   0.01267  Uiso   1.00
H5     H     0.55040   0.76660   0.53280   0.01267  Uiso   1.00
H6     H     0.42700   0.52880   0.54850   0.01267  Uiso   1.00
H7     H     0.45920   0.43020   0.65250   0.01267  Uiso   1.00
H8     H     0.56460   0.57120   0.76250   0.01267  Uiso   1.00
H9     H     0.54650   0.80300   0.75870   0.01267  Uiso   1.00
H10    H     0.54990   0.90690   0.64020   0.01267  Uiso   1.00
H11    H     0.54350   0.07440   0.95750   0.01267  Uiso   1.00
H12    H     0.56830   0.98370   0.06560   0.01267  Uiso   1.00
H13    H     0.44680   0.74510   0.08540   0.01267  Uiso   1.00
H14    H     0.31620   0.92050   0.06540   0.01267  Uiso   1.00
H15    H     0.30510   0.00540   0.95430   0.01267  Uiso   1.00
H16    H     0.43300   0.92660   0.85200   0.01267  Uiso   1.00
H17    H     0.44560   0.69330   0.86020   0.01267  Uiso   1.00
H18    H     0.45100   0.59920   0.98100   0.01267  Uiso   1.00
H19    H     0.17040   0.44440   0.41110   0.01267  Uiso   1.00
H20    H     0.25380   0.34720   0.41960   0.01267  Uiso   1.00
H21    H     0.29840   0.49600   0.16130   0.01267  Uiso   1.00
H22    H     0.32470   0.41780   0.05050   0.01267  Uiso   1.00
H23    H     0.44960   0.23340   0.03280   0.01267  Uiso   1.00
H24    H     0.57300   0.47120   0.04850   0.01267  Uiso   1.00
H25    H     0.54080   0.56980   0.15250   0.01267  Uiso   1.00
H26    H     0.43540   0.42880   0.26250   0.01267  Uiso   1.00
H27    H     0.45350   0.19700   0.25870   0.01267  Uiso   1.00
H28    H     0.45010   0.09310   0.14020   0.01267  Uiso   1.00
H29    H     0.45650   0.92560   0.45750   0.01267  Uiso   1.00
H30    H     0.43170   0.01630   0.56560   0.01267  Uiso   1.00
H31    H     0.55320   0.25490   0.58540   0.01267  Uiso   1.00
H32    H     0.68380   0.07950   0.56540   0.01267  Uiso   1.00
H33    H     0.69490   0.99460   0.45430   0.01267  Uiso   1.00
H34    H     0.56700   0.07340   0.35200   0.01267  Uiso   1.00
H35    H     0.55440   0.30670   0.36020   0.01267  Uiso   1.00
H36    H     0.54900   0.40080   0.48100   0.01267  Uiso   1.00
C1     C     0.70280   0.60220   0.66708   0.01267  Uiso   1.00
C2     C     0.69110   0.66110   0.58540   0.01267  Uiso   1.00
C3     C     0.55370   0.71880   0.58090   0.01267  Uiso   1.00
C4     C     0.42010   0.59360   0.58920   0.01267  Uiso   1.00
C5     C     0.43390   0.51720   0.66500   0.01267  Uiso   1.00
C6     C     0.56250   0.60810   0.71130   0.01267  Uiso   1.00
C7     C     0.84270   0.67110   0.70980   0.01267  Uiso   1.00
C8     C     0.82930   0.76520   0.55970   0.01267  Uiso   1.00
C9     C     0.27480   0.63120   0.57882   0.01267  Uiso   1.00
C10    C     0.29660   0.48160   0.71390   0.01267  Uiso   1.00
C11    C     0.55210   0.75620   0.71370   0.01267  Uiso   1.00
C12    C     0.55150   0.81450   0.64640   0.01267  Uiso   1.00
C13    C     0.56690   0.98550   0.94770   0.01267  Uiso   1.00
C14    C     0.57680   0.91570   0.02690   0.01267  Uiso   1.00
C15    C     0.44360   0.79000   0.03640   0.01267  Uiso   1.00
C16    C     0.30530   0.84350   0.02960   0.01267  Uiso   1.00
C17    C     0.29820   0.90610   0.94790   0.01267  Uiso   1.00
C18    C     0.43560   0.89320   0.90390   0.01267  Uiso   1.00
C19    C     0.70870   0.01690   0.90340   0.01267  Uiso   1.00
C20    C     0.72000   0.87720   0.04100   0.01267  Uiso   1.00
C21    C     0.16720   0.73440   0.05260   0.01267  Uiso   1.00
C22    C     0.15770   0.84460   0.90490   0.01267  Uiso   1.00
C23    C     0.44340   0.74380   0.90430   0.01267  Uiso   1.00
C24    C     0.44690   0.69050   0.97290   0.01267  Uiso   1.00
C25    C     0.29720   0.39780   0.16708   0.01267  Uiso   1.00
C26    C     0.30890   0.33890   0.08540   0.01267  Uiso   1.00
C27    C     0.44630   0.28120   0.08090   0.01267  Uiso   1.00
C28    C     0.57990   0.40640   0.08920   0.01267  Uiso   1.00
C29    C     0.56610   0.48280   0.16500   0.01267  Uiso   1.00
C30    C     0.43750   0.39190   0.21130   0.01267  Uiso   1.00
C31    C     0.15730   0.32890   0.20980   0.01267  Uiso   1.00
C32    C     0.17070   0.23480   0.05970   0.01267  Uiso   1.00
C33    C     0.72520   0.36880   0.07882   0.01267  Uiso   1.00
C34    C     0.70340   0.51840   0.21390   0.01267  Uiso   1.00
C35    C     0.44790   0.24380   0.21370   0.01267  Uiso   1.00
C36    C     0.44850   0.18550   0.14640   0.01267  Uiso   1.00
C37    C     0.43310   0.01450   0.44770   0.01267  Uiso   1.00
C38    C     0.42320   0.08430   0.52690   0.01267  Uiso   1.00
C39    C     0.55640   0.21000   0.53640   0.01267  Uiso   1.00
C40    C     0.69470   0.15650   0.52960   0.01267  Uiso   1.00
C41    C     0.70180   0.09390   0.44790   0.01267  Uiso   1.00
C42    C     0.56440   0.10680   0.40390   0.01267  Uiso   1.00
C43    C     0.29130   0.98310   0.40340   0.01267  Uiso   1.00
C44    C     0.28000   0.12280   0.54100   0.01267  Uiso   1.00
C45    C     0.83280   0.26560   0.55260   0.01267  Uiso   1.00
C46    C     0.84230   0.15540   0.40490   0.01267  Uiso   1.00
C47    C     0.55660   0.25620   0.40430   0.01267  Uiso   1.00
C48    C     0.55310   0.30950   0.47290   0.01267  Uiso   1.00
O1     O     0.84610   0.77130   0.75277   0.01267  Uiso   1.00
O2     O     0.95050   0.61870   0.69970   0.01267  Uiso   1.00
O3     O     0.93500   0.71500   0.53750   0.01267  Uiso   1.00
O4     O     0.83510   0.89110   0.55973   0.01267  Uiso   1.00
O5     O     0.16350   0.52990   0.57376   0.01267  Uiso   1.00
O6     O     0.27050   0.75540   0.57367   0.01267  Uiso   1.00
O7     O     0.24460   0.57520   0.73934   0.01267  Uiso   1.00
O8     O     0.24630   0.35540   0.73060   0.01267  Uiso   1.00
O9     O     0.73930   0.92660   0.86166   0.01267  Uiso   1.00
O10    O     0.79330   0.13920   0.91110   0.01267  Uiso   1.00
O11    O     0.83620   0.97540   0.03830   0.01267  Uiso   1.00
O12    O     0.71950   0.75450   0.05632   0.01267  Uiso   1.00
O13    O     0.17030   0.61180   0.06264   0.01267  Uiso   1.00
O14    O     0.05270   0.77910   0.06152   0.01267  Uiso   1.00
O15    O     0.14380   0.73550   0.86714   0.01267  Uiso   1.00
O16    O     0.05740   0.90910   0.91026   0.01267  Uiso   1.00
O17    O     0.83770   0.63700   0.92150   0.01267  Uiso   1.00
O18    O     0.15390   0.22870   0.25277   0.01267  Uiso   1.00
O19    O     0.04950   0.38130   0.19970   0.01267  Uiso   1.00
O20    O     0.06500   0.28500   0.03750   0.01267  Uiso   1.00
O21    O     0.16490   0.10890   0.05973   0.01267  Uiso   1.00
O22    O     0.83650   0.47010   0.07376   0.01267  Uiso   1.00
O23    O     0.72950   0.24460   0.07367   0.01267  Uiso   1.00
O24    O     0.75540   0.42480   0.23934   0.01267  Uiso   1.00
O25    O     0.75370   0.64460   0.23060   0.01267  Uiso   1.00
O26    O     0.26070   0.07340   0.36166   0.01267  Uiso   1.00
O27    O     0.20670   0.86080   0.41110   0.01267  Uiso   1.00
O28    O     0.16380   0.02460   0.53830   0.01267  Uiso   1.00
O29    O     0.28050   0.24550   0.55632   0.01267  Uiso   1.00
O30    O     0.82970   0.38820   0.56264   0.01267  Uiso   1.00
O31    O     0.94730   0.22090   0.56152   0.01267  Uiso   1.00
O32    O     0.85620   0.26450   0.36714   0.01267  Uiso   1.00
O33    O     0.94260   0.09090   0.41026   0.01267  Uiso   1.00
O34    O     0.16230   0.36300   0.42150   0.01267  Uiso   1.00
