data_image0
_cell_length_a       15.8792
_cell_length_b       15.8792
_cell_length_c       21.594
_cell_angle_alpha    90
_cell_angle_beta     90
_cell_angle_gamma    90

_symmetry_space_group_name_H-M    "P 1"
_symmetry_int_tables_number       1

loop_
  _symmetry_equiv_pos_as_xyz
  'x, y, z'

loop_
  _atom_site_label
  _atom_site_occupancy
  _atom_site_fract_x
  _atom_site_fract_y
  _atom_site_fract_z
  _atom_site_thermal_displace_type
  _atom_site_B_iso_or_equiv
  _atom_site_type_symbol
  C1       1.0000 0.59020  0.64020  0.35940  Biso   1.000  C
  H1       1.0000 0.54250  0.61000  0.34790  Biso   1.000  H
  C2       1.0000 0.61680  0.70190  0.31990  Biso   1.000  C
  H2       1.0000 0.58680  0.71440  0.28410  Biso   1.000  H
  C3       1.0000 0.69190  0.74660  0.33500  Biso   1.000  C
  C4       1.0000 0.73380  0.71860  0.38700  Biso   1.000  C
  H3       1.0000 0.78600  0.74160  0.39690  Biso   1.000  H
  C5       1.0000 0.70000  0.65770  0.42430  Biso   1.000  C
  H4       1.0000 0.72950  0.64170  0.45960  Biso   1.000  H
  C6       1.0000 0.72130  0.81870  0.29770  Biso   1.000  C
  C7       1.0000 0.69310  0.83540  0.23870  Biso   1.000  C
  H5       1.0000 0.65400  0.79950  0.22050  Biso   1.000  H
  C8       1.0000 0.72150  0.90410  0.20600  Biso   1.000  C
  H6       1.0000 0.70110  0.91380  0.16630  Biso   1.000  H
  C9       1.0000 0.77950  0.95860  0.23090  Biso   1.000  C
  H7       1.0000 0.79710  0.00610  0.20920  Biso   1.000  H
  C10      1.0000 0.81170  0.94070  0.29010  Biso   1.000  C
  C11      1.0000 0.78190  0.87190  0.32300  Biso   1.000  C
  H8       1.0000 0.80280  0.86110  0.36240  Biso   1.000  H
  C12      1.0000 0.87480  0.99620  0.32070  Biso   1.000  C
  C13      1.0000 0.92490  0.09220  0.38300  Biso   1.000  C
  C14      1.0000 0.93360  0.16170  0.42750  Biso   1.000  C
  C15      1.0000 0.00710  0.16570  0.46330  Biso   1.000  C
  H9       1.0000 0.04800  0.12400  0.46010  Biso   1.000  H
  C16      1.0000 0.01750  0.23200  0.50300  Biso   1.000  C
  H10      1.0000 0.06550  0.23480  0.52760  Biso   1.000  H
  C17      1.0000 0.95850  0.29380  0.50680  Biso   1.000  C
  H11      1.0000 0.96680  0.33800  0.53440  Biso   1.000  H
  C18      1.0000 0.88660  0.29290  0.47100  Biso   1.000  C
  C19      1.0000 0.87440  0.22690  0.43170  Biso   1.000  C
  H12      1.0000 0.82620  0.22510  0.40730  Biso   1.000  H
  C20      1.0000 0.81910  0.35790  0.47780  Biso   1.000  C
  C21      1.0000 0.80840  0.40430  0.53210  Biso   1.000  C
  H13      1.0000 0.84620  0.39780  0.56460  Biso   1.000  H
  C22      1.0000 0.74160  0.45990  0.53750  Biso   1.000  C
  H14      1.0000 0.73460  0.48850  0.57480  Biso   1.000  H
  C23      1.0000 0.69750  0.43240  0.43960  Biso   1.000  C
  H15      1.0000 0.65960  0.44120  0.40740  Biso   1.000  H
  C24      1.0000 0.76260  0.37580  0.43080  Biso   1.000  C
  H16      1.0000 0.76860  0.34940  0.39260  Biso   1.000  H
  N1       1.0000 0.62570  0.61980  0.41230  Biso   1.000  N
  N2       1.0000 0.95530  0.99420  0.31640  Biso   1.000  N
  N3       1.0000 0.98880  0.05470  0.35550  Biso   1.000  N
  N4       1.0000 0.85250  0.05690  0.36180  Biso   1.000  N
  N5       1.0000 0.77050  0.07680  0.38320  Biso   1.000  N
  H17      1.0000 0.74470  0.02820  0.39140  Biso   1.000  H
  H18      1.0000 0.74160  0.10450  0.35470  Biso   1.000  H
  N6       1.0000 0.68670  0.47460  0.49190  Biso   1.000  N
  C25      1.0000 0.40980  0.35980  0.85940  Biso   1.000  C
  H19      1.0000 0.45750  0.39000  0.84790  Biso   1.000  H
  C26      1.0000 0.38320  0.29810  0.81990  Biso   1.000  C
  H20      1.0000 0.41320  0.28560  0.78410  Biso   1.000  H
  C27      1.0000 0.30810  0.25340  0.83500  Biso   1.000  C
  C28      1.0000 0.26620  0.28140  0.88700  Biso   1.000  C
  H21      1.0000 0.21400  0.25840  0.89690  Biso   1.000  H
  C29      1.0000 0.30000  0.34230  0.92430  Biso   1.000  C
  H22      1.0000 0.27050  0.35830  0.95960  Biso   1.000  H
  C30      1.0000 0.27870  0.18130  0.79770  Biso   1.000  C
  C31      1.0000 0.30690  0.16460  0.73870  Biso   1.000  C
  H23      1.0000 0.34600  0.20050  0.72050  Biso   1.000  H
  C32      1.0000 0.27850  0.09590  0.70600  Biso   1.000  C
  H24      1.0000 0.29890  0.08620  0.66630  Biso   1.000  H
  C33      1.0000 0.22050  0.04140  0.73090  Biso   1.000  C
  H25      1.0000 0.20290  0.99390  0.70920  Biso   1.000  H
  C34      1.0000 0.18830  0.05930  0.79010  Biso   1.000  C
  C35      1.0000 0.21810  0.12810  0.82300  Biso   1.000  C
  H26      1.0000 0.19720  0.13890  0.86240  Biso   1.000  H
  C36      1.0000 0.12520  0.00380  0.82070  Biso   1.000  C
  C37      1.0000 0.07510  0.90780  0.88300  Biso   1.000  C
  C38      1.0000 0.06640  0.83830  0.92750  Biso   1.000  C
  C39      1.0000 0.99290  0.83430  0.96330  Biso   1.000  C
  H27      1.0000 0.95200  0.87600  0.96010  Biso   1.000  H
  C40      1.0000 0.98250  0.76800  0.00300  Biso   1.000  C
  H28      1.0000 0.93450  0.76520  0.02760  Biso   1.000  H
  C41      1.0000 0.04150  0.70620  0.00680  Biso   1.000  C
  H29      1.0000 0.03320  0.66200  0.03440  Biso   1.000  H
  C42      1.0000 0.11340  0.70710  0.97100  Biso   1.000  C
  C43      1.0000 0.12560  0.77310  0.93170  Biso   1.000  C
  H30      1.0000 0.17380  0.77490  0.90730  Biso   1.000  H
  C44      1.0000 0.18090  0.64210  0.97780  Biso   1.000  C
  C45      1.0000 0.19160  0.59570  0.03210  Biso   1.000  C
  H31      1.0000 0.15380  0.60220  0.06460  Biso   1.000  H
  C46      1.0000 0.25840  0.54010  0.03750  Biso   1.000  C
  H32      1.0000 0.26540  0.51150  0.07480  Biso   1.000  H
  C47      1.0000 0.30250  0.56760  0.93960  Biso   1.000  C
  H33      1.0000 0.34040  0.55880  0.90740  Biso   1.000  H
  C48      1.0000 0.23740  0.62420  0.93080  Biso   1.000  C
  H34      1.0000 0.23140  0.65060  0.89260  Biso   1.000  H
  N7       1.0000 0.37430  0.38020  0.91230  Biso   1.000  N
  N8       1.0000 0.04470  0.00580  0.81640  Biso   1.000  N
  N9       1.0000 0.01120  0.94530  0.85550  Biso   1.000  N
  N10      1.0000 0.14750  0.94310  0.86180  Biso   1.000  N
  N11      1.0000 0.22950  0.92320  0.88320  Biso   1.000  N
  H35      1.0000 0.25530  0.97180  0.89140  Biso   1.000  H
  H36      1.0000 0.25840  0.89550  0.85470  Biso   1.000  H
  N12      1.0000 0.31330  0.52540  0.99190  Biso   1.000  N
  C49      1.0000 0.85980  0.09020  0.60940  Biso   1.000  C
  H37      1.0000 0.89000  0.04250  0.59790  Biso   1.000  H
  C50      1.0000 0.79810  0.11680  0.56990  Biso   1.000  C
  H38      1.0000 0.78560  0.08680  0.53410  Biso   1.000  H
  C51      1.0000 0.75340  0.19190  0.58500  Biso   1.000  C
  C52      1.0000 0.78140  0.23380  0.63700  Biso   1.000  C
  H39      1.0000 0.75840  0.28600  0.64690  Biso   1.000  H
  C53      1.0000 0.84230  0.20000  0.67430  Biso   1.000  C
  H40      1.0000 0.85830  0.22950  0.70960  Biso   1.000  H
  C54      1.0000 0.68130  0.22130  0.54770  Biso   1.000  C
  C55      1.0000 0.66460  0.19310  0.48870  Biso   1.000  C
  H41      1.0000 0.70050  0.15400  0.47050  Biso   1.000  H
  C56      1.0000 0.59590  0.22150  0.45600  Biso   1.000  C
  H42      1.0000 0.58620  0.20110  0.41630  Biso   1.000  H
  C57      1.0000 0.54140  0.27950  0.48090  Biso   1.000  C
  H43      1.0000 0.49390  0.29710  0.45920  Biso   1.000  H
  C58      1.0000 0.55930  0.31170  0.54010  Biso   1.000  C
  C59      1.0000 0.62810  0.28190  0.57300  Biso   1.000  C
  H44      1.0000 0.63890  0.30280  0.61240  Biso   1.000  H
  C60      1.0000 0.50380  0.37480  0.57070  Biso   1.000  C
  C61      1.0000 0.40780  0.42490  0.63300  Biso   1.000  C
  C62      1.0000 0.33830  0.43360  0.67750  Biso   1.000  C
  C63      1.0000 0.33430  0.50710  0.71330  Biso   1.000  C
  H45      1.0000 0.37600  0.54800  0.71010  Biso   1.000  H
  C64      1.0000 0.26800  0.51750  0.75300  Biso   1.000  C
  H46      1.0000 0.26520  0.56550  0.77760  Biso   1.000  H
  C65      1.0000 0.20620  0.45850  0.75680  Biso   1.000  C
  H47      1.0000 0.16200  0.46680  0.78440  Biso   1.000  H
  C66      1.0000 0.20710  0.38660  0.72100  Biso   1.000  C
  C67      1.0000 0.27310  0.37440  0.68170  Biso   1.000  C
  H48      1.0000 0.27490  0.32620  0.65730  Biso   1.000  H
  C68      1.0000 0.14210  0.31910  0.72780  Biso   1.000  C
  C69      1.0000 0.09570  0.30840  0.78210  Biso   1.000  C
  H49      1.0000 0.10220  0.34620  0.81460  Biso   1.000  H
  C70      1.0000 0.04010  0.24160  0.78750  Biso   1.000  C
  H50      1.0000 0.01150  0.23460  0.82480  Biso   1.000  H
  C71      1.0000 0.06760  0.19750  0.68960  Biso   1.000  C
  H51      1.0000 0.05880  0.15960  0.65740  Biso   1.000  H
  C72      1.0000 0.12420  0.26260  0.68080  Biso   1.000  C
  H52      1.0000 0.15060  0.26860  0.64260  Biso   1.000  H
  N13      1.0000 0.88020  0.12570  0.66230  Biso   1.000  N
  N14      1.0000 0.50580  0.45530  0.56640  Biso   1.000  N
  N15      1.0000 0.44530  0.48880  0.60550  Biso   1.000  N
  N16      1.0000 0.44310  0.35250  0.61180  Biso   1.000  N
  N17      1.0000 0.42320  0.27050  0.63320  Biso   1.000  N
  H53      1.0000 0.47180  0.24470  0.64140  Biso   1.000  H
  H54      1.0000 0.39550  0.24160  0.60470  Biso   1.000  H
  N18      1.0000 0.02540  0.18670  0.74190  Biso   1.000  N
  C73      1.0000 0.14020  0.90980  0.10940  Biso   1.000  C
  H55      1.0000 0.11000  0.95750  0.09790  Biso   1.000  H
  C74      1.0000 0.20190  0.88320  0.06990  Biso   1.000  C
  H56      1.0000 0.21440  0.91320  0.03410  Biso   1.000  H
  C75      1.0000 0.24660  0.80810  0.08500  Biso   1.000  C
  C76      1.0000 0.21860  0.76620  0.13700  Biso   1.000  C
  H57      1.0000 0.24160  0.71400  0.14690  Biso   1.000  H
  C77      1.0000 0.15770  0.80000  0.17430  Biso   1.000  C
  H58      1.0000 0.14170  0.77050  0.20960  Biso   1.000  H
  C78      1.0000 0.31870  0.77870  0.04770  Biso   1.000  C
  C79      1.0000 0.33540  0.80690  0.98870  Biso   1.000  C
  H59      1.0000 0.29950  0.84600  0.97050  Biso   1.000  H
  C80      1.0000 0.40410  0.77850  0.95600  Biso   1.000  C
  H60      1.0000 0.41380  0.79890  0.91630  Biso   1.000  H
  C81      1.0000 0.45860  0.72050  0.98090  Biso   1.000  C
  H61      1.0000 0.50610  0.70290  0.95920  Biso   1.000  H
  C82      1.0000 0.44070  0.68830  0.04010  Biso   1.000  C
  C83      1.0000 0.37190  0.71810  0.07300  Biso   1.000  C
  H62      1.0000 0.36110  0.69720  0.11240  Biso   1.000  H
  C84      1.0000 0.49620  0.62520  0.07070  Biso   1.000  C
  C85      1.0000 0.59220  0.57510  0.13300  Biso   1.000  C
  C86      1.0000 0.66170  0.56640  0.17750  Biso   1.000  C
  C87      1.0000 0.66570  0.49290  0.21330  Biso   1.000  C
  H63      1.0000 0.62400  0.45200  0.21010  Biso   1.000  H
  C88      1.0000 0.73200  0.48250  0.25300  Biso   1.000  C
  H64      1.0000 0.73480  0.43450  0.27760  Biso   1.000  H
  C89      1.0000 0.79380  0.54150  0.25680  Biso   1.000  C
  H65      1.0000 0.83800  0.53320  0.28440  Biso   1.000  H
  C90      1.0000 0.79290  0.61340  0.22100  Biso   1.000  C
  C91      1.0000 0.72690  0.62560  0.18170  Biso   1.000  C
  H66      1.0000 0.72510  0.67380  0.15730  Biso   1.000  H
  C92      1.0000 0.85790  0.68090  0.22780  Biso   1.000  C
  C93      1.0000 0.90430  0.69160  0.28210  Biso   1.000  C
  H67      1.0000 0.89780  0.65380  0.31460  Biso   1.000  H
  C94      1.0000 0.95990  0.75840  0.28750  Biso   1.000  C
  H68      1.0000 0.98850  0.76540  0.32480  Biso   1.000  H
  C95      1.0000 0.93240  0.80250  0.18960  Biso   1.000  C
  H69      1.0000 0.94120  0.84040  0.15740  Biso   1.000  H
  C96      1.0000 0.87580  0.73740  0.18080  Biso   1.000  C
  H70      1.0000 0.84940  0.73140  0.14260  Biso   1.000  H
  N19      1.0000 0.11980  0.87430  0.16230  Biso   1.000  N
  N20      1.0000 0.49420  0.54470  0.06640  Biso   1.000  N
  N21      1.0000 0.55470  0.51120  0.10550  Biso   1.000  N
  N22      1.0000 0.55690  0.64750  0.11180  Biso   1.000  N
  N23      1.0000 0.57680  0.72950  0.13320  Biso   1.000  N
  H71      1.0000 0.52820  0.75530  0.14140  Biso   1.000  H
  H72      1.0000 0.60450  0.75840  0.10470  Biso   1.000  H
  N24      1.0000 0.97460  0.81330  0.24190  Biso   1.000  N
  C97      1.0000 0.90980  0.14020  0.89060  Biso   1.000  C
  H73      1.0000 0.95750  0.11000  0.90210  Biso   1.000  H
  C98      1.0000 0.88320  0.20190  0.93010  Biso   1.000  C
  H74      1.0000 0.91320  0.21440  0.96590  Biso   1.000  H
  C99      1.0000 0.80810  0.24660  0.91500  Biso   1.000  C
  C100     1.0000 0.76620  0.21860  0.86300  Biso   1.000  C
  H75      1.0000 0.71400  0.24160  0.85310  Biso   1.000  H
  C101     1.0000 0.80000  0.15770  0.82570  Biso   1.000  C
  H76      1.0000 0.77050  0.14170  0.79040  Biso   1.000  H
  C102     1.0000 0.77870  0.31870  0.95230  Biso   1.000  C
  C103     1.0000 0.80690  0.33540  0.01130  Biso   1.000  C
  H77      1.0000 0.84600  0.29950  0.02950  Biso   1.000  H
  C104     1.0000 0.77850  0.40410  0.04400  Biso   1.000  C
  H78      1.0000 0.79890  0.41380  0.08370  Biso   1.000  H
  C105     1.0000 0.72050  0.45860  0.01910  Biso   1.000  C
  H79      1.0000 0.70290  0.50610  0.04080  Biso   1.000  H
  C106     1.0000 0.68830  0.44070  0.95990  Biso   1.000  C
  C107     1.0000 0.71810  0.37190  0.92700  Biso   1.000  C
  H80      1.0000 0.69720  0.36110  0.88760  Biso   1.000  H
  C108     1.0000 0.62520  0.49620  0.92930  Biso   1.000  C
  C109     1.0000 0.57510  0.59220  0.86700  Biso   1.000  C
  C110     1.0000 0.56640  0.66170  0.82250  Biso   1.000  C
  C111     1.0000 0.49290  0.66570  0.78670  Biso   1.000  C
  H81      1.0000 0.45200  0.62400  0.78990  Biso   1.000  H
  C112     1.0000 0.48250  0.73200  0.74700  Biso   1.000  C
  H82      1.0000 0.43450  0.73480  0.72240  Biso   1.000  H
  C113     1.0000 0.54150  0.79380  0.74320  Biso   1.000  C
  H83      1.0000 0.53320  0.83800  0.71560  Biso   1.000  H
  C114     1.0000 0.61340  0.79290  0.77900  Biso   1.000  C
  C115     1.0000 0.62560  0.72690  0.81830  Biso   1.000  C
  H84      1.0000 0.67380  0.72510  0.84270  Biso   1.000  H
  C116     1.0000 0.68090  0.85790  0.77220  Biso   1.000  C
  C117     1.0000 0.69160  0.90430  0.71790  Biso   1.000  C
  H85      1.0000 0.65380  0.89780  0.68540  Biso   1.000  H
  C118     1.0000 0.75840  0.95990  0.71250  Biso   1.000  C
  H86      1.0000 0.76540  0.98850  0.67520  Biso   1.000  H
  C119     1.0000 0.80250  0.93240  0.81040  Biso   1.000  C
  H87      1.0000 0.84040  0.94120  0.84260  Biso   1.000  H
  C120     1.0000 0.73740  0.87580  0.81920  Biso   1.000  C
  H88      1.0000 0.73140  0.84940  0.85740  Biso   1.000  H
  N25      1.0000 0.87430  0.11980  0.83770  Biso   1.000  N
  N26      1.0000 0.54470  0.49420  0.93360  Biso   1.000  N
  N27      1.0000 0.51120  0.55470  0.89450  Biso   1.000  N
  N28      1.0000 0.64750  0.55690  0.88820  Biso   1.000  N
  N29      1.0000 0.72950  0.57680  0.86680  Biso   1.000  N
  H89      1.0000 0.75530  0.52820  0.85860  Biso   1.000  H
  H90      1.0000 0.75840  0.60450  0.89530  Biso   1.000  H
  N30      1.0000 0.81330  0.97460  0.75810  Biso   1.000  N
  C121     1.0000 0.09020  0.85980  0.39060  Biso   1.000  C
  H91      1.0000 0.04250  0.89000  0.40210  Biso   1.000  H
  C122     1.0000 0.11680  0.79810  0.43010  Biso   1.000  C
  H92      1.0000 0.08680  0.78560  0.46590  Biso   1.000  H
  C123     1.0000 0.19190  0.75340  0.41500  Biso   1.000  C
  C124     1.0000 0.23380  0.78140  0.36300  Biso   1.000  C
  H93      1.0000 0.28600  0.75840  0.35310  Biso   1.000  H
  C125     1.0000 0.20000  0.84230  0.32570  Biso   1.000  C
  H94      1.0000 0.22950  0.85830  0.29040  Biso   1.000  H
  C126     1.0000 0.22130  0.68130  0.45230  Biso   1.000  C
  C127     1.0000 0.19310  0.66460  0.51130  Biso   1.000  C
  H95      1.0000 0.15400  0.70050  0.52950  Biso   1.000  H
  C128     1.0000 0.22150  0.59590  0.54400  Biso   1.000  C
  H96      1.0000 0.20110  0.58620  0.58370  Biso   1.000  H
  C129     1.0000 0.27950  0.54140  0.51910  Biso   1.000  C
  H97      1.0000 0.29710  0.49390  0.54080  Biso   1.000  H
  C130     1.0000 0.31170  0.55930  0.45990  Biso   1.000  C
  C131     1.0000 0.28190  0.62810  0.42700  Biso   1.000  C
  H98      1.0000 0.30280  0.63890  0.38760  Biso   1.000  H
  C132     1.0000 0.37480  0.50380  0.42930  Biso   1.000  C
  C133     1.0000 0.42490  0.40780  0.36700  Biso   1.000  C
  C134     1.0000 0.43360  0.33830  0.32250  Biso   1.000  C
  C135     1.0000 0.50710  0.33430  0.28670  Biso   1.000  C
  H99      1.0000 0.54800  0.37600  0.28990  Biso   1.000  H
  C136     1.0000 0.51750  0.26800  0.24700  Biso   1.000  C
  H100     1.0000 0.56550  0.26520  0.22240  Biso   1.000  H
  C137     1.0000 0.45850  0.20620  0.24320  Biso   1.000  C
  H101     1.0000 0.46680  0.16200  0.21560  Biso   1.000  H
  C138     1.0000 0.38660  0.20710  0.27900  Biso   1.000  C
  C139     1.0000 0.37440  0.27310  0.31830  Biso   1.000  C
  H102     1.0000 0.32620  0.27490  0.34270  Biso   1.000  H
  C140     1.0000 0.31910  0.14210  0.27220  Biso   1.000  C
  C141     1.0000 0.30840  0.09570  0.21790  Biso   1.000  C
  H103     1.0000 0.34620  0.10220  0.18540  Biso   1.000  H
  C142     1.0000 0.24160  0.04010  0.21250  Biso   1.000  C
  H104     1.0000 0.23460  0.01150  0.17520  Biso   1.000  H
  C143     1.0000 0.19750  0.06760  0.31040  Biso   1.000  C
  H105     1.0000 0.15960  0.05880  0.34260  Biso   1.000  H
  C144     1.0000 0.26260  0.12420  0.31920  Biso   1.000  C
  H106     1.0000 0.26860  0.15060  0.35740  Biso   1.000  H
  N31      1.0000 0.12570  0.88020  0.33770  Biso   1.000  N
  N32      1.0000 0.45530  0.50580  0.43360  Biso   1.000  N
  N33      1.0000 0.48880  0.44530  0.39450  Biso   1.000  N
  N34      1.0000 0.35250  0.44310  0.38820  Biso   1.000  N
  N35      1.0000 0.27050  0.42320  0.36680  Biso   1.000  N
  H107     1.0000 0.24470  0.47180  0.35860  Biso   1.000  H
  H108     1.0000 0.24160  0.39550  0.39530  Biso   1.000  H
  N36      1.0000 0.18670  0.02540  0.25810  Biso   1.000  N
  C145     1.0000 0.64020  0.59020  0.64060  Biso   1.000  C
  H109     1.0000 0.61000  0.54250  0.65210  Biso   1.000  H
  C146     1.0000 0.70190  0.61680  0.68010  Biso   1.000  C
  H110     1.0000 0.71440  0.58680  0.71590  Biso   1.000  H
  C147     1.0000 0.74660  0.69190  0.66500  Biso   1.000  C
  C148     1.0000 0.71860  0.73380  0.61300  Biso   1.000  C
  H111     1.0000 0.74160  0.78600  0.60310  Biso   1.000  H
  C149     1.0000 0.65770  0.70000  0.57570  Biso   1.000  C
  H112     1.0000 0.64170  0.72950  0.54040  Biso   1.000  H
  C150     1.0000 0.81870  0.72130  0.70230  Biso   1.000  C
  C151     1.0000 0.83540  0.69310  0.76130  Biso   1.000  C
  H113     1.0000 0.79950  0.65400  0.77950  Biso   1.000  H
  C152     1.0000 0.90410  0.72150  0.79400  Biso   1.000  C
  H114     1.0000 0.91380  0.70110  0.83370  Biso   1.000  H
  C153     1.0000 0.95860  0.77950  0.76910  Biso   1.000  C
  H115     1.0000 0.00610  0.79710  0.79080  Biso   1.000  H
  C154     1.0000 0.94070  0.81170  0.70990  Biso   1.000  C
  C155     1.0000 0.87190  0.78190  0.67700  Biso   1.000  C
  H116     1.0000 0.86110  0.80280  0.63760  Biso   1.000  H
  C156     1.0000 0.99620  0.87480  0.67930  Biso   1.000  C
  C157     1.0000 0.09220  0.92490  0.61700  Biso   1.000  C
  C158     1.0000 0.16170  0.93360  0.57250  Biso   1.000  C
  C159     1.0000 0.16570  0.00710  0.53670  Biso   1.000  C
  H117     1.0000 0.12400  0.04800  0.53990  Biso   1.000  H
  C160     1.0000 0.23200  0.01750  0.49700  Biso   1.000  C
  H118     1.0000 0.23480  0.06550  0.47240  Biso   1.000  H
  C161     1.0000 0.29380  0.95850  0.49320  Biso   1.000  C
  H119     1.0000 0.33800  0.96680  0.46560  Biso   1.000  H
  C162     1.0000 0.29290  0.88660  0.52900  Biso   1.000  C
  C163     1.0000 0.22690  0.87440  0.56830  Biso   1.000  C
  H120     1.0000 0.22510  0.82620  0.59270  Biso   1.000  H
  C164     1.0000 0.35790  0.81910  0.52220  Biso   1.000  C
  C165     1.0000 0.40430  0.80840  0.46790  Biso   1.000  C
  H121     1.0000 0.39780  0.84620  0.43540  Biso   1.000  H
  C166     1.0000 0.45990  0.74160  0.46250  Biso   1.000  C
  H122     1.0000 0.48850  0.73460  0.42520  Biso   1.000  H
  C167     1.0000 0.43240  0.69750  0.56040  Biso   1.000  C
  H123     1.0000 0.44120  0.65960  0.59260  Biso   1.000  H
  C168     1.0000 0.37580  0.76260  0.56920  Biso   1.000  C
  H124     1.0000 0.34940  0.76860  0.60740  Biso   1.000  H
  N37      1.0000 0.61980  0.62570  0.58770  Biso   1.000  N
  N38      1.0000 0.99420  0.95530  0.68360  Biso   1.000  N
  N39      1.0000 0.05470  0.98880  0.64450  Biso   1.000  N
  N40      1.0000 0.05690  0.85250  0.63820  Biso   1.000  N
  N41      1.0000 0.07680  0.77050  0.61680  Biso   1.000  N
  H125     1.0000 0.02820  0.74470  0.60860  Biso   1.000  H
  H126     1.0000 0.10450  0.74160  0.64530  Biso   1.000  H
  N42      1.0000 0.47460  0.68670  0.50810  Biso   1.000  N
  C169     1.0000 0.35980  0.40980  0.14060  Biso   1.000  C
  H127     1.0000 0.39000  0.45750  0.15210  Biso   1.000  H
  C170     1.0000 0.29810  0.38320  0.18010  Biso   1.000  C
  H128     1.0000 0.28560  0.41320  0.21590  Biso   1.000  H
  C171     1.0000 0.25340  0.30810  0.16500  Biso   1.000  C
  C172     1.0000 0.28140  0.26620  0.11300  Biso   1.000  C
  H129     1.0000 0.25840  0.21400  0.10310  Biso   1.000  H
  C173     1.0000 0.34230  0.30000  0.07570  Biso   1.000  C
  H130     1.0000 0.35830  0.27050  0.04040  Biso   1.000  H
  C174     1.0000 0.18130  0.27870  0.20230  Biso   1.000  C
  C175     1.0000 0.16460  0.30690  0.26130  Biso   1.000  C
  H131     1.0000 0.20050  0.34600  0.27950  Biso   1.000  H
  C176     1.0000 0.09590  0.27850  0.29400  Biso   1.000  C
  H132     1.0000 0.08620  0.29890  0.33370  Biso   1.000  H
  C177     1.0000 0.04140  0.22050  0.26910  Biso   1.000  C
  H133     1.0000 0.99390  0.20290  0.29080  Biso   1.000  H
  C178     1.0000 0.05930  0.18830  0.20990  Biso   1.000  C
  C179     1.0000 0.12810  0.21810  0.17700  Biso   1.000  C
  H134     1.0000 0.13890  0.19720  0.13760  Biso   1.000  H
  C180     1.0000 0.00380  0.12520  0.17930  Biso   1.000  C
  C181     1.0000 0.90780  0.07510  0.11700  Biso   1.000  C
  C182     1.0000 0.83830  0.06640  0.07250  Biso   1.000  C
  C183     1.0000 0.83430  0.99290  0.03670  Biso   1.000  C
  H135     1.0000 0.87600  0.95200  0.03990  Biso   1.000  H
  C184     1.0000 0.76800  0.98250  0.99700  Biso   1.000  C
  H136     1.0000 0.76520  0.93450  0.97240  Biso   1.000  H
  C185     1.0000 0.70620  0.04150  0.99320  Biso   1.000  C
  H137     1.0000 0.66200  0.03320  0.96560  Biso   1.000  H
  C186     1.0000 0.70710  0.11340  0.02900  Biso   1.000  C
  C187     1.0000 0.77310  0.12560  0.06830  Biso   1.000  C
  H138     1.0000 0.77490  0.17380  0.09270  Biso   1.000  H
  C188     1.0000 0.64210  0.18090  0.02220  Biso   1.000  C
  C189     1.0000 0.59570  0.19160  0.96790  Biso   1.000  C
  H139     1.0000 0.60220  0.15380  0.93540  Biso   1.000  H
  C190     1.0000 0.54010  0.25840  0.96250  Biso   1.000  C
  H140     1.0000 0.51150  0.26540  0.92520  Biso   1.000  H
  C191     1.0000 0.56760  0.30250  0.06040  Biso   1.000  C
  H141     1.0000 0.55880  0.34040  0.09260  Biso   1.000  H
  C192     1.0000 0.62420  0.23740  0.06920  Biso   1.000  C
  H142     1.0000 0.65060  0.23140  0.10740  Biso   1.000  H
  N43      1.0000 0.38020  0.37430  0.08770  Biso   1.000  N
  N44      1.0000 0.00580  0.04470  0.18360  Biso   1.000  N
  N45      1.0000 0.94530  0.01120  0.14450  Biso   1.000  N
  N46      1.0000 0.94310  0.14750  0.13820  Biso   1.000  N
  N47      1.0000 0.92320  0.22950  0.11680  Biso   1.000  N
  H143     1.0000 0.97180  0.25530  0.10860  Biso   1.000  H
  H144     1.0000 0.89550  0.25840  0.14530  Biso   1.000  H
  N48      1.0000 0.52540  0.31330  0.00810  Biso   1.000  N
  Cd1      1.0000 0.05839  0.94161  0.25000  Biso   1.000  Cd
  Cd2      1.0000 0.94161  0.05839  0.75000  Biso   1.000  Cd
  Cd3      1.0000 0.55839  0.55839  0.50000  Biso   1.000  Cd
  Cd4      1.0000 0.44161  0.44161  0.00000  Biso   1.000  Cd
