data_image0
_cell_length_a       15.8635
_cell_length_b       15.8635
_cell_length_c       21.463
_cell_angle_alpha    90
_cell_angle_beta     90
_cell_angle_gamma    90

_symmetry_space_group_name_H-M    "P 1"
_symmetry_int_tables_number       1

loop_
  _symmetry_equiv_pos_as_xyz
  'x, y, z'

loop_
  _atom_site_label
  _atom_site_occupancy
  _atom_site_fract_x
  _atom_site_fract_y
  _atom_site_fract_z
  _atom_site_thermal_displace_type
  _atom_site_B_iso_or_equiv
  _atom_site_type_symbol
  C1       1.0000 0.64070  0.58900  0.64090  Biso   1.000  C
  H1       1.0000 0.61160  0.53880  0.65200  Biso   1.000  H
  C2       1.0000 0.70210  0.61820  0.68090  Biso   1.000  C
  H2       1.0000 0.71480  0.58810  0.71800  Biso   1.000  H
  C3       1.0000 0.74570  0.69210  0.66650  Biso   1.000  C
  C4       1.0000 0.71730  0.73540  0.61380  Biso   1.000  C
  H3       1.0000 0.74040  0.78910  0.60410  Biso   1.000  H
  C5       1.0000 0.65670  0.70140  0.57620  Biso   1.000  C
  H4       1.0000 0.64000  0.73200  0.54020  Biso   1.000  H
  C6       1.0000 0.81830  0.72250  0.70370  Biso   1.000  C
  C7       1.0000 0.83560  0.69240  0.76290  Biso   1.000  C
  H5       1.0000 0.79940  0.65160  0.78120  Biso   1.000  H
  C8       1.0000 0.90450  0.72090  0.79560  Biso   1.000  C
  H6       1.0000 0.91550  0.69940  0.83620  Biso   1.000  H
  C9       1.0000 0.95910  0.78160  0.76960  Biso   1.000  C
  H7       1.0000 0.00710  0.80090  0.79190  Biso   1.000  H
  C10      1.0000 0.94090  0.81240  0.71060  Biso   1.000  C
  C11      1.0000 0.87190  0.78370  0.67830  Biso   1.000  C
  H8       1.0000 0.86020  0.80580  0.63800  Biso   1.000  H
  C12      1.0000 0.99620  0.87470  0.68000  Biso   1.000  C
  C13      1.0000 0.09270  0.92590  0.61730  Biso   1.000  C
  C14      1.0000 0.16240  0.93450  0.57310  Biso   1.000  C
  C15      1.0000 0.16590  0.00650  0.53670  Biso   1.000  C
  H9       1.0000 0.12240  0.04750  0.53930  Biso   1.000  H
  C16      1.0000 0.23240  0.01830  0.49710  Biso   1.000  C
  H10      1.0000 0.23540  0.06840  0.47300  Biso   1.000  H
  C17      1.0000 0.29470  0.95880  0.49160  Biso   1.000  C
  H11      1.0000 0.33900  0.96690  0.46240  Biso   1.000  H
  C18      1.0000 0.29320  0.88660  0.52860  Biso   1.000  C
  C19      1.0000 0.22620  0.87510  0.56860  Biso   1.000  C
  H12      1.0000 0.22360  0.82560  0.59340  Biso   1.000  H
  C20      1.0000 0.35940  0.81950  0.52190  Biso   1.000  C
  C21      1.0000 0.40680  0.81160  0.46780  Biso   1.000  C
  H13      1.0000 0.40080  0.85120  0.43500  Biso   1.000  H
  C22      1.0000 0.46300  0.74500  0.46240  Biso   1.000  C
  H14      1.0000 0.49430  0.73990  0.42480  Biso   1.000  H
  C23      1.0000 0.43140  0.69770  0.55940  Biso   1.000  C
  H15      1.0000 0.43930  0.65800  0.59210  Biso   1.000  H
  C24      1.0000 0.37460  0.76270  0.56870  Biso   1.000  C
  H16      1.0000 0.34610  0.76790  0.60740  Biso   1.000  H
  N1       1.0000 0.61940  0.62670  0.58770  Biso   1.000  N
  N2       1.0000 0.99360  0.95650  0.68310  Biso   1.000  N
  N3       1.0000 0.05440  0.98950  0.64410  Biso   1.000  N
  N4       1.0000 0.05740  0.85280  0.63884  Biso   1.000  N
  N5       1.0000 0.07630  0.77040  0.61780  Biso   1.000  N
  H17      1.0000 0.10220  0.74140  0.64890  Biso   1.000  H
  H18      1.0000 0.02760  0.74380  0.60720  Biso   1.000  H
  N6       1.0000 0.47570  0.68770  0.50700  Biso   1.000  N
  C25      1.0000 0.35930  0.41100  0.14090  Biso   1.000  C
  H19      1.0000 0.38840  0.46120  0.15200  Biso   1.000  H
  C26      1.0000 0.29790  0.38180  0.18090  Biso   1.000  C
  H20      1.0000 0.28520  0.41190  0.21800  Biso   1.000  H
  C27      1.0000 0.25430  0.30790  0.16650  Biso   1.000  C
  C28      1.0000 0.28270  0.26460  0.11380  Biso   1.000  C
  H21      1.0000 0.25960  0.21090  0.10410  Biso   1.000  H
  C29      1.0000 0.34330  0.29860  0.07620  Biso   1.000  C
  H22      1.0000 0.36000  0.26800  0.04020  Biso   1.000  H
  C30      1.0000 0.18170  0.27750  0.20370  Biso   1.000  C
  C31      1.0000 0.16440  0.30760  0.26290  Biso   1.000  C
  H23      1.0000 0.20060  0.34840  0.28120  Biso   1.000  H
  C32      1.0000 0.09550  0.27910  0.29560  Biso   1.000  C
  H24      1.0000 0.08450  0.30060  0.33620  Biso   1.000  H
  C33      1.0000 0.04090  0.21840  0.26960  Biso   1.000  C
  H25      1.0000 0.99290  0.19910  0.29190  Biso   1.000  H
  C34      1.0000 0.05910  0.18760  0.21060  Biso   1.000  C
  C35      1.0000 0.12810  0.21630  0.17830  Biso   1.000  C
  H26      1.0000 0.13980  0.19420  0.13800  Biso   1.000  H
  C36      1.0000 0.00380  0.12530  0.18000  Biso   1.000  C
  C37      1.0000 0.90730  0.07410  0.11730  Biso   1.000  C
  C38      1.0000 0.83760  0.06550  0.07310  Biso   1.000  C
  C39      1.0000 0.83410  0.99350  0.03670  Biso   1.000  C
  H27      1.0000 0.87760  0.95250  0.03930  Biso   1.000  H
  C40      1.0000 0.76760  0.98170  0.99710  Biso   1.000  C
  H28      1.0000 0.76460  0.93160  0.97300  Biso   1.000  H
  C41      1.0000 0.70530  0.04120  0.99160  Biso   1.000  C
  H29      1.0000 0.66100  0.03310  0.96240  Biso   1.000  H
  C42      1.0000 0.70680  0.11340  0.02860  Biso   1.000  C
  C43      1.0000 0.77380  0.12490  0.06860  Biso   1.000  C
  H30      1.0000 0.77640  0.17440  0.09340  Biso   1.000  H
  C44      1.0000 0.64060  0.18050  0.02190  Biso   1.000  C
  C45      1.0000 0.59320  0.18840  0.96780  Biso   1.000  C
  H31      1.0000 0.59920  0.14880  0.93500  Biso   1.000  H
  C46      1.0000 0.53700  0.25500  0.96240  Biso   1.000  C
  H32      1.0000 0.50570  0.26010  0.92480  Biso   1.000  H
  C47      1.0000 0.56860  0.30230  0.05940  Biso   1.000  C
  H33      1.0000 0.56070  0.34200  0.09210  Biso   1.000  H
  C48      1.0000 0.62540  0.23730  0.06870  Biso   1.000  C
  H34      1.0000 0.65390  0.23210  0.10740  Biso   1.000  H
  N7       1.0000 0.38060  0.37330  0.08770  Biso   1.000  N
  N8       1.0000 0.00640  0.04350  0.18310  Biso   1.000  N
  N9       1.0000 0.94560  0.01050  0.14410  Biso   1.000  N
  N10      1.0000 0.94260  0.14720  0.13884  Biso   1.000  N
  N11      1.0000 0.92370  0.22960  0.11780  Biso   1.000  N
  H35      1.0000 0.89780  0.25860  0.14890  Biso   1.000  H
  H36      1.0000 0.97240  0.25620  0.10720  Biso   1.000  H
  N12      1.0000 0.52430  0.31230  0.00700  Biso   1.000  N
  C49      1.0000 0.91100  0.14070  0.89090  Biso   1.000  C
  H37      1.0000 0.96120  0.11160  0.90200  Biso   1.000  H
  C50      1.0000 0.88180  0.20210  0.93090  Biso   1.000  C
  H38      1.0000 0.91190  0.21480  0.96800  Biso   1.000  H
  C51      1.0000 0.80790  0.24570  0.91650  Biso   1.000  C
  C52      1.0000 0.76460  0.21730  0.86380  Biso   1.000  C
  H39      1.0000 0.71090  0.24040  0.85410  Biso   1.000  H
  C53      1.0000 0.79860  0.15670  0.82620  Biso   1.000  C
  H40      1.0000 0.76800  0.14000  0.79020  Biso   1.000  H
  C54      1.0000 0.77750  0.31830  0.95370  Biso   1.000  C
  C55      1.0000 0.80760  0.33560  0.01290  Biso   1.000  C
  H41      1.0000 0.84840  0.29940  0.03120  Biso   1.000  H
  C56      1.0000 0.77910  0.40450  0.04560  Biso   1.000  C
  H42      1.0000 0.80060  0.41550  0.08620  Biso   1.000  H
  C57      1.0000 0.71840  0.45910  0.01960  Biso   1.000  C
  H43      1.0000 0.69910  0.50710  0.04190  Biso   1.000  H
  C58      1.0000 0.68760  0.44090  0.96060  Biso   1.000  C
  C59      1.0000 0.71630  0.37190  0.92830  Biso   1.000  C
  H44      1.0000 0.69420  0.36020  0.88800  Biso   1.000  H
  C60      1.0000 0.62530  0.49620  0.93000  Biso   1.000  C
  C61      1.0000 0.57410  0.59270  0.86730  Biso   1.000  C
  C62      1.0000 0.56550  0.66240  0.82310  Biso   1.000  C
  C63      1.0000 0.49350  0.66590  0.78670  Biso   1.000  C
  H45      1.0000 0.45250  0.62240  0.78930  Biso   1.000  H
  C64      1.0000 0.48170  0.73240  0.74710  Biso   1.000  C
  H46      1.0000 0.43160  0.73540  0.72300  Biso   1.000  H
  C65      1.0000 0.54120  0.79470  0.74160  Biso   1.000  C
  H47      1.0000 0.53310  0.83900  0.71240  Biso   1.000  H
  C66      1.0000 0.61340  0.79320  0.77860  Biso   1.000  C
  C67      1.0000 0.62490  0.72620  0.81860  Biso   1.000  C
  H48      1.0000 0.67440  0.72360  0.84340  Biso   1.000  H
  C68      1.0000 0.68050  0.85940  0.77190  Biso   1.000  C
  C69      1.0000 0.68840  0.90680  0.71780  Biso   1.000  C
  H49      1.0000 0.64880  0.90080  0.68500  Biso   1.000  H
  C70      1.0000 0.75500  0.96300  0.71240  Biso   1.000  C
  H50      1.0000 0.76010  0.99430  0.67480  Biso   1.000  H
  C71      1.0000 0.80230  0.93140  0.80940  Biso   1.000  C
  H51      1.0000 0.84200  0.93930  0.84210  Biso   1.000  H
  C72      1.0000 0.73730  0.87460  0.81870  Biso   1.000  C
  H52      1.0000 0.73210  0.84610  0.85740  Biso   1.000  H
  N13      1.0000 0.87330  0.11940  0.83770  Biso   1.000  N
  N14      1.0000 0.54350  0.49360  0.93310  Biso   1.000  N
  N15      1.0000 0.51050  0.55440  0.89410  Biso   1.000  N
  N16      1.0000 0.64720  0.55740  0.88884  Biso   1.000  N
  N17      1.0000 0.72960  0.57630  0.86780  Biso   1.000  N
  H53      1.0000 0.75860  0.60220  0.89890  Biso   1.000  H
  H54      1.0000 0.75620  0.52760  0.85720  Biso   1.000  H
  N18      1.0000 0.81230  0.97570  0.75700  Biso   1.000  N
  C73      1.0000 0.08900  0.85930  0.39090  Biso   1.000  C
  H55      1.0000 0.03880  0.88840  0.40200  Biso   1.000  H
  C74      1.0000 0.11820  0.79790  0.43090  Biso   1.000  C
  H56      1.0000 0.08810  0.78520  0.46800  Biso   1.000  H
  C75      1.0000 0.19210  0.75430  0.41650  Biso   1.000  C
  C76      1.0000 0.23540  0.78270  0.36380  Biso   1.000  C
  H57      1.0000 0.28910  0.75960  0.35410  Biso   1.000  H
  C77      1.0000 0.20140  0.84330  0.32620  Biso   1.000  C
  H58      1.0000 0.23200  0.86000  0.29020  Biso   1.000  H
  C78      1.0000 0.22250  0.68170  0.45370  Biso   1.000  C
  C79      1.0000 0.19240  0.66440  0.51290  Biso   1.000  C
  H59      1.0000 0.15160  0.70060  0.53120  Biso   1.000  H
  C80      1.0000 0.22090  0.59550  0.54560  Biso   1.000  C
  H60      1.0000 0.19940  0.58450  0.58620  Biso   1.000  H
  C81      1.0000 0.28160  0.54090  0.51960  Biso   1.000  C
  H61      1.0000 0.30090  0.49290  0.54190  Biso   1.000  H
  C82      1.0000 0.31240  0.55910  0.46060  Biso   1.000  C
  C83      1.0000 0.28370  0.62810  0.42830  Biso   1.000  C
  H62      1.0000 0.30580  0.63980  0.38800  Biso   1.000  H
  C84      1.0000 0.37470  0.50380  0.43000  Biso   1.000  C
  C85      1.0000 0.42590  0.40730  0.36730  Biso   1.000  C
  C86      1.0000 0.43450  0.33760  0.32310  Biso   1.000  C
  C87      1.0000 0.50650  0.33410  0.28670  Biso   1.000  C
  H63      1.0000 0.54750  0.37760  0.28930  Biso   1.000  H
  C88      1.0000 0.51830  0.26760  0.24710  Biso   1.000  C
  H64      1.0000 0.56840  0.26460  0.22300  Biso   1.000  H
  C89      1.0000 0.45880  0.20530  0.24160  Biso   1.000  C
  H65      1.0000 0.46690  0.16100  0.21240  Biso   1.000  H
  C90      1.0000 0.38660  0.20680  0.27860  Biso   1.000  C
  C91      1.0000 0.37510  0.27380  0.31860  Biso   1.000  C
  H66      1.0000 0.32560  0.27640  0.34340  Biso   1.000  H
  C92      1.0000 0.31950  0.14060  0.27190  Biso   1.000  C
  C93      1.0000 0.31160  0.09320  0.21780  Biso   1.000  C
  H67      1.0000 0.35120  0.09920  0.18500  Biso   1.000  H
  C94      1.0000 0.24500  0.03700  0.21240  Biso   1.000  C
  H68      1.0000 0.23990  0.00570  0.17480  Biso   1.000  H
  C95      1.0000 0.19770  0.06860  0.30940  Biso   1.000  C
  H69      1.0000 0.15800  0.06070  0.34210  Biso   1.000  H
  C96      1.0000 0.26270  0.12540  0.31870  Biso   1.000  C
  H70      1.0000 0.26790  0.15390  0.35740  Biso   1.000  H
  N19      1.0000 0.12670  0.88060  0.33770  Biso   1.000  N
  N20      1.0000 0.45650  0.50640  0.43310  Biso   1.000  N
  N21      1.0000 0.48950  0.44560  0.39410  Biso   1.000  N
  N22      1.0000 0.35280  0.44260  0.38884  Biso   1.000  N
  N23      1.0000 0.27040  0.42370  0.36780  Biso   1.000  N
  H71      1.0000 0.24140  0.39780  0.39890  Biso   1.000  H
  H72      1.0000 0.24380  0.47240  0.35720  Biso   1.000  H
  N24      1.0000 0.18770  0.02430  0.25700  Biso   1.000  N
  C97      1.0000 0.85930  0.08900  0.60910  Biso   1.000  C
  H73      1.0000 0.88840  0.03880  0.59800  Biso   1.000  H
  C98      1.0000 0.79790  0.11820  0.56910  Biso   1.000  C
  H74      1.0000 0.78520  0.08810  0.53200  Biso   1.000  H
  C99      1.0000 0.75430  0.19210  0.58350  Biso   1.000  C
  C100     1.0000 0.78270  0.23540  0.63620  Biso   1.000  C
  H75      1.0000 0.75960  0.28910  0.64590  Biso   1.000  H
  C101     1.0000 0.84330  0.20140  0.67380  Biso   1.000  C
  H76      1.0000 0.86000  0.23200  0.70980  Biso   1.000  H
  C102     1.0000 0.68170  0.22250  0.54630  Biso   1.000  C
  C103     1.0000 0.66440  0.19240  0.48710  Biso   1.000  C
  H77      1.0000 0.70060  0.15160  0.46880  Biso   1.000  H
  C104     1.0000 0.59550  0.22090  0.45440  Biso   1.000  C
  H78      1.0000 0.58450  0.19940  0.41380  Biso   1.000  H
  C105     1.0000 0.54090  0.28160  0.48040  Biso   1.000  C
  H79      1.0000 0.49290  0.30090  0.45810  Biso   1.000  H
  C106     1.0000 0.55910  0.31240  0.53940  Biso   1.000  C
  C107     1.0000 0.62810  0.28370  0.57170  Biso   1.000  C
  H80      1.0000 0.63980  0.30580  0.61200  Biso   1.000  H
  C108     1.0000 0.50380  0.37470  0.57000  Biso   1.000  C
  C109     1.0000 0.40730  0.42590  0.63270  Biso   1.000  C
  C110     1.0000 0.33760  0.43450  0.67690  Biso   1.000  C
  C111     1.0000 0.33410  0.50650  0.71330  Biso   1.000  C
  H81      1.0000 0.37760  0.54750  0.71070  Biso   1.000  H
  C112     1.0000 0.26760  0.51830  0.75290  Biso   1.000  C
  H82      1.0000 0.26460  0.56840  0.77700  Biso   1.000  H
  C113     1.0000 0.20530  0.45880  0.75840  Biso   1.000  C
  H83      1.0000 0.16100  0.46690  0.78760  Biso   1.000  H
  C114     1.0000 0.20680  0.38660  0.72140  Biso   1.000  C
  C115     1.0000 0.27380  0.37510  0.68140  Biso   1.000  C
  H84      1.0000 0.27640  0.32560  0.65660  Biso   1.000  H
  C116     1.0000 0.14060  0.31950  0.72810  Biso   1.000  C
  C117     1.0000 0.09320  0.31160  0.78220  Biso   1.000  C
  H85      1.0000 0.09920  0.35120  0.81500  Biso   1.000  H
  C118     1.0000 0.03700  0.24500  0.78760  Biso   1.000  C
  H86      1.0000 0.00570  0.23990  0.82520  Biso   1.000  H
  C119     1.0000 0.06860  0.19770  0.69060  Biso   1.000  C
  H87      1.0000 0.06070  0.15800  0.65790  Biso   1.000  H
  C120     1.0000 0.12540  0.26270  0.68130  Biso   1.000  C
  H88      1.0000 0.15390  0.26790  0.64260  Biso   1.000  H
  N25      1.0000 0.88060  0.12670  0.66230  Biso   1.000  N
  N26      1.0000 0.50640  0.45650  0.56690  Biso   1.000  N
  N27      1.0000 0.44560  0.48950  0.60590  Biso   1.000  N
  N28      1.0000 0.44260  0.35280  0.61116  Biso   1.000  N
  N29      1.0000 0.42370  0.27040  0.63220  Biso   1.000  N
  H89      1.0000 0.39780  0.24140  0.60110  Biso   1.000  H
  H90      1.0000 0.47240  0.24380  0.64280  Biso   1.000  H
  N30      1.0000 0.02430  0.18770  0.74300  Biso   1.000  N
  C121     1.0000 0.14070  0.91100  0.10910  Biso   1.000  C
  H91      1.0000 0.11160  0.96120  0.09800  Biso   1.000  H
  C122     1.0000 0.20210  0.88180  0.06910  Biso   1.000  C
  H92      1.0000 0.21480  0.91190  0.03200  Biso   1.000  H
  C123     1.0000 0.24570  0.80790  0.08350  Biso   1.000  C
  C124     1.0000 0.21730  0.76460  0.13620  Biso   1.000  C
  H93      1.0000 0.24040  0.71090  0.14590  Biso   1.000  H
  C125     1.0000 0.15670  0.79860  0.17380  Biso   1.000  C
  H94      1.0000 0.14000  0.76800  0.20980  Biso   1.000  H
  C126     1.0000 0.31830  0.77750  0.04630  Biso   1.000  C
  C127     1.0000 0.33560  0.80760  0.98710  Biso   1.000  C
  H95      1.0000 0.29940  0.84840  0.96880  Biso   1.000  H
  C128     1.0000 0.40450  0.77910  0.95440  Biso   1.000  C
  H96      1.0000 0.41550  0.80060  0.91380  Biso   1.000  H
  C129     1.0000 0.45910  0.71840  0.98040  Biso   1.000  C
  H97      1.0000 0.50710  0.69910  0.95810  Biso   1.000  H
  C130     1.0000 0.44090  0.68760  0.03940  Biso   1.000  C
  C131     1.0000 0.37190  0.71630  0.07170  Biso   1.000  C
  H98      1.0000 0.36020  0.69420  0.11200  Biso   1.000  H
  C132     1.0000 0.49620  0.62530  0.07000  Biso   1.000  C
  C133     1.0000 0.59270  0.57410  0.13270  Biso   1.000  C
  C134     1.0000 0.66240  0.56550  0.17690  Biso   1.000  C
  C135     1.0000 0.66590  0.49350  0.21330  Biso   1.000  C
  H99      1.0000 0.62240  0.45250  0.21070  Biso   1.000  H
  C136     1.0000 0.73240  0.48170  0.25290  Biso   1.000  C
  H100     1.0000 0.73540  0.43160  0.27700  Biso   1.000  H
  C137     1.0000 0.79470  0.54120  0.25840  Biso   1.000  C
  H101     1.0000 0.83900  0.53310  0.28760  Biso   1.000  H
  C138     1.0000 0.79320  0.61340  0.22140  Biso   1.000  C
  C139     1.0000 0.72620  0.62490  0.18140  Biso   1.000  C
  H102     1.0000 0.72360  0.67440  0.15660  Biso   1.000  H
  C140     1.0000 0.85940  0.68050  0.22810  Biso   1.000  C
  C141     1.0000 0.90680  0.68840  0.28220  Biso   1.000  C
  H103     1.0000 0.90080  0.64880  0.31500  Biso   1.000  H
  C142     1.0000 0.96300  0.75500  0.28760  Biso   1.000  C
  H104     1.0000 0.99430  0.76010  0.32520  Biso   1.000  H
  C143     1.0000 0.93140  0.80230  0.19060  Biso   1.000  C
  H105     1.0000 0.93930  0.84200  0.15790  Biso   1.000  H
  C144     1.0000 0.87460  0.73730  0.18130  Biso   1.000  C
  H106     1.0000 0.84610  0.73210  0.14260  Biso   1.000  H
  N31      1.0000 0.11940  0.87330  0.16230  Biso   1.000  N
  N32      1.0000 0.49360  0.54350  0.06690  Biso   1.000  N
  N33      1.0000 0.55440  0.51050  0.10590  Biso   1.000  N
  N34      1.0000 0.55740  0.64720  0.11116  Biso   1.000  N
  N35      1.0000 0.57630  0.72960  0.13220  Biso   1.000  N
  H107     1.0000 0.60220  0.75860  0.10110  Biso   1.000  H
  H108     1.0000 0.52760  0.75620  0.14280  Biso   1.000  H
  N36      1.0000 0.97570  0.81230  0.24300  Biso   1.000  N
  C145     1.0000 0.58900  0.64070  0.35910  Biso   1.000  C
  H109     1.0000 0.53880  0.61160  0.34800  Biso   1.000  H
  C146     1.0000 0.61820  0.70210  0.31910  Biso   1.000  C
  H110     1.0000 0.58810  0.71480  0.28200  Biso   1.000  H
  C147     1.0000 0.69210  0.74570  0.33350  Biso   1.000  C
  C148     1.0000 0.73540  0.71730  0.38620  Biso   1.000  C
  H111     1.0000 0.78910  0.74040  0.39590  Biso   1.000  H
  C149     1.0000 0.70140  0.65670  0.42380  Biso   1.000  C
  H112     1.0000 0.73200  0.64000  0.45980  Biso   1.000  H
  C150     1.0000 0.72250  0.81830  0.29630  Biso   1.000  C
  C151     1.0000 0.69240  0.83560  0.23710  Biso   1.000  C
  H113     1.0000 0.65160  0.79940  0.21880  Biso   1.000  H
  C152     1.0000 0.72090  0.90450  0.20440  Biso   1.000  C
  H114     1.0000 0.69940  0.91550  0.16380  Biso   1.000  H
  C153     1.0000 0.78160  0.95910  0.23040  Biso   1.000  C
  H115     1.0000 0.80090  0.00710  0.20810  Biso   1.000  H
  C154     1.0000 0.81240  0.94090  0.28940  Biso   1.000  C
  C155     1.0000 0.78370  0.87190  0.32170  Biso   1.000  C
  H116     1.0000 0.80580  0.86020  0.36200  Biso   1.000  H
  C156     1.0000 0.87470  0.99620  0.32000  Biso   1.000  C
  C157     1.0000 0.92590  0.09270  0.38270  Biso   1.000  C
  C158     1.0000 0.93450  0.16240  0.42690  Biso   1.000  C
  C159     1.0000 0.00650  0.16590  0.46330  Biso   1.000  C
  H117     1.0000 0.04750  0.12240  0.46070  Biso   1.000  H
  C160     1.0000 0.01830  0.23240  0.50290  Biso   1.000  C
  H118     1.0000 0.06840  0.23540  0.52700  Biso   1.000  H
  C161     1.0000 0.95880  0.29470  0.50840  Biso   1.000  C
  H119     1.0000 0.96690  0.33900  0.53760  Biso   1.000  H
  C162     1.0000 0.88660  0.29320  0.47140  Biso   1.000  C
  C163     1.0000 0.87510  0.22620  0.43140  Biso   1.000  C
  H120     1.0000 0.82560  0.22360  0.40660  Biso   1.000  H
  C164     1.0000 0.81950  0.35940  0.47810  Biso   1.000  C
  C165     1.0000 0.81160  0.40680  0.53220  Biso   1.000  C
  H121     1.0000 0.85120  0.40080  0.56500  Biso   1.000  H
  C166     1.0000 0.74500  0.46300  0.53760  Biso   1.000  C
  H122     1.0000 0.73990  0.49430  0.57520  Biso   1.000  H
  C167     1.0000 0.69770  0.43140  0.44060  Biso   1.000  C
  H123     1.0000 0.65800  0.43930  0.40790  Biso   1.000  H
  C168     1.0000 0.76270  0.37460  0.43130  Biso   1.000  C
  H124     1.0000 0.76790  0.34610  0.39260  Biso   1.000  H
  N37      1.0000 0.62670  0.61940  0.41230  Biso   1.000  N
  N38      1.0000 0.95650  0.99360  0.31690  Biso   1.000  N
  N39      1.0000 0.98950  0.05440  0.35590  Biso   1.000  N
  N40      1.0000 0.85280  0.05740  0.36116  Biso   1.000  N
  N41      1.0000 0.77040  0.07630  0.38220  Biso   1.000  N
  H125     1.0000 0.74140  0.10220  0.35110  Biso   1.000  H
  H126     1.0000 0.74380  0.02760  0.39280  Biso   1.000  H
  N42      1.0000 0.68770  0.47570  0.49300  Biso   1.000  N
  C169     1.0000 0.41100  0.35930  0.85910  Biso   1.000  C
  H127     1.0000 0.46120  0.38840  0.84800  Biso   1.000  H
  C170     1.0000 0.38180  0.29790  0.81910  Biso   1.000  C
  H128     1.0000 0.41190  0.28520  0.78200  Biso   1.000  H
  C171     1.0000 0.30790  0.25430  0.83350  Biso   1.000  C
  C172     1.0000 0.26460  0.28270  0.88620  Biso   1.000  C
  H129     1.0000 0.21090  0.25960  0.89590  Biso   1.000  H
  C173     1.0000 0.29860  0.34330  0.92380  Biso   1.000  C
  H130     1.0000 0.26800  0.36000  0.95980  Biso   1.000  H
  C174     1.0000 0.27750  0.18170  0.79630  Biso   1.000  C
  C175     1.0000 0.30760  0.16440  0.73710  Biso   1.000  C
  H131     1.0000 0.34840  0.20060  0.71880  Biso   1.000  H
  C176     1.0000 0.27910  0.09550  0.70440  Biso   1.000  C
  H132     1.0000 0.30060  0.08450  0.66380  Biso   1.000  H
  C177     1.0000 0.21840  0.04090  0.73040  Biso   1.000  C
  H133     1.0000 0.19910  0.99290  0.70810  Biso   1.000  H
  C178     1.0000 0.18760  0.05910  0.78940  Biso   1.000  C
  C179     1.0000 0.21630  0.12810  0.82170  Biso   1.000  C
  H134     1.0000 0.19420  0.13980  0.86200  Biso   1.000  H
  C180     1.0000 0.12530  0.00380  0.82000  Biso   1.000  C
  C181     1.0000 0.07410  0.90730  0.88270  Biso   1.000  C
  C182     1.0000 0.06550  0.83760  0.92690  Biso   1.000  C
  C183     1.0000 0.99350  0.83410  0.96330  Biso   1.000  C
  H135     1.0000 0.95250  0.87760  0.96070  Biso   1.000  H
  C184     1.0000 0.98170  0.76760  0.00290  Biso   1.000  C
  H136     1.0000 0.93160  0.76460  0.02700  Biso   1.000  H
  C185     1.0000 0.04120  0.70530  0.00840  Biso   1.000  C
  H137     1.0000 0.03310  0.66100  0.03760  Biso   1.000  H
  C186     1.0000 0.11340  0.70680  0.97140  Biso   1.000  C
  C187     1.0000 0.12490  0.77380  0.93140  Biso   1.000  C
  H138     1.0000 0.17440  0.77640  0.90660  Biso   1.000  H
  C188     1.0000 0.18050  0.64060  0.97810  Biso   1.000  C
  C189     1.0000 0.18840  0.59320  0.03220  Biso   1.000  C
  H139     1.0000 0.14880  0.59920  0.06500  Biso   1.000  H
  C190     1.0000 0.25500  0.53700  0.03760  Biso   1.000  C
  H140     1.0000 0.26010  0.50570  0.07520  Biso   1.000  H
  C191     1.0000 0.30230  0.56860  0.94060  Biso   1.000  C
  H141     1.0000 0.34200  0.56070  0.90790  Biso   1.000  H
  C192     1.0000 0.23730  0.62540  0.93130  Biso   1.000  C
  H142     1.0000 0.23210  0.65390  0.89260  Biso   1.000  H
  N43      1.0000 0.37330  0.38060  0.91230  Biso   1.000  N
  N44      1.0000 0.04350  0.00640  0.81690  Biso   1.000  N
  N45      1.0000 0.01050  0.94560  0.85590  Biso   1.000  N
  N46      1.0000 0.14720  0.94260  0.86116  Biso   1.000  N
  N47      1.0000 0.22960  0.92370  0.88220  Biso   1.000  N
  H143     1.0000 0.25860  0.89780  0.85110  Biso   1.000  H
  H144     1.0000 0.25620  0.97240  0.89280  Biso   1.000  H
  N48      1.0000 0.31230  0.52430  0.99300  Biso   1.000  N
  Cd1      1.0000 0.94063  0.05937  0.75000  Biso   1.000  Cd
  Cd2      1.0000 0.05937  0.94063  0.25000  Biso   1.000  Cd
  Cd3      1.0000 0.44063  0.44063  0.00000  Biso   1.000  Cd
  Cd4      1.0000 0.55937  0.55937  0.50000  Biso   1.000  Cd
