data_image0
_cell_length_a       36.061
_cell_length_b       18.233
_cell_length_c       25.146
_cell_angle_alpha    90
_cell_angle_beta     121.237
_cell_angle_gamma    90

_symmetry_space_group_name_H-M    "P 1"
_symmetry_int_tables_number       1

loop_
  _symmetry_equiv_pos_as_xyz
  'x, y, z'

loop_
  _atom_site_label
  _atom_site_occupancy
  _atom_site_fract_x
  _atom_site_fract_y
  _atom_site_fract_z
  _atom_site_thermal_displace_type
  _atom_site_B_iso_or_equiv
  _atom_site_type_symbol
  Cd1      1.0000 0.20928  0.87224  0.30717  Biso   1.000  Cd
  Cd2      1.0000 0.31805  0.86042  0.32623  Biso   1.000  Cd
  Cd3      1.0000 0.32280  0.92760  0.45771  Biso   1.000  Cd
  O1       1.0000 0.21725  0.98830  0.27510  Biso   1.000  O
  O2       1.0000 0.28083  0.94740  0.34769  Biso   1.000  O
  O3       1.0000 0.20204  0.25320  0.22400  Biso   1.000  O
  O4       1.0000 0.25850  0.32180  0.24917  Biso   1.000  O
  O5       1.0000 0.62286  0.06660  0.56360  Biso   1.000  O
  O6       1.0000 0.61153  0.15530  0.61330  Biso   1.000  O
  O7       1.0000 0.28122  0.89020  0.49370  Biso   1.000  O
  O8       1.0000 0.22533  0.92460  0.40090  Biso   1.000  O
  O9       1.0000 0.25639  0.72700  0.62969  Biso   1.000  O
  O10      1.0000 0.18866  0.68710  0.59220  Biso   1.000  O
  O11      1.0000 0.86425  0.91330  0.22330  Biso   1.000  O
  O12      1.0000 0.85329  0.81530  0.25900  Biso   1.000  O
  C1       1.0000 0.27676  0.07110  0.31400  Biso   1.000  C
  C2       1.0000 0.25148  0.13050  0.28170  Biso   1.000  C
  H1       1.0000 0.22150  0.12540  0.25700  Biso   1.000  H
  C3       1.0000 0.27073  0.19840  0.28610  Biso   1.000  C
  C4       1.0000 0.31527  0.20500  0.32170  Biso   1.000  C
  H2       1.0000 0.32800  0.25000  0.32350  Biso   1.000  H
  C5       1.0000 0.34149  0.14640  0.35470  Biso   1.000  C
  C6       1.0000 0.32172  0.07950  0.34970  Biso   1.000  C
  H3       1.0000 0.33890  0.03900  0.37060  Biso   1.000  H
  C7       1.0000 0.25653  0.99800  0.31120  Biso   1.000  C
  C8       1.0000 0.24251  0.26260  0.25140  Biso   1.000  C
  C9       1.0000 0.38931  0.15230  0.39580  Biso   1.000  C
  C10      1.0000 0.40727  0.20970  0.43910  Biso   1.000  C
  H4       1.0000 0.38930  0.24570  0.44000  Biso   1.000  H
  C11      1.0000 0.45061  0.21280  0.47970  Biso   1.000  C
  H5       1.0000 0.46190  0.25130  0.50810  Biso   1.000  H
  C12      1.0000 0.47889  0.16020  0.48020  Biso   1.000  C
  C13      1.0000 0.52437  0.16060  0.52370  Biso   1.000  C
  H6       1.0000 0.53610  0.19640  0.55450  Biso   1.000  H
  C14      1.0000 0.55082  0.11030  0.52120  Biso   1.000  C
  C15      1.0000 0.53380  0.05660  0.47530  Biso   1.000  C
  H7       1.0000 0.55230  0.02280  0.47320  Biso   1.000  H
  C16      1.0000 0.48950  0.05270  0.43250  Biso   1.000  C
  H8       1.0000 0.47850  0.01590  0.40260  Biso   1.000  H
  C17      1.0000 0.46141  0.10480  0.43450  Biso   1.000  C
  C18      1.0000 0.41611  0.10140  0.39390  Biso   1.000  C
  H9       1.0000 0.40430  0.06340  0.36520  Biso   1.000  H
  C19      1.0000 0.59853  0.11080  0.56900  Biso   1.000  C
  C20      1.0000 0.21103  0.86210  0.47170  Biso   1.000  C
  C21      1.0000 0.22729  0.81780  0.52380  Biso   1.000  C
  H10      1.0000 0.25710  0.81100  0.54910  Biso   1.000  H
  C22      1.0000 0.19963  0.78350  0.53860  Biso   1.000  C
  C23      1.0000 0.15538  0.79600  0.50220  Biso   1.000  C
  H11      1.0000 0.13680  0.77350  0.51250  Biso   1.000  H
  C24      1.0000 0.13801  0.84250  0.44970  Biso   1.000  C
  C25      1.0000 0.16657  0.87320  0.43440  Biso   1.000  C
  H12      1.0000 0.15570  0.90160  0.39860  Biso   1.000  H
  C26      1.0000 0.24052  0.89500  0.45330  Biso   1.000  C
  C27      1.0000 0.21670  0.72940  0.59200  Biso   1.000  C
  C28      1.0000 0.09022  0.85510  0.41040  Biso   1.000  C
  C29      1.0000 0.06120  0.80800  0.40830  Biso   1.000  C
  H13      1.0000 0.07120  0.76520  0.43170  Biso   1.000  H
  C30      1.0000 0.01575  0.82030  0.37180  Biso   1.000  C
  C31      1.0000 0.98560  0.76700  0.36810  Biso   1.000  C
  H14      1.0000 0.99540  0.72240  0.38880  Biso   1.000  H
  C32      1.0000 0.94200  0.78190  0.33380  Biso   1.000  C
  H15      1.0000 0.92230  0.74810  0.33290  Biso   1.000  H
  C33      1.0000 0.92641  0.84900  0.29920  Biso   1.000  C
  C34      1.0000 0.95481  0.89530  0.29890  Biso   1.000  C
  H16      1.0000 0.94470  0.93700  0.27400  Biso   1.000  H
  C35      1.0000 0.00025  0.88270  0.33560  Biso   1.000  C
  C36      1.0000 0.03070  0.93440  0.33820  Biso   1.000  C
  H17      1.0000 0.02100  0.97740  0.31510  Biso   1.000  H
  C37      1.0000 0.07460  0.92090  0.37520  Biso   1.000  C
  H18      1.0000 0.09430  0.95530  0.37700  Biso   1.000  H
  C38      1.0000 0.87843  0.86140  0.25890  Biso   1.000  C
  Cd4      1.0000 0.70928  0.37224  0.30717  Biso   1.000  Cd
  Cd5      1.0000 0.81805  0.36042  0.32623  Biso   1.000  Cd
  Cd6      1.0000 0.82280  0.42760  0.45771  Biso   1.000  Cd
  O13      1.0000 0.71725  0.48830  0.27510  Biso   1.000  O
  O14      1.0000 0.78083  0.44740  0.34769  Biso   1.000  O
  O15      1.0000 0.70204  0.75320  0.22400  Biso   1.000  O
  O16      1.0000 0.75850  0.82180  0.24917  Biso   1.000  O
  O17      1.0000 0.12286  0.56660  0.56360  Biso   1.000  O
  O18      1.0000 0.11153  0.65530  0.61330  Biso   1.000  O
  O19      1.0000 0.78122  0.39020  0.49370  Biso   1.000  O
  O20      1.0000 0.72533  0.42460  0.40090  Biso   1.000  O
  O21      1.0000 0.75639  0.22700  0.62969  Biso   1.000  O
  O22      1.0000 0.68866  0.18710  0.59220  Biso   1.000  O
  O23      1.0000 0.36425  0.41330  0.22330  Biso   1.000  O
  O24      1.0000 0.35329  0.31530  0.25900  Biso   1.000  O
  C39      1.0000 0.77676  0.57110  0.31400  Biso   1.000  C
  C40      1.0000 0.75148  0.63050  0.28170  Biso   1.000  C
  H19      1.0000 0.72150  0.62540  0.25700  Biso   1.000  H
  C41      1.0000 0.77073  0.69840  0.28610  Biso   1.000  C
  C42      1.0000 0.81527  0.70500  0.32170  Biso   1.000  C
  H20      1.0000 0.82800  0.75000  0.32350  Biso   1.000  H
  C43      1.0000 0.84149  0.64640  0.35470  Biso   1.000  C
  C44      1.0000 0.82172  0.57950  0.34970  Biso   1.000  C
  H21      1.0000 0.83890  0.53900  0.37060  Biso   1.000  H
  C45      1.0000 0.75653  0.49800  0.31120  Biso   1.000  C
  C46      1.0000 0.74251  0.76260  0.25140  Biso   1.000  C
  C47      1.0000 0.88931  0.65230  0.39580  Biso   1.000  C
  C48      1.0000 0.90727  0.70970  0.43910  Biso   1.000  C
  H22      1.0000 0.88930  0.74570  0.44000  Biso   1.000  H
  C49      1.0000 0.95061  0.71280  0.47970  Biso   1.000  C
  H23      1.0000 0.96190  0.75130  0.50810  Biso   1.000  H
  C50      1.0000 0.97889  0.66020  0.48020  Biso   1.000  C
  C51      1.0000 0.02437  0.66060  0.52370  Biso   1.000  C
  H24      1.0000 0.03610  0.69640  0.55450  Biso   1.000  H
  C52      1.0000 0.05082  0.61030  0.52120  Biso   1.000  C
  C53      1.0000 0.03380  0.55660  0.47530  Biso   1.000  C
  H25      1.0000 0.05230  0.52280  0.47320  Biso   1.000  H
  C54      1.0000 0.98950  0.55270  0.43250  Biso   1.000  C
  H26      1.0000 0.97850  0.51590  0.40260  Biso   1.000  H
  C55      1.0000 0.96141  0.60480  0.43450  Biso   1.000  C
  C56      1.0000 0.91611  0.60140  0.39390  Biso   1.000  C
  H27      1.0000 0.90430  0.56340  0.36520  Biso   1.000  H
  C57      1.0000 0.09853  0.61080  0.56900  Biso   1.000  C
  C58      1.0000 0.71103  0.36210  0.47170  Biso   1.000  C
  C59      1.0000 0.72729  0.31780  0.52380  Biso   1.000  C
  H28      1.0000 0.75710  0.31100  0.54910  Biso   1.000  H
  C60      1.0000 0.69963  0.28350  0.53860  Biso   1.000  C
  C61      1.0000 0.65538  0.29600  0.50220  Biso   1.000  C
  H29      1.0000 0.63680  0.27350  0.51250  Biso   1.000  H
  C62      1.0000 0.63801  0.34250  0.44970  Biso   1.000  C
  C63      1.0000 0.66657  0.37320  0.43440  Biso   1.000  C
  H30      1.0000 0.65570  0.40160  0.39860  Biso   1.000  H
  C64      1.0000 0.74052  0.39500  0.45330  Biso   1.000  C
  C65      1.0000 0.71670  0.22940  0.59200  Biso   1.000  C
  C66      1.0000 0.59022  0.35510  0.41040  Biso   1.000  C
  C67      1.0000 0.56120  0.30800  0.40830  Biso   1.000  C
  H31      1.0000 0.57120  0.26520  0.43170  Biso   1.000  H
  C68      1.0000 0.51575  0.32030  0.37180  Biso   1.000  C
  C69      1.0000 0.48560  0.26700  0.36810  Biso   1.000  C
  H32      1.0000 0.49540  0.22240  0.38880  Biso   1.000  H
  C70      1.0000 0.44200  0.28190  0.33380  Biso   1.000  C
  H33      1.0000 0.42230  0.24810  0.33290  Biso   1.000  H
  C71      1.0000 0.42641  0.34900  0.29920  Biso   1.000  C
  C72      1.0000 0.45481  0.39530  0.29890  Biso   1.000  C
  H34      1.0000 0.44470  0.43700  0.27400  Biso   1.000  H
  C73      1.0000 0.50025  0.38270  0.33560  Biso   1.000  C
  C74      1.0000 0.53070  0.43440  0.33820  Biso   1.000  C
  H35      1.0000 0.52100  0.47740  0.31510  Biso   1.000  H
  C75      1.0000 0.57460  0.42090  0.37520  Biso   1.000  C
  H36      1.0000 0.59430  0.45530  0.37700  Biso   1.000  H
  C76      1.0000 0.37843  0.36140  0.25890  Biso   1.000  C
  Cd7      1.0000 0.79072  0.87224  0.19283  Biso   1.000  Cd
  Cd8      1.0000 0.68195  0.86042  0.17377  Biso   1.000  Cd
  Cd9      1.0000 0.67720  0.92760  0.04229  Biso   1.000  Cd
  O25      1.0000 0.78275  0.98830  0.22490  Biso   1.000  O
  O26      1.0000 0.71917  0.94740  0.15231  Biso   1.000  O
  O27      1.0000 0.79796  0.25320  0.27600  Biso   1.000  O
  O28      1.0000 0.74150  0.32180  0.25083  Biso   1.000  O
  O29      1.0000 0.37714  0.06660  0.93640  Biso   1.000  O
  O30      1.0000 0.38847  0.15530  0.88670  Biso   1.000  O
  O31      1.0000 0.71878  0.89020  0.00630  Biso   1.000  O
  O32      1.0000 0.77467  0.92460  0.09910  Biso   1.000  O
  O33      1.0000 0.74361  0.72700  0.87031  Biso   1.000  O
  O34      1.0000 0.81134  0.68710  0.90780  Biso   1.000  O
  O35      1.0000 0.13575  0.91330  0.27670  Biso   1.000  O
  O36      1.0000 0.14671  0.81530  0.24100  Biso   1.000  O
  C77      1.0000 0.72324  0.07110  0.18600  Biso   1.000  C
  C78      1.0000 0.74852  0.13050  0.21830  Biso   1.000  C
  H37      1.0000 0.77850  0.12540  0.24300  Biso   1.000  H
  C79      1.0000 0.72927  0.19840  0.21390  Biso   1.000  C
  C80      1.0000 0.68473  0.20500  0.17830  Biso   1.000  C
  H38      1.0000 0.67200  0.25000  0.17650  Biso   1.000  H
  C81      1.0000 0.65851  0.14640  0.14530  Biso   1.000  C
  C82      1.0000 0.67828  0.07950  0.15030  Biso   1.000  C
  H39      1.0000 0.66110  0.03900  0.12940  Biso   1.000  H
  C83      1.0000 0.74347  0.99800  0.18880  Biso   1.000  C
  C84      1.0000 0.75749  0.26260  0.24860  Biso   1.000  C
  C85      1.0000 0.61069  0.15230  0.10420  Biso   1.000  C
  C86      1.0000 0.59273  0.20970  0.06090  Biso   1.000  C
  H40      1.0000 0.61070  0.24570  0.06000  Biso   1.000  H
  C87      1.0000 0.54939  0.21280  0.02030  Biso   1.000  C
  H41      1.0000 0.53810  0.25130  0.99190  Biso   1.000  H
  C88      1.0000 0.52111  0.16020  0.01980  Biso   1.000  C
  C89      1.0000 0.47563  0.16060  0.97630  Biso   1.000  C
  H42      1.0000 0.46390  0.19640  0.94550  Biso   1.000  H
  C90      1.0000 0.44918  0.11030  0.97880  Biso   1.000  C
  C91      1.0000 0.46620  0.05660  0.02470  Biso   1.000  C
  H43      1.0000 0.44770  0.02280  0.02680  Biso   1.000  H
  C92      1.0000 0.51050  0.05270  0.06750  Biso   1.000  C
  H44      1.0000 0.52150  0.01590  0.09740  Biso   1.000  H
  C93      1.0000 0.53859  0.10480  0.06550  Biso   1.000  C
  C94      1.0000 0.58389  0.10140  0.10610  Biso   1.000  C
  H45      1.0000 0.59570  0.06340  0.13480  Biso   1.000  H
  C95      1.0000 0.40147  0.11080  0.93100  Biso   1.000  C
  C96      1.0000 0.78897  0.86210  0.02830  Biso   1.000  C
  C97      1.0000 0.77271  0.81780  0.97620  Biso   1.000  C
  H46      1.0000 0.74290  0.81100  0.95090  Biso   1.000  H
  C98      1.0000 0.80037  0.78350  0.96140  Biso   1.000  C
  C99      1.0000 0.84462  0.79600  0.99780  Biso   1.000  C
  H47      1.0000 0.86320  0.77350  0.98750  Biso   1.000  H
  C100     1.0000 0.86199  0.84250  0.05030  Biso   1.000  C
  C101     1.0000 0.83343  0.87320  0.06560  Biso   1.000  C
  H48      1.0000 0.84430  0.90160  0.10140  Biso   1.000  H
  C102     1.0000 0.75948  0.89500  0.04670  Biso   1.000  C
  C103     1.0000 0.78330  0.72940  0.90800  Biso   1.000  C
  C104     1.0000 0.90978  0.85510  0.08960  Biso   1.000  C
  C105     1.0000 0.93880  0.80800  0.09170  Biso   1.000  C
  H49      1.0000 0.92880  0.76520  0.06830  Biso   1.000  H
  C106     1.0000 0.98425  0.82030  0.12820  Biso   1.000  C
  C107     1.0000 0.01440  0.76700  0.13190  Biso   1.000  C
  H50      1.0000 0.00460  0.72240  0.11120  Biso   1.000  H
  C108     1.0000 0.05800  0.78190  0.16620  Biso   1.000  C
  H51      1.0000 0.07770  0.74810  0.16710  Biso   1.000  H
  C109     1.0000 0.07359  0.84900  0.20080  Biso   1.000  C
  C110     1.0000 0.04519  0.89530  0.20110  Biso   1.000  C
  H52      1.0000 0.05530  0.93700  0.22600  Biso   1.000  H
  C111     1.0000 0.99975  0.88270  0.16440  Biso   1.000  C
  C112     1.0000 0.96930  0.93440  0.16180  Biso   1.000  C
  H53      1.0000 0.97900  0.97740  0.18490  Biso   1.000  H
  C113     1.0000 0.92540  0.92090  0.12480  Biso   1.000  C
  H54      1.0000 0.90570  0.95530  0.12300  Biso   1.000  H
  C114     1.0000 0.12157  0.86140  0.24110  Biso   1.000  C
  Cd10     1.0000 0.29072  0.37224  0.19283  Biso   1.000  Cd
  Cd11     1.0000 0.18195  0.36042  0.17377  Biso   1.000  Cd
  Cd12     1.0000 0.17720  0.42760  0.04229  Biso   1.000  Cd
  O37      1.0000 0.28275  0.48830  0.22490  Biso   1.000  O
  O38      1.0000 0.21917  0.44740  0.15231  Biso   1.000  O
  O39      1.0000 0.29796  0.75320  0.27600  Biso   1.000  O
  O40      1.0000 0.24150  0.82180  0.25083  Biso   1.000  O
  O41      1.0000 0.87714  0.56660  0.93640  Biso   1.000  O
  O42      1.0000 0.88847  0.65530  0.88670  Biso   1.000  O
  O43      1.0000 0.21878  0.39020  0.00630  Biso   1.000  O
  O44      1.0000 0.27467  0.42460  0.09910  Biso   1.000  O
  O45      1.0000 0.24361  0.22700  0.87031  Biso   1.000  O
  O46      1.0000 0.31134  0.18710  0.90780  Biso   1.000  O
  O47      1.0000 0.63575  0.41330  0.27670  Biso   1.000  O
  O48      1.0000 0.64671  0.31530  0.24100  Biso   1.000  O
  C115     1.0000 0.22324  0.57110  0.18600  Biso   1.000  C
  C116     1.0000 0.24852  0.63050  0.21830  Biso   1.000  C
  H55      1.0000 0.27850  0.62540  0.24300  Biso   1.000  H
  C117     1.0000 0.22927  0.69840  0.21390  Biso   1.000  C
  C118     1.0000 0.18473  0.70500  0.17830  Biso   1.000  C
  H56      1.0000 0.17200  0.75000  0.17650  Biso   1.000  H
  C119     1.0000 0.15851  0.64640  0.14530  Biso   1.000  C
  C120     1.0000 0.17828  0.57950  0.15030  Biso   1.000  C
  H57      1.0000 0.16110  0.53900  0.12940  Biso   1.000  H
  C121     1.0000 0.24347  0.49800  0.18880  Biso   1.000  C
  C122     1.0000 0.25749  0.76260  0.24860  Biso   1.000  C
  C123     1.0000 0.11069  0.65230  0.10420  Biso   1.000  C
  C124     1.0000 0.09273  0.70970  0.06090  Biso   1.000  C
  H58      1.0000 0.11070  0.74570  0.06000  Biso   1.000  H
  C125     1.0000 0.04939  0.71280  0.02030  Biso   1.000  C
  H59      1.0000 0.03810  0.75130  0.99190  Biso   1.000  H
  C126     1.0000 0.02111  0.66020  0.01980  Biso   1.000  C
  C127     1.0000 0.97563  0.66060  0.97630  Biso   1.000  C
  H60      1.0000 0.96390  0.69640  0.94550  Biso   1.000  H
  C128     1.0000 0.94918  0.61030  0.97880  Biso   1.000  C
  C129     1.0000 0.96620  0.55660  0.02470  Biso   1.000  C
  H61      1.0000 0.94770  0.52280  0.02680  Biso   1.000  H
  C130     1.0000 0.01050  0.55270  0.06750  Biso   1.000  C
  H62      1.0000 0.02150  0.51590  0.09740  Biso   1.000  H
  C131     1.0000 0.03859  0.60480  0.06550  Biso   1.000  C
  C132     1.0000 0.08389  0.60140  0.10610  Biso   1.000  C
  H63      1.0000 0.09570  0.56340  0.13480  Biso   1.000  H
  C133     1.0000 0.90147  0.61080  0.93100  Biso   1.000  C
  C134     1.0000 0.28897  0.36210  0.02830  Biso   1.000  C
  C135     1.0000 0.27271  0.31780  0.97620  Biso   1.000  C
  H64      1.0000 0.24290  0.31100  0.95090  Biso   1.000  H
  C136     1.0000 0.30037  0.28350  0.96140  Biso   1.000  C
  C137     1.0000 0.34462  0.29600  0.99780  Biso   1.000  C
  H65      1.0000 0.36320  0.27350  0.98750  Biso   1.000  H
  C138     1.0000 0.36199  0.34250  0.05030  Biso   1.000  C
  C139     1.0000 0.33343  0.37320  0.06560  Biso   1.000  C
  H66      1.0000 0.34430  0.40160  0.10140  Biso   1.000  H
  C140     1.0000 0.25948  0.39500  0.04670  Biso   1.000  C
  C141     1.0000 0.28330  0.22940  0.90800  Biso   1.000  C
  C142     1.0000 0.40978  0.35510  0.08960  Biso   1.000  C
  C143     1.0000 0.43880  0.30800  0.09170  Biso   1.000  C
  H67      1.0000 0.42880  0.26520  0.06830  Biso   1.000  H
  C144     1.0000 0.48425  0.32030  0.12820  Biso   1.000  C
  C145     1.0000 0.51440  0.26700  0.13190  Biso   1.000  C
  H68      1.0000 0.50460  0.22240  0.11120  Biso   1.000  H
  C146     1.0000 0.55800  0.28190  0.16620  Biso   1.000  C
  H69      1.0000 0.57770  0.24810  0.16710  Biso   1.000  H
  C147     1.0000 0.57359  0.34900  0.20080  Biso   1.000  C
  C148     1.0000 0.54519  0.39530  0.20110  Biso   1.000  C
  H70      1.0000 0.55530  0.43700  0.22600  Biso   1.000  H
  C149     1.0000 0.49975  0.38270  0.16440  Biso   1.000  C
  C150     1.0000 0.46930  0.43440  0.16180  Biso   1.000  C
  H71      1.0000 0.47900  0.47740  0.18490  Biso   1.000  H
  C151     1.0000 0.42540  0.42090  0.12480  Biso   1.000  C
  H72      1.0000 0.40570  0.45530  0.12300  Biso   1.000  H
  C152     1.0000 0.62157  0.36140  0.24110  Biso   1.000  C
  Cd13     1.0000 0.79072  0.12776  0.69283  Biso   1.000  Cd
  Cd14     1.0000 0.68195  0.13958  0.67377  Biso   1.000  Cd
  Cd15     1.0000 0.67720  0.07240  0.54229  Biso   1.000  Cd
  O49      1.0000 0.78275  0.01170  0.72490  Biso   1.000  O
  O50      1.0000 0.71917  0.05260  0.65231  Biso   1.000  O
  O51      1.0000 0.79796  0.74680  0.77600  Biso   1.000  O
  O52      1.0000 0.74150  0.67820  0.75083  Biso   1.000  O
  O53      1.0000 0.37714  0.93340  0.43640  Biso   1.000  O
  O54      1.0000 0.38847  0.84470  0.38670  Biso   1.000  O
  O55      1.0000 0.71878  0.10980  0.50630  Biso   1.000  O
  O56      1.0000 0.77467  0.07540  0.59910  Biso   1.000  O
  O57      1.0000 0.74361  0.27300  0.37031  Biso   1.000  O
  O58      1.0000 0.81134  0.31290  0.40780  Biso   1.000  O
  O59      1.0000 0.13575  0.08670  0.77670  Biso   1.000  O
  O60      1.0000 0.14671  0.18470  0.74100  Biso   1.000  O
  C153     1.0000 0.72324  0.92890  0.68600  Biso   1.000  C
  C154     1.0000 0.74852  0.86950  0.71830  Biso   1.000  C
  H73      1.0000 0.77850  0.87460  0.74300  Biso   1.000  H
  C155     1.0000 0.72927  0.80160  0.71390  Biso   1.000  C
  C156     1.0000 0.68473  0.79500  0.67830  Biso   1.000  C
  H74      1.0000 0.67200  0.75000  0.67650  Biso   1.000  H
  C157     1.0000 0.65851  0.85360  0.64530  Biso   1.000  C
  C158     1.0000 0.67828  0.92050  0.65030  Biso   1.000  C
  H75      1.0000 0.66110  0.96100  0.62940  Biso   1.000  H
  C159     1.0000 0.74347  0.00200  0.68880  Biso   1.000  C
  C160     1.0000 0.75749  0.73740  0.74860  Biso   1.000  C
  C161     1.0000 0.61069  0.84770  0.60420  Biso   1.000  C
  C162     1.0000 0.59273  0.79030  0.56090  Biso   1.000  C
  H76      1.0000 0.61070  0.75430  0.56000  Biso   1.000  H
  C163     1.0000 0.54939  0.78720  0.52030  Biso   1.000  C
  H77      1.0000 0.53810  0.74870  0.49190  Biso   1.000  H
  C164     1.0000 0.52111  0.83980  0.51980  Biso   1.000  C
  C165     1.0000 0.47563  0.83940  0.47630  Biso   1.000  C
  H78      1.0000 0.46390  0.80360  0.44550  Biso   1.000  H
  C166     1.0000 0.44918  0.88970  0.47880  Biso   1.000  C
  C167     1.0000 0.46620  0.94340  0.52470  Biso   1.000  C
  H79      1.0000 0.44770  0.97720  0.52680  Biso   1.000  H
  C168     1.0000 0.51050  0.94730  0.56750  Biso   1.000  C
  H80      1.0000 0.52150  0.98410  0.59740  Biso   1.000  H
  C169     1.0000 0.53859  0.89520  0.56550  Biso   1.000  C
  C170     1.0000 0.58389  0.89860  0.60610  Biso   1.000  C
  H81      1.0000 0.59570  0.93660  0.63480  Biso   1.000  H
  C171     1.0000 0.40147  0.88920  0.43100  Biso   1.000  C
  C172     1.0000 0.78897  0.13790  0.52830  Biso   1.000  C
  C173     1.0000 0.77271  0.18220  0.47620  Biso   1.000  C
  H82      1.0000 0.74290  0.18900  0.45090  Biso   1.000  H
  C174     1.0000 0.80037  0.21650  0.46140  Biso   1.000  C
  C175     1.0000 0.84462  0.20400  0.49780  Biso   1.000  C
  H83      1.0000 0.86320  0.22650  0.48750  Biso   1.000  H
  C176     1.0000 0.86199  0.15750  0.55030  Biso   1.000  C
  C177     1.0000 0.83343  0.12680  0.56560  Biso   1.000  C
  H84      1.0000 0.84430  0.09840  0.60140  Biso   1.000  H
  C178     1.0000 0.75948  0.10500  0.54670  Biso   1.000  C
  C179     1.0000 0.78330  0.27060  0.40800  Biso   1.000  C
  C180     1.0000 0.90978  0.14490  0.58960  Biso   1.000  C
  C181     1.0000 0.93880  0.19200  0.59170  Biso   1.000  C
  H85      1.0000 0.92880  0.23480  0.56830  Biso   1.000  H
  C182     1.0000 0.98425  0.17970  0.62820  Biso   1.000  C
  C183     1.0000 0.01440  0.23300  0.63190  Biso   1.000  C
  H86      1.0000 0.00460  0.27760  0.61120  Biso   1.000  H
  C184     1.0000 0.05800  0.21810  0.66620  Biso   1.000  C
  H87      1.0000 0.07770  0.25190  0.66710  Biso   1.000  H
  C185     1.0000 0.07359  0.15100  0.70080  Biso   1.000  C
  C186     1.0000 0.04519  0.10470  0.70110  Biso   1.000  C
  H88      1.0000 0.05530  0.06300  0.72600  Biso   1.000  H
  C187     1.0000 0.99975  0.11730  0.66440  Biso   1.000  C
  C188     1.0000 0.96930  0.06560  0.66180  Biso   1.000  C
  H89      1.0000 0.97900  0.02260  0.68490  Biso   1.000  H
  C189     1.0000 0.92540  0.07910  0.62480  Biso   1.000  C
  H90      1.0000 0.90570  0.04470  0.62300  Biso   1.000  H
  C190     1.0000 0.12157  0.13860  0.74110  Biso   1.000  C
  Cd16     1.0000 0.29072  0.62776  0.69283  Biso   1.000  Cd
  Cd17     1.0000 0.18195  0.63958  0.67377  Biso   1.000  Cd
  Cd18     1.0000 0.17720  0.57240  0.54229  Biso   1.000  Cd
  O61      1.0000 0.28275  0.51170  0.72490  Biso   1.000  O
  O62      1.0000 0.21917  0.55260  0.65231  Biso   1.000  O
  O63      1.0000 0.29796  0.24680  0.77600  Biso   1.000  O
  O64      1.0000 0.24150  0.17820  0.75083  Biso   1.000  O
  O65      1.0000 0.87714  0.43340  0.43640  Biso   1.000  O
  O66      1.0000 0.88847  0.34470  0.38670  Biso   1.000  O
  O67      1.0000 0.21878  0.60980  0.50630  Biso   1.000  O
  O68      1.0000 0.27467  0.57540  0.59910  Biso   1.000  O
  O69      1.0000 0.24361  0.77300  0.37031  Biso   1.000  O
  O70      1.0000 0.31134  0.81290  0.40780  Biso   1.000  O
  O71      1.0000 0.63575  0.58670  0.77670  Biso   1.000  O
  O72      1.0000 0.64671  0.68470  0.74100  Biso   1.000  O
  C191     1.0000 0.22324  0.42890  0.68600  Biso   1.000  C
  C192     1.0000 0.24852  0.36950  0.71830  Biso   1.000  C
  H91      1.0000 0.27850  0.37460  0.74300  Biso   1.000  H
  C193     1.0000 0.22927  0.30160  0.71390  Biso   1.000  C
  C194     1.0000 0.18473  0.29500  0.67830  Biso   1.000  C
  H92      1.0000 0.17200  0.25000  0.67650  Biso   1.000  H
  C195     1.0000 0.15851  0.35360  0.64530  Biso   1.000  C
  C196     1.0000 0.17828  0.42050  0.65030  Biso   1.000  C
  H93      1.0000 0.16110  0.46100  0.62940  Biso   1.000  H
  C197     1.0000 0.24347  0.50200  0.68880  Biso   1.000  C
  C198     1.0000 0.25749  0.23740  0.74860  Biso   1.000  C
  C199     1.0000 0.11069  0.34770  0.60420  Biso   1.000  C
  C200     1.0000 0.09273  0.29030  0.56090  Biso   1.000  C
  H94      1.0000 0.11070  0.25430  0.56000  Biso   1.000  H
  C201     1.0000 0.04939  0.28720  0.52030  Biso   1.000  C
  H95      1.0000 0.03810  0.24870  0.49190  Biso   1.000  H
  C202     1.0000 0.02111  0.33980  0.51980  Biso   1.000  C
  C203     1.0000 0.97563  0.33940  0.47630  Biso   1.000  C
  H96      1.0000 0.96390  0.30360  0.44550  Biso   1.000  H
  C204     1.0000 0.94918  0.38970  0.47880  Biso   1.000  C
  C205     1.0000 0.96620  0.44340  0.52470  Biso   1.000  C
  H97      1.0000 0.94770  0.47720  0.52680  Biso   1.000  H
  C206     1.0000 0.01050  0.44730  0.56750  Biso   1.000  C
  H98      1.0000 0.02150  0.48410  0.59740  Biso   1.000  H
  C207     1.0000 0.03859  0.39520  0.56550  Biso   1.000  C
  C208     1.0000 0.08389  0.39860  0.60610  Biso   1.000  C
  H99      1.0000 0.09570  0.43660  0.63480  Biso   1.000  H
  C209     1.0000 0.90147  0.38920  0.43100  Biso   1.000  C
  C210     1.0000 0.28897  0.63790  0.52830  Biso   1.000  C
  C211     1.0000 0.27271  0.68220  0.47620  Biso   1.000  C
  H100     1.0000 0.24290  0.68900  0.45090  Biso   1.000  H
  C212     1.0000 0.30037  0.71650  0.46140  Biso   1.000  C
  C213     1.0000 0.34462  0.70400  0.49780  Biso   1.000  C
  H101     1.0000 0.36320  0.72650  0.48750  Biso   1.000  H
  C214     1.0000 0.36199  0.65750  0.55030  Biso   1.000  C
  C215     1.0000 0.33343  0.62680  0.56560  Biso   1.000  C
  H102     1.0000 0.34430  0.59840  0.60140  Biso   1.000  H
  C216     1.0000 0.25948  0.60500  0.54670  Biso   1.000  C
  C217     1.0000 0.28330  0.77060  0.40800  Biso   1.000  C
  C218     1.0000 0.40978  0.64490  0.58960  Biso   1.000  C
  C219     1.0000 0.43880  0.69200  0.59170  Biso   1.000  C
  H103     1.0000 0.42880  0.73480  0.56830  Biso   1.000  H
  C220     1.0000 0.48425  0.67970  0.62820  Biso   1.000  C
  C221     1.0000 0.51440  0.73300  0.63190  Biso   1.000  C
  H104     1.0000 0.50460  0.77760  0.61120  Biso   1.000  H
  C222     1.0000 0.55800  0.71810  0.66620  Biso   1.000  C
  H105     1.0000 0.57770  0.75190  0.66710  Biso   1.000  H
  C223     1.0000 0.57359  0.65100  0.70080  Biso   1.000  C
  C224     1.0000 0.54519  0.60470  0.70110  Biso   1.000  C
  H106     1.0000 0.55530  0.56300  0.72600  Biso   1.000  H
  C225     1.0000 0.49975  0.61730  0.66440  Biso   1.000  C
  C226     1.0000 0.46930  0.56560  0.66180  Biso   1.000  C
  H107     1.0000 0.47900  0.52260  0.68490  Biso   1.000  H
  C227     1.0000 0.42540  0.57910  0.62480  Biso   1.000  C
  H108     1.0000 0.40570  0.54470  0.62300  Biso   1.000  H
  C228     1.0000 0.62157  0.63860  0.74110  Biso   1.000  C
  Cd19     1.0000 0.20928  0.12776  0.80717  Biso   1.000  Cd
  Cd20     1.0000 0.31805  0.13958  0.82623  Biso   1.000  Cd
  Cd21     1.0000 0.32280  0.07240  0.95771  Biso   1.000  Cd
  O73      1.0000 0.21725  0.01170  0.77510  Biso   1.000  O
  O74      1.0000 0.28083  0.05260  0.84769  Biso   1.000  O
  O75      1.0000 0.20204  0.74680  0.72400  Biso   1.000  O
  O76      1.0000 0.25850  0.67820  0.74917  Biso   1.000  O
  O77      1.0000 0.62286  0.93340  0.06360  Biso   1.000  O
  O78      1.0000 0.61153  0.84470  0.11330  Biso   1.000  O
  O79      1.0000 0.28122  0.10980  0.99370  Biso   1.000  O
  O80      1.0000 0.22533  0.07540  0.90090  Biso   1.000  O
  O81      1.0000 0.25639  0.27300  0.12969  Biso   1.000  O
  O82      1.0000 0.18866  0.31290  0.09220  Biso   1.000  O
  O83      1.0000 0.86425  0.08670  0.72330  Biso   1.000  O
  O84      1.0000 0.85329  0.18470  0.75900  Biso   1.000  O
  C229     1.0000 0.27676  0.92890  0.81400  Biso   1.000  C
  C230     1.0000 0.25148  0.86950  0.78170  Biso   1.000  C
  H109     1.0000 0.22150  0.87460  0.75700  Biso   1.000  H
  C231     1.0000 0.27073  0.80160  0.78610  Biso   1.000  C
  C232     1.0000 0.31527  0.79500  0.82170  Biso   1.000  C
  H110     1.0000 0.32800  0.75000  0.82350  Biso   1.000  H
  C233     1.0000 0.34149  0.85360  0.85470  Biso   1.000  C
  C234     1.0000 0.32172  0.92050  0.84970  Biso   1.000  C
  H111     1.0000 0.33890  0.96100  0.87060  Biso   1.000  H
  C235     1.0000 0.25653  0.00200  0.81120  Biso   1.000  C
  C236     1.0000 0.24251  0.73740  0.75140  Biso   1.000  C
  C237     1.0000 0.38931  0.84770  0.89580  Biso   1.000  C
  C238     1.0000 0.40727  0.79030  0.93910  Biso   1.000  C
  H112     1.0000 0.38930  0.75430  0.94000  Biso   1.000  H
  C239     1.0000 0.45061  0.78720  0.97970  Biso   1.000  C
  H113     1.0000 0.46190  0.74870  0.00810  Biso   1.000  H
  C240     1.0000 0.47889  0.83980  0.98020  Biso   1.000  C
  C241     1.0000 0.52437  0.83940  0.02370  Biso   1.000  C
  H114     1.0000 0.53610  0.80360  0.05450  Biso   1.000  H
  C242     1.0000 0.55082  0.88970  0.02120  Biso   1.000  C
  C243     1.0000 0.53380  0.94340  0.97530  Biso   1.000  C
  H115     1.0000 0.55230  0.97720  0.97320  Biso   1.000  H
  C244     1.0000 0.48950  0.94730  0.93250  Biso   1.000  C
  H116     1.0000 0.47850  0.98410  0.90260  Biso   1.000  H
  C245     1.0000 0.46141  0.89520  0.93450  Biso   1.000  C
  C246     1.0000 0.41611  0.89860  0.89390  Biso   1.000  C
  H117     1.0000 0.40430  0.93660  0.86520  Biso   1.000  H
  C247     1.0000 0.59853  0.88920  0.06900  Biso   1.000  C
  C248     1.0000 0.21103  0.13790  0.97170  Biso   1.000  C
  C249     1.0000 0.22729  0.18220  0.02380  Biso   1.000  C
  H118     1.0000 0.25710  0.18900  0.04910  Biso   1.000  H
  C250     1.0000 0.19963  0.21650  0.03860  Biso   1.000  C
  C251     1.0000 0.15538  0.20400  0.00220  Biso   1.000  C
  H119     1.0000 0.13680  0.22650  0.01250  Biso   1.000  H
  C252     1.0000 0.13801  0.15750  0.94970  Biso   1.000  C
  C253     1.0000 0.16657  0.12680  0.93440  Biso   1.000  C
  H120     1.0000 0.15570  0.09840  0.89860  Biso   1.000  H
  C254     1.0000 0.24052  0.10500  0.95330  Biso   1.000  C
  C255     1.0000 0.21670  0.27060  0.09200  Biso   1.000  C
  C256     1.0000 0.09022  0.14490  0.91040  Biso   1.000  C
  C257     1.0000 0.06120  0.19200  0.90830  Biso   1.000  C
  H121     1.0000 0.07120  0.23480  0.93170  Biso   1.000  H
  C258     1.0000 0.01575  0.17970  0.87180  Biso   1.000  C
  C259     1.0000 0.98560  0.23300  0.86810  Biso   1.000  C
  H122     1.0000 0.99540  0.27760  0.88880  Biso   1.000  H
  C260     1.0000 0.94200  0.21810  0.83380  Biso   1.000  C
  H123     1.0000 0.92230  0.25190  0.83290  Biso   1.000  H
  C261     1.0000 0.92641  0.15100  0.79920  Biso   1.000  C
  C262     1.0000 0.95481  0.10470  0.79890  Biso   1.000  C
  H124     1.0000 0.94470  0.06300  0.77400  Biso   1.000  H
  C263     1.0000 0.00025  0.11730  0.83560  Biso   1.000  C
  C264     1.0000 0.03070  0.06560  0.83820  Biso   1.000  C
  H125     1.0000 0.02100  0.02260  0.81510  Biso   1.000  H
  C265     1.0000 0.07460  0.07910  0.87520  Biso   1.000  C
  H126     1.0000 0.09430  0.04470  0.87700  Biso   1.000  H
  C266     1.0000 0.87843  0.13860  0.75890  Biso   1.000  C
  Cd22     1.0000 0.70928  0.62776  0.80717  Biso   1.000  Cd
  Cd23     1.0000 0.81805  0.63958  0.82623  Biso   1.000  Cd
  Cd24     1.0000 0.82280  0.57240  0.95771  Biso   1.000  Cd
  O85      1.0000 0.71725  0.51170  0.77510  Biso   1.000  O
  O86      1.0000 0.78083  0.55260  0.84769  Biso   1.000  O
  O87      1.0000 0.70204  0.24680  0.72400  Biso   1.000  O
  O88      1.0000 0.75850  0.17820  0.74917  Biso   1.000  O
  O89      1.0000 0.12286  0.43340  0.06360  Biso   1.000  O
  O90      1.0000 0.11153  0.34470  0.11330  Biso   1.000  O
  O91      1.0000 0.78122  0.60980  0.99370  Biso   1.000  O
  O92      1.0000 0.72533  0.57540  0.90090  Biso   1.000  O
  O93      1.0000 0.75639  0.77300  0.12969  Biso   1.000  O
  O94      1.0000 0.68866  0.81290  0.09220  Biso   1.000  O
  O95      1.0000 0.36425  0.58670  0.72330  Biso   1.000  O
  O96      1.0000 0.35329  0.68470  0.75900  Biso   1.000  O
  C267     1.0000 0.77676  0.42890  0.81400  Biso   1.000  C
  C268     1.0000 0.75148  0.36950  0.78170  Biso   1.000  C
  H127     1.0000 0.72150  0.37460  0.75700  Biso   1.000  H
  C269     1.0000 0.77073  0.30160  0.78610  Biso   1.000  C
  C270     1.0000 0.81527  0.29500  0.82170  Biso   1.000  C
  H128     1.0000 0.82800  0.25000  0.82350  Biso   1.000  H
  C271     1.0000 0.84149  0.35360  0.85470  Biso   1.000  C
  C272     1.0000 0.82172  0.42050  0.84970  Biso   1.000  C
  H129     1.0000 0.83890  0.46100  0.87060  Biso   1.000  H
  C273     1.0000 0.75653  0.50200  0.81120  Biso   1.000  C
  C274     1.0000 0.74251  0.23740  0.75140  Biso   1.000  C
  C275     1.0000 0.88931  0.34770  0.89580  Biso   1.000  C
  C276     1.0000 0.90727  0.29030  0.93910  Biso   1.000  C
  H130     1.0000 0.88930  0.25430  0.94000  Biso   1.000  H
  C277     1.0000 0.95061  0.28720  0.97970  Biso   1.000  C
  H131     1.0000 0.96190  0.24870  0.00810  Biso   1.000  H
  C278     1.0000 0.97889  0.33980  0.98020  Biso   1.000  C
  C279     1.0000 0.02437  0.33940  0.02370  Biso   1.000  C
  H132     1.0000 0.03610  0.30360  0.05450  Biso   1.000  H
  C280     1.0000 0.05082  0.38970  0.02120  Biso   1.000  C
  C281     1.0000 0.03380  0.44340  0.97530  Biso   1.000  C
  H133     1.0000 0.05230  0.47720  0.97320  Biso   1.000  H
  C282     1.0000 0.98950  0.44730  0.93250  Biso   1.000  C
  H134     1.0000 0.97850  0.48410  0.90260  Biso   1.000  H
  C283     1.0000 0.96141  0.39520  0.93450  Biso   1.000  C
  C284     1.0000 0.91611  0.39860  0.89390  Biso   1.000  C
  H135     1.0000 0.90430  0.43660  0.86520  Biso   1.000  H
  C285     1.0000 0.09853  0.38920  0.06900  Biso   1.000  C
  C286     1.0000 0.71103  0.63790  0.97170  Biso   1.000  C
  C287     1.0000 0.72729  0.68220  0.02380  Biso   1.000  C
  H136     1.0000 0.75710  0.68900  0.04910  Biso   1.000  H
  C288     1.0000 0.69963  0.71650  0.03860  Biso   1.000  C
  C289     1.0000 0.65538  0.70400  0.00220  Biso   1.000  C
  H137     1.0000 0.63680  0.72650  0.01250  Biso   1.000  H
  C290     1.0000 0.63801  0.65750  0.94970  Biso   1.000  C
  C291     1.0000 0.66657  0.62680  0.93440  Biso   1.000  C
  H138     1.0000 0.65570  0.59840  0.89860  Biso   1.000  H
  C292     1.0000 0.74052  0.60500  0.95330  Biso   1.000  C
  C293     1.0000 0.71670  0.77060  0.09200  Biso   1.000  C
  C294     1.0000 0.59022  0.64490  0.91040  Biso   1.000  C
  C295     1.0000 0.56120  0.69200  0.90830  Biso   1.000  C
  H139     1.0000 0.57120  0.73480  0.93170  Biso   1.000  H
  C296     1.0000 0.51575  0.67970  0.87180  Biso   1.000  C
  C297     1.0000 0.48560  0.73300  0.86810  Biso   1.000  C
  H140     1.0000 0.49540  0.77760  0.88880  Biso   1.000  H
  C298     1.0000 0.44200  0.71810  0.83380  Biso   1.000  C
  H141     1.0000 0.42230  0.75190  0.83290  Biso   1.000  H
  C299     1.0000 0.42641  0.65100  0.79920  Biso   1.000  C
  C300     1.0000 0.45481  0.60470  0.79890  Biso   1.000  C
  H142     1.0000 0.44470  0.56300  0.77400  Biso   1.000  H
  C301     1.0000 0.50025  0.61730  0.83560  Biso   1.000  C
  C302     1.0000 0.53070  0.56560  0.83820  Biso   1.000  C
  H143     1.0000 0.52100  0.52260  0.81510  Biso   1.000  H
  C303     1.0000 0.57460  0.57910  0.87520  Biso   1.000  C
  H144     1.0000 0.59430  0.54470  0.87700  Biso   1.000  H
  C304     1.0000 0.37843  0.63860  0.75890  Biso   1.000  C
