data_image0
_cell_length_a       9.271
_cell_length_b       19.781
_cell_length_c       27.045
_cell_angle_alpha    90
_cell_angle_beta     90
_cell_angle_gamma    90

_symmetry_space_group_name_H-M    "P 1"
_symmetry_int_tables_number       1

loop_
  _symmetry_equiv_pos_as_xyz
  'x, y, z'

loop_
  _atom_site_label
  _atom_site_occupancy
  _atom_site_fract_x
  _atom_site_fract_y
  _atom_site_fract_z
  _atom_site_thermal_displace_type
  _atom_site_B_iso_or_equiv
  _atom_site_type_symbol
  P1       1.0000 0.02270  0.25325  0.59284  Biso   1.000  P
  P2       1.0000 0.34430  0.10703  0.47842  Biso   1.000  P
  O1       1.0000 0.10390  0.21130  0.55483  Biso   1.000  O
  O2       1.0000 0.31830  0.18110  0.46694  Biso   1.000  O
  O3       1.0000 0.90240  0.21180  0.61622  Biso   1.000  O
  O4       1.0000 0.45760  0.08000  0.44440  Biso   1.000  O
  O5       1.0000 0.95530  0.31650  0.56860  Biso   1.000  O
  O6       1.0000 0.13010  0.27710  0.63350  Biso   1.000  O
  H1       1.0000 0.08700  0.30000  0.65400  Biso   1.000  H
  O7       1.0000 0.37850  0.09600  0.53370  Biso   1.000  O
  O8       1.0000 0.19820  0.06560  0.47160  Biso   1.000  O
  H2       1.0000 0.17010  0.06920  0.44300  Biso   1.000  H
  P3       1.0000 0.02270  0.75325  0.09284  Biso   1.000  P
  P4       1.0000 0.34430  0.60703  0.97842  Biso   1.000  P
  O9       1.0000 0.10390  0.71130  0.05483  Biso   1.000  O
  O10      1.0000 0.31830  0.68110  0.96694  Biso   1.000  O
  O11      1.0000 0.90240  0.71180  0.11622  Biso   1.000  O
  O12      1.0000 0.45760  0.58000  0.94440  Biso   1.000  O
  O13      1.0000 0.95530  0.81650  0.06860  Biso   1.000  O
  O14      1.0000 0.13010  0.77710  0.13350  Biso   1.000  O
  H3       1.0000 0.08700  0.80000  0.15400  Biso   1.000  H
  O15      1.0000 0.37850  0.59600  0.03370  Biso   1.000  O
  O16      1.0000 0.19820  0.56560  0.97160  Biso   1.000  O
  H4       1.0000 0.17010  0.56920  0.94300  Biso   1.000  H
  P5       1.0000 0.52270  0.25325  0.09284  Biso   1.000  P
  P6       1.0000 0.84430  0.10703  0.97842  Biso   1.000  P
  O17      1.0000 0.60390  0.21130  0.05483  Biso   1.000  O
  O18      1.0000 0.81830  0.18110  0.96694  Biso   1.000  O
  O19      1.0000 0.40240  0.21180  0.11622  Biso   1.000  O
  O20      1.0000 0.95760  0.08000  0.94440  Biso   1.000  O
  O21      1.0000 0.45530  0.31650  0.06860  Biso   1.000  O
  O22      1.0000 0.63010  0.27710  0.13350  Biso   1.000  O
  H5       1.0000 0.58700  0.30000  0.15400  Biso   1.000  H
  O23      1.0000 0.87850  0.09600  0.03370  Biso   1.000  O
  O24      1.0000 0.69820  0.06560  0.97160  Biso   1.000  O
  H6       1.0000 0.67010  0.06920  0.94300  Biso   1.000  H
  P7       1.0000 0.52270  0.75325  0.59284  Biso   1.000  P
  P8       1.0000 0.84430  0.60703  0.47842  Biso   1.000  P
  O25      1.0000 0.60390  0.71130  0.55483  Biso   1.000  O
  O26      1.0000 0.81830  0.68110  0.46694  Biso   1.000  O
  O27      1.0000 0.40240  0.71180  0.61622  Biso   1.000  O
  O28      1.0000 0.95760  0.58000  0.44440  Biso   1.000  O
  O29      1.0000 0.45530  0.81650  0.56860  Biso   1.000  O
  O30      1.0000 0.63010  0.77710  0.63350  Biso   1.000  O
  H7       1.0000 0.58700  0.80000  0.65400  Biso   1.000  H
  O31      1.0000 0.87850  0.59600  0.53370  Biso   1.000  O
  O32      1.0000 0.69820  0.56560  0.47160  Biso   1.000  O
  H8       1.0000 0.67010  0.56920  0.44300  Biso   1.000  H
  P9       1.0000 0.97730  0.74675  0.59284  Biso   1.000  P
  P10      1.0000 0.65570  0.89297  0.47842  Biso   1.000  P
  O33      1.0000 0.89610  0.78870  0.55483  Biso   1.000  O
  O34      1.0000 0.68170  0.81890  0.46694  Biso   1.000  O
  O35      1.0000 0.09760  0.78820  0.61622  Biso   1.000  O
  O36      1.0000 0.54240  0.92000  0.44440  Biso   1.000  O
  O37      1.0000 0.04470  0.68350  0.56860  Biso   1.000  O
  O38      1.0000 0.86990  0.72290  0.63350  Biso   1.000  O
  H9       1.0000 0.91300  0.70000  0.65400  Biso   1.000  H
  O39      1.0000 0.62150  0.90400  0.53370  Biso   1.000  O
  O40      1.0000 0.80180  0.93440  0.47160  Biso   1.000  O
  H10      1.0000 0.82990  0.93080  0.44300  Biso   1.000  H
  P11      1.0000 0.97730  0.24675  0.09284  Biso   1.000  P
  P12      1.0000 0.65570  0.39297  0.97842  Biso   1.000  P
  O41      1.0000 0.89610  0.28870  0.05483  Biso   1.000  O
  O42      1.0000 0.68170  0.31890  0.96694  Biso   1.000  O
  O43      1.0000 0.09760  0.28820  0.11622  Biso   1.000  O
  O44      1.0000 0.54240  0.42000  0.94440  Biso   1.000  O
  O45      1.0000 0.04470  0.18350  0.06860  Biso   1.000  O
  O46      1.0000 0.86990  0.22290  0.13350  Biso   1.000  O
  H11      1.0000 0.91300  0.20000  0.15400  Biso   1.000  H
  O47      1.0000 0.62150  0.40400  0.03370  Biso   1.000  O
  O48      1.0000 0.80180  0.43440  0.97160  Biso   1.000  O
  H12      1.0000 0.82990  0.43080  0.94300  Biso   1.000  H
  P13      1.0000 0.47730  0.74675  0.09284  Biso   1.000  P
  P14      1.0000 0.15570  0.89297  0.97842  Biso   1.000  P
  O49      1.0000 0.39610  0.78870  0.05483  Biso   1.000  O
  O50      1.0000 0.18170  0.81890  0.96694  Biso   1.000  O
  O51      1.0000 0.59760  0.78820  0.11622  Biso   1.000  O
  O52      1.0000 0.04240  0.92000  0.94440  Biso   1.000  O
  O53      1.0000 0.54470  0.68350  0.06860  Biso   1.000  O
  O54      1.0000 0.36990  0.72290  0.13350  Biso   1.000  O
  H13      1.0000 0.41300  0.70000  0.15400  Biso   1.000  H
  O55      1.0000 0.12150  0.90400  0.03370  Biso   1.000  O
  O56      1.0000 0.30180  0.93440  0.97160  Biso   1.000  O
  H14      1.0000 0.32990  0.93080  0.94300  Biso   1.000  H
  P15      1.0000 0.47730  0.24675  0.59284  Biso   1.000  P
  P16      1.0000 0.15570  0.39297  0.47842  Biso   1.000  P
  O57      1.0000 0.39610  0.28870  0.55483  Biso   1.000  O
  O58      1.0000 0.18170  0.31890  0.46694  Biso   1.000  O
  O59      1.0000 0.59760  0.28820  0.61622  Biso   1.000  O
  O60      1.0000 0.04240  0.42000  0.44440  Biso   1.000  O
  O61      1.0000 0.54470  0.18350  0.56860  Biso   1.000  O
  O62      1.0000 0.36990  0.22290  0.63350  Biso   1.000  O
  H15      1.0000 0.41300  0.20000  0.65400  Biso   1.000  H
  O63      1.0000 0.12150  0.40400  0.53370  Biso   1.000  O
  O64      1.0000 0.30180  0.43440  0.47160  Biso   1.000  O
  H16      1.0000 0.32990  0.43080  0.44300  Biso   1.000  H
  P17      1.0000 0.27270  0.99675  0.84284  Biso   1.000  P
  P18      1.0000 0.59430  0.14297  0.72842  Biso   1.000  P
  O65      1.0000 0.35390  0.03870  0.80483  Biso   1.000  O
  O66      1.0000 0.56830  0.06890  0.71694  Biso   1.000  O
  O67      1.0000 0.15240  0.03820  0.86622  Biso   1.000  O
  O68      1.0000 0.70760  0.17000  0.69440  Biso   1.000  O
  O69      1.0000 0.20530  0.93350  0.81860  Biso   1.000  O
  O70      1.0000 0.38010  0.97290  0.88350  Biso   1.000  O
  H17      1.0000 0.33700  0.95000  0.90400  Biso   1.000  H
  O71      1.0000 0.62850  0.15400  0.78370  Biso   1.000  O
  O72      1.0000 0.44820  0.18440  0.72160  Biso   1.000  O
  H18      1.0000 0.42010  0.18080  0.69300  Biso   1.000  H
  P19      1.0000 0.27270  0.49675  0.34284  Biso   1.000  P
  P20      1.0000 0.59430  0.64297  0.22842  Biso   1.000  P
  O73      1.0000 0.35390  0.53870  0.30483  Biso   1.000  O
  O74      1.0000 0.56830  0.56890  0.21694  Biso   1.000  O
  O75      1.0000 0.15240  0.53820  0.36622  Biso   1.000  O
  O76      1.0000 0.70760  0.67000  0.19440  Biso   1.000  O
  O77      1.0000 0.20530  0.43350  0.31860  Biso   1.000  O
  O78      1.0000 0.38010  0.47290  0.38350  Biso   1.000  O
  H19      1.0000 0.33700  0.45000  0.40400  Biso   1.000  H
  O79      1.0000 0.62850  0.65400  0.28370  Biso   1.000  O
  O80      1.0000 0.44820  0.68440  0.22160  Biso   1.000  O
  H20      1.0000 0.42010  0.68080  0.19300  Biso   1.000  H
  P21      1.0000 0.77270  0.99675  0.34284  Biso   1.000  P
  P22      1.0000 0.09430  0.14297  0.22842  Biso   1.000  P
  O81      1.0000 0.85390  0.03870  0.30483  Biso   1.000  O
  O82      1.0000 0.06830  0.06890  0.21694  Biso   1.000  O
  O83      1.0000 0.65240  0.03820  0.36622  Biso   1.000  O
  O84      1.0000 0.20760  0.17000  0.19440  Biso   1.000  O
  O85      1.0000 0.70530  0.93350  0.31860  Biso   1.000  O
  O86      1.0000 0.88010  0.97290  0.38350  Biso   1.000  O
  H21      1.0000 0.83700  0.95000  0.40400  Biso   1.000  H
  O87      1.0000 0.12850  0.15400  0.28370  Biso   1.000  O
  O88      1.0000 0.94820  0.18440  0.22160  Biso   1.000  O
  H22      1.0000 0.92010  0.18080  0.19300  Biso   1.000  H
  P23      1.0000 0.77270  0.49675  0.84284  Biso   1.000  P
  P24      1.0000 0.09430  0.64297  0.72842  Biso   1.000  P
  O89      1.0000 0.85390  0.53870  0.80483  Biso   1.000  O
  O90      1.0000 0.06830  0.56890  0.71694  Biso   1.000  O
  O91      1.0000 0.65240  0.53820  0.86622  Biso   1.000  O
  O92      1.0000 0.20760  0.67000  0.69440  Biso   1.000  O
  O93      1.0000 0.70530  0.43350  0.81860  Biso   1.000  O
  O94      1.0000 0.88010  0.47290  0.88350  Biso   1.000  O
  H23      1.0000 0.83700  0.45000  0.90400  Biso   1.000  H
  O95      1.0000 0.12850  0.65400  0.78370  Biso   1.000  O
  O96      1.0000 0.94820  0.68440  0.72160  Biso   1.000  O
  H24      1.0000 0.92010  0.68080  0.69300  Biso   1.000  H
  P25      1.0000 0.22730  0.50325  0.84284  Biso   1.000  P
  P26      1.0000 0.90570  0.35703  0.72842  Biso   1.000  P
  O97      1.0000 0.14610  0.46130  0.80483  Biso   1.000  O
  O98      1.0000 0.93170  0.43110  0.71694  Biso   1.000  O
  O99      1.0000 0.34760  0.46180  0.86622  Biso   1.000  O
  O100     1.0000 0.79240  0.33000  0.69440  Biso   1.000  O
  O101     1.0000 0.29470  0.56650  0.81860  Biso   1.000  O
  O102     1.0000 0.11990  0.52710  0.88350  Biso   1.000  O
  H25      1.0000 0.16300  0.55000  0.90400  Biso   1.000  H
  O103     1.0000 0.87150  0.34600  0.78370  Biso   1.000  O
  O104     1.0000 0.05180  0.31560  0.72160  Biso   1.000  O
  H26      1.0000 0.07990  0.31920  0.69300  Biso   1.000  H
  P27      1.0000 0.22730  0.00325  0.34284  Biso   1.000  P
  P28      1.0000 0.90570  0.85703  0.22842  Biso   1.000  P
  O105     1.0000 0.14610  0.96130  0.30483  Biso   1.000  O
  O106     1.0000 0.93170  0.93110  0.21694  Biso   1.000  O
  O107     1.0000 0.34760  0.96180  0.36622  Biso   1.000  O
  O108     1.0000 0.79240  0.83000  0.19440  Biso   1.000  O
  O109     1.0000 0.29470  0.06650  0.31860  Biso   1.000  O
  O110     1.0000 0.11990  0.02710  0.38350  Biso   1.000  O
  H27      1.0000 0.16300  0.05000  0.40400  Biso   1.000  H
  O111     1.0000 0.87150  0.84600  0.28370  Biso   1.000  O
  O112     1.0000 0.05180  0.81560  0.22160  Biso   1.000  O
  H28      1.0000 0.07990  0.81920  0.19300  Biso   1.000  H
  P29      1.0000 0.72730  0.50325  0.34284  Biso   1.000  P
  P30      1.0000 0.40570  0.35703  0.22842  Biso   1.000  P
  O113     1.0000 0.64610  0.46130  0.30483  Biso   1.000  O
  O114     1.0000 0.43170  0.43110  0.21694  Biso   1.000  O
  O115     1.0000 0.84760  0.46180  0.36622  Biso   1.000  O
  O116     1.0000 0.29240  0.33000  0.19440  Biso   1.000  O
  O117     1.0000 0.79470  0.56650  0.31860  Biso   1.000  O
  O118     1.0000 0.61990  0.52710  0.38350  Biso   1.000  O
  H29      1.0000 0.66300  0.55000  0.40400  Biso   1.000  H
  O119     1.0000 0.37150  0.34600  0.28370  Biso   1.000  O
  O120     1.0000 0.55180  0.31560  0.22160  Biso   1.000  O
  H30      1.0000 0.57990  0.31920  0.19300  Biso   1.000  H
  P31      1.0000 0.72730  0.00325  0.84284  Biso   1.000  P
  P32      1.0000 0.40570  0.85703  0.72842  Biso   1.000  P
  O121     1.0000 0.64610  0.96130  0.80483  Biso   1.000  O
  O122     1.0000 0.43170  0.93110  0.71694  Biso   1.000  O
  O123     1.0000 0.84760  0.96180  0.86622  Biso   1.000  O
  O124     1.0000 0.29240  0.83000  0.69440  Biso   1.000  O
  O125     1.0000 0.79470  0.06650  0.81860  Biso   1.000  O
  O126     1.0000 0.61990  0.02710  0.88350  Biso   1.000  O
  H31      1.0000 0.66300  0.05000  0.90400  Biso   1.000  H
  O127     1.0000 0.37150  0.84600  0.78370  Biso   1.000  O
  O128     1.0000 0.55180  0.81560  0.72160  Biso   1.000  O
  H32      1.0000 0.57990  0.81920  0.69300  Biso   1.000  H
  Zn1      1.0000 0.25000  0.25000  0.51073  Biso   1.000  Zn
  Zn2      1.0000 0.25000  0.75000  0.01073  Biso   1.000  Zn
  Zn3      1.0000 0.75000  0.75000  0.51073  Biso   1.000  Zn
  Zn4      1.0000 0.75000  0.25000  0.01073  Biso   1.000  Zn
  Zn5      1.0000 0.50000  0.00000  0.76073  Biso   1.000  Zn
  Zn6      1.0000 0.50000  0.50000  0.26073  Biso   1.000  Zn
  Zn7      1.0000 0.00000  0.50000  0.76073  Biso   1.000  Zn
  Zn8      1.0000 0.00000  0.00000  0.26073  Biso   1.000  Zn
  Zn9      1.0000 0.75000  0.25000  0.65647  Biso   1.000  Zn
  Zn10     1.0000 0.75000  0.75000  0.15647  Biso   1.000  Zn
  Zn11     1.0000 0.25000  0.25000  0.15647  Biso   1.000  Zn
  Zn12     1.0000 0.25000  0.75000  0.65647  Biso   1.000  Zn
  Zn13     1.0000 0.00000  0.00000  0.90647  Biso   1.000  Zn
  Zn14     1.0000 0.00000  0.50000  0.40647  Biso   1.000  Zn
  Zn15     1.0000 0.50000  0.50000  0.90647  Biso   1.000  Zn
  Zn16     1.0000 0.50000  0.00000  0.40647  Biso   1.000  Zn
