data_image0
_cell_length_a       19.108
_cell_length_b       28.704
_cell_length_c       13.646
_cell_angle_alpha    90
_cell_angle_beta     99.582
_cell_angle_gamma    90

_symmetry_space_group_name_H-M    "P 1"
_symmetry_int_tables_number       1

loop_
  _symmetry_equiv_pos_as_xyz
  'x, y, z'

loop_
  _atom_site_label
  _atom_site_occupancy
  _atom_site_fract_x
  _atom_site_fract_y
  _atom_site_fract_z
  _atom_site_thermal_displace_type
  _atom_site_B_iso_or_equiv
  _atom_site_type_symbol
  Zn1      1.0000 0.19707  0.31411  0.60688  Biso   1.000  Zn
  O1       1.0000 0.88510  0.20100  0.79320  Biso   1.000  O
  O2       1.0000 0.90590  0.36862  0.16530  Biso   1.000  O
  O3       1.0000 0.12940  0.29590  0.45060  Biso   1.000  O
  O4       1.0000 0.19170  0.35740  0.48370  Biso   1.000  O
  O5       1.0000 0.24150  0.45120  0.20090  Biso   1.000  O
  O6       1.0000 0.17290  0.44650  0.05620  Biso   1.000  O
  O7       1.0000 0.16190  0.26410  0.68220  Biso   1.000  O
  O8       1.0000 0.17960  0.19620  0.60770  Biso   1.000  O
  O9       1.0000 0.11090  0.05283  0.79910  Biso   1.000  O
  O10      1.0000 0.10170  0.07050  0.95270  Biso   1.000  O
  N1       1.0000 0.97950  0.23110  0.89590  Biso   1.000  N
  N2       1.0000 0.90150  0.28160  0.98240  Biso   1.000  N
  N3       1.0000 0.99080  0.32572  0.10100  Biso   1.000  N
  C1       1.0000 0.91160  0.22610  0.85950  Biso   1.000  C
  C2       1.0000 0.86460  0.25660  0.90890  Biso   1.000  C
  C3       1.0000 0.79260  0.26400  0.88130  Biso   1.000  C
  H1       1.0000 0.76660  0.24780  0.82830  Biso   1.000  H
  C4       1.0000 0.75980  0.29680  0.93600  Biso   1.000  C
  H2       1.0000 0.71130  0.30230  0.91930  Biso   1.000  H
  C5       1.0000 0.79910  0.32090  0.01420  Biso   1.000  C
  H3       1.0000 0.77770  0.34170  0.05220  Biso   1.000  H
  C6       1.0000 0.87110  0.31288  0.03370  Biso   1.000  C
  C7       1.0000 0.92380  0.33800  0.10720  Biso   1.000  C
  C8       1.0000 0.04920  0.34670  0.16410  Biso   1.000  C
  C9       1.0000 0.08830  0.38080  0.12860  Biso   1.000  C
  H4       1.0000 0.07400  0.39240  0.06480  Biso   1.000  H
  C10      1.0000 0.14810  0.39820  0.18580  Biso   1.000  C
  C11      1.0000 0.16790  0.38290  0.28140  Biso   1.000  C
  H5       1.0000 0.20770  0.39550  0.32110  Biso   1.000  H
  C12      1.0000 0.12880  0.34860  0.31920  Biso   1.000  C
  C13      1.0000 0.06950  0.33000  0.26040  Biso   1.000  C
  H6       1.0000 0.04350  0.30670  0.28490  Biso   1.000  H
  C14      1.0000 0.19560  0.43450  0.14510  Biso   1.000  C
  C15      1.0000 0.15110  0.33240  0.42440  Biso   1.000  C
  C16      1.0000 0.02990  0.20421  0.85470  Biso   1.000  C
  C17      1.0000 0.06740  0.22330  0.78730  Biso   1.000  C
  H7       1.0000 0.06110  0.25480  0.77200  Biso   1.000  H
  C18      1.0000 0.11350  0.19820  0.74150  Biso   1.000  C
  C19      1.0000 0.12250  0.15080  0.76470  Biso   1.000  C
  H8       1.0000 0.15180  0.13260  0.73230  Biso   1.000  H
  C20      1.0000 0.08770  0.13100  0.83570  Biso   1.000  C
  C21      1.0000 0.04140  0.15800  0.88190  Biso   1.000  C
  H9       1.0000 0.01860  0.14500  0.93040  Biso   1.000  H
  C22      1.0000 0.15490  0.22070  0.67090  Biso   1.000  C
  C23      1.0000 0.10140  0.08150  0.86610  Biso   1.000  C
  Zn2      1.0000 0.69707  0.81411  0.60688  Biso   1.000  Zn
  O11      1.0000 0.38510  0.70100  0.79320  Biso   1.000  O
  O12      1.0000 0.40590  0.86862  0.16530  Biso   1.000  O
  O13      1.0000 0.62940  0.79590  0.45060  Biso   1.000  O
  O14      1.0000 0.69170  0.85740  0.48370  Biso   1.000  O
  O15      1.0000 0.74150  0.95120  0.20090  Biso   1.000  O
  O16      1.0000 0.67290  0.94650  0.05620  Biso   1.000  O
  O17      1.0000 0.66190  0.76410  0.68220  Biso   1.000  O
  O18      1.0000 0.67960  0.69620  0.60770  Biso   1.000  O
  O19      1.0000 0.61090  0.55283  0.79910  Biso   1.000  O
  O20      1.0000 0.60170  0.57050  0.95270  Biso   1.000  O
  N4       1.0000 0.47950  0.73110  0.89590  Biso   1.000  N
  N5       1.0000 0.40150  0.78160  0.98240  Biso   1.000  N
  N6       1.0000 0.49080  0.82572  0.10100  Biso   1.000  N
  C24      1.0000 0.41160  0.72610  0.85950  Biso   1.000  C
  C25      1.0000 0.36460  0.75660  0.90890  Biso   1.000  C
  C26      1.0000 0.29260  0.76400  0.88130  Biso   1.000  C
  H10      1.0000 0.26660  0.74780  0.82830  Biso   1.000  H
  C27      1.0000 0.25980  0.79680  0.93600  Biso   1.000  C
  H11      1.0000 0.21130  0.80230  0.91930  Biso   1.000  H
  C28      1.0000 0.29910  0.82090  0.01420  Biso   1.000  C
  H12      1.0000 0.27770  0.84170  0.05220  Biso   1.000  H
  C29      1.0000 0.37110  0.81288  0.03370  Biso   1.000  C
  C30      1.0000 0.42380  0.83800  0.10720  Biso   1.000  C
  C31      1.0000 0.54920  0.84670  0.16410  Biso   1.000  C
  C32      1.0000 0.58830  0.88080  0.12860  Biso   1.000  C
  H13      1.0000 0.57400  0.89240  0.06480  Biso   1.000  H
  C33      1.0000 0.64810  0.89820  0.18580  Biso   1.000  C
  C34      1.0000 0.66790  0.88290  0.28140  Biso   1.000  C
  H14      1.0000 0.70770  0.89550  0.32110  Biso   1.000  H
  C35      1.0000 0.62880  0.84860  0.31920  Biso   1.000  C
  C36      1.0000 0.56950  0.83000  0.26040  Biso   1.000  C
  H15      1.0000 0.54350  0.80670  0.28490  Biso   1.000  H
  C37      1.0000 0.69560  0.93450  0.14510  Biso   1.000  C
  C38      1.0000 0.65110  0.83240  0.42440  Biso   1.000  C
  C39      1.0000 0.52990  0.70421  0.85470  Biso   1.000  C
  C40      1.0000 0.56740  0.72330  0.78730  Biso   1.000  C
  H16      1.0000 0.56110  0.75480  0.77200  Biso   1.000  H
  C41      1.0000 0.61350  0.69820  0.74150  Biso   1.000  C
  C42      1.0000 0.62250  0.65080  0.76470  Biso   1.000  C
  H17      1.0000 0.65180  0.63260  0.73230  Biso   1.000  H
  C43      1.0000 0.58770  0.63100  0.83570  Biso   1.000  C
  C44      1.0000 0.54140  0.65800  0.88190  Biso   1.000  C
  H18      1.0000 0.51860  0.64500  0.93040  Biso   1.000  H
  C45      1.0000 0.65490  0.72070  0.67090  Biso   1.000  C
  C46      1.0000 0.60140  0.58150  0.86610  Biso   1.000  C
  Zn3      1.0000 0.80293  0.31411  0.39312  Biso   1.000  Zn
  O21      1.0000 0.11490  0.20100  0.20680  Biso   1.000  O
  O22      1.0000 0.09410  0.36862  0.83470  Biso   1.000  O
  O23      1.0000 0.87060  0.29590  0.54940  Biso   1.000  O
  O24      1.0000 0.80830  0.35740  0.51630  Biso   1.000  O
  O25      1.0000 0.75850  0.45120  0.79910  Biso   1.000  O
  O26      1.0000 0.82710  0.44650  0.94380  Biso   1.000  O
  O27      1.0000 0.83810  0.26410  0.31780  Biso   1.000  O
  O28      1.0000 0.82040  0.19620  0.39230  Biso   1.000  O
  O29      1.0000 0.88910  0.05283  0.20090  Biso   1.000  O
  O30      1.0000 0.89830  0.07050  0.04730  Biso   1.000  O
  N7       1.0000 0.02050  0.23110  0.10410  Biso   1.000  N
  N8       1.0000 0.09850  0.28160  0.01760  Biso   1.000  N
  N9       1.0000 0.00920  0.32572  0.89900  Biso   1.000  N
  C47      1.0000 0.08840  0.22610  0.14050  Biso   1.000  C
  C48      1.0000 0.13540  0.25660  0.09110  Biso   1.000  C
  C49      1.0000 0.20740  0.26400  0.11870  Biso   1.000  C
  H19      1.0000 0.23340  0.24780  0.17170  Biso   1.000  H
  C50      1.0000 0.24020  0.29680  0.06400  Biso   1.000  C
  H20      1.0000 0.28870  0.30230  0.08070  Biso   1.000  H
  C51      1.0000 0.20090  0.32090  0.98580  Biso   1.000  C
  H21      1.0000 0.22230  0.34170  0.94780  Biso   1.000  H
  C52      1.0000 0.12890  0.31288  0.96630  Biso   1.000  C
  C53      1.0000 0.07620  0.33800  0.89280  Biso   1.000  C
  C54      1.0000 0.95080  0.34670  0.83590  Biso   1.000  C
  C55      1.0000 0.91170  0.38080  0.87140  Biso   1.000  C
  H22      1.0000 0.92600  0.39240  0.93520  Biso   1.000  H
  C56      1.0000 0.85190  0.39820  0.81420  Biso   1.000  C
  C57      1.0000 0.83210  0.38290  0.71860  Biso   1.000  C
  H23      1.0000 0.79230  0.39550  0.67890  Biso   1.000  H
  C58      1.0000 0.87120  0.34860  0.68080  Biso   1.000  C
  C59      1.0000 0.93050  0.33000  0.73960  Biso   1.000  C
  H24      1.0000 0.95650  0.30670  0.71510  Biso   1.000  H
  C60      1.0000 0.80440  0.43450  0.85490  Biso   1.000  C
  C61      1.0000 0.84890  0.33240  0.57560  Biso   1.000  C
  C62      1.0000 0.97010  0.20421  0.14530  Biso   1.000  C
  C63      1.0000 0.93260  0.22330  0.21270  Biso   1.000  C
  H25      1.0000 0.93890  0.25480  0.22800  Biso   1.000  H
  C64      1.0000 0.88650  0.19820  0.25850  Biso   1.000  C
  C65      1.0000 0.87750  0.15080  0.23530  Biso   1.000  C
  H26      1.0000 0.84820  0.13260  0.26770  Biso   1.000  H
  C66      1.0000 0.91230  0.13100  0.16430  Biso   1.000  C
  C67      1.0000 0.95860  0.15800  0.11810  Biso   1.000  C
  H27      1.0000 0.98140  0.14500  0.06960  Biso   1.000  H
  C68      1.0000 0.84510  0.22070  0.32910  Biso   1.000  C
  C69      1.0000 0.89860  0.08150  0.13390  Biso   1.000  C
  Zn4      1.0000 0.30293  0.81411  0.39312  Biso   1.000  Zn
  O31      1.0000 0.61490  0.70100  0.20680  Biso   1.000  O
  O32      1.0000 0.59410  0.86862  0.83470  Biso   1.000  O
  O33      1.0000 0.37060  0.79590  0.54940  Biso   1.000  O
  O34      1.0000 0.30830  0.85740  0.51630  Biso   1.000  O
  O35      1.0000 0.25850  0.95120  0.79910  Biso   1.000  O
  O36      1.0000 0.32710  0.94650  0.94380  Biso   1.000  O
  O37      1.0000 0.33810  0.76410  0.31780  Biso   1.000  O
  O38      1.0000 0.32040  0.69620  0.39230  Biso   1.000  O
  O39      1.0000 0.38910  0.55283  0.20090  Biso   1.000  O
  O40      1.0000 0.39830  0.57050  0.04730  Biso   1.000  O
  N10      1.0000 0.52050  0.73110  0.10410  Biso   1.000  N
  N11      1.0000 0.59850  0.78160  0.01760  Biso   1.000  N
  N12      1.0000 0.50920  0.82572  0.89900  Biso   1.000  N
  C70      1.0000 0.58840  0.72610  0.14050  Biso   1.000  C
  C71      1.0000 0.63540  0.75660  0.09110  Biso   1.000  C
  C72      1.0000 0.70740  0.76400  0.11870  Biso   1.000  C
  H28      1.0000 0.73340  0.74780  0.17170  Biso   1.000  H
  C73      1.0000 0.74020  0.79680  0.06400  Biso   1.000  C
  H29      1.0000 0.78870  0.80230  0.08070  Biso   1.000  H
  C74      1.0000 0.70090  0.82090  0.98580  Biso   1.000  C
  H30      1.0000 0.72230  0.84170  0.94780  Biso   1.000  H
  C75      1.0000 0.62890  0.81288  0.96630  Biso   1.000  C
  C76      1.0000 0.57620  0.83800  0.89280  Biso   1.000  C
  C77      1.0000 0.45080  0.84670  0.83590  Biso   1.000  C
  C78      1.0000 0.41170  0.88080  0.87140  Biso   1.000  C
  H31      1.0000 0.42600  0.89240  0.93520  Biso   1.000  H
  C79      1.0000 0.35190  0.89820  0.81420  Biso   1.000  C
  C80      1.0000 0.33210  0.88290  0.71860  Biso   1.000  C
  H32      1.0000 0.29230  0.89550  0.67890  Biso   1.000  H
  C81      1.0000 0.37120  0.84860  0.68080  Biso   1.000  C
  C82      1.0000 0.43050  0.83000  0.73960  Biso   1.000  C
  H33      1.0000 0.45650  0.80670  0.71510  Biso   1.000  H
  C83      1.0000 0.30440  0.93450  0.85490  Biso   1.000  C
  C84      1.0000 0.34890  0.83240  0.57560  Biso   1.000  C
  C85      1.0000 0.47010  0.70421  0.14530  Biso   1.000  C
  C86      1.0000 0.43260  0.72330  0.21270  Biso   1.000  C
  H34      1.0000 0.43890  0.75480  0.22800  Biso   1.000  H
  C87      1.0000 0.38650  0.69820  0.25850  Biso   1.000  C
  C88      1.0000 0.37750  0.65080  0.23530  Biso   1.000  C
  H35      1.0000 0.34820  0.63260  0.26770  Biso   1.000  H
  C89      1.0000 0.41230  0.63100  0.16430  Biso   1.000  C
  C90      1.0000 0.45860  0.65800  0.11810  Biso   1.000  C
  H36      1.0000 0.48140  0.64500  0.06960  Biso   1.000  H
  C91      1.0000 0.34510  0.72070  0.32910  Biso   1.000  C
  C92      1.0000 0.39860  0.58150  0.13390  Biso   1.000  C
  Zn5      1.0000 0.80293  0.68589  0.39312  Biso   1.000  Zn
  O41      1.0000 0.11490  0.79900  0.20680  Biso   1.000  O
  O42      1.0000 0.09410  0.63138  0.83470  Biso   1.000  O
  O43      1.0000 0.87060  0.70410  0.54940  Biso   1.000  O
  O44      1.0000 0.80830  0.64260  0.51630  Biso   1.000  O
  O45      1.0000 0.75850  0.54880  0.79910  Biso   1.000  O
  O46      1.0000 0.82710  0.55350  0.94380  Biso   1.000  O
  O47      1.0000 0.83810  0.73590  0.31780  Biso   1.000  O
  O48      1.0000 0.82040  0.80380  0.39230  Biso   1.000  O
  O49      1.0000 0.88910  0.94717  0.20090  Biso   1.000  O
  O50      1.0000 0.89830  0.92950  0.04730  Biso   1.000  O
  N13      1.0000 0.02050  0.76890  0.10410  Biso   1.000  N
  N14      1.0000 0.09850  0.71840  0.01760  Biso   1.000  N
  N15      1.0000 0.00920  0.67428  0.89900  Biso   1.000  N
  C93      1.0000 0.08840  0.77390  0.14050  Biso   1.000  C
  C94      1.0000 0.13540  0.74340  0.09110  Biso   1.000  C
  C95      1.0000 0.20740  0.73600  0.11870  Biso   1.000  C
  H37      1.0000 0.23340  0.75220  0.17170  Biso   1.000  H
  C96      1.0000 0.24020  0.70320  0.06400  Biso   1.000  C
  H38      1.0000 0.28870  0.69770  0.08070  Biso   1.000  H
  C97      1.0000 0.20090  0.67910  0.98580  Biso   1.000  C
  H39      1.0000 0.22230  0.65830  0.94780  Biso   1.000  H
  C98      1.0000 0.12890  0.68712  0.96630  Biso   1.000  C
  C99      1.0000 0.07620  0.66200  0.89280  Biso   1.000  C
  C100     1.0000 0.95080  0.65330  0.83590  Biso   1.000  C
  C101     1.0000 0.91170  0.61920  0.87140  Biso   1.000  C
  H40      1.0000 0.92600  0.60760  0.93520  Biso   1.000  H
  C102     1.0000 0.85190  0.60180  0.81420  Biso   1.000  C
  C103     1.0000 0.83210  0.61710  0.71860  Biso   1.000  C
  H41      1.0000 0.79230  0.60450  0.67890  Biso   1.000  H
  C104     1.0000 0.87120  0.65140  0.68080  Biso   1.000  C
  C105     1.0000 0.93050  0.67000  0.73960  Biso   1.000  C
  H42      1.0000 0.95650  0.69330  0.71510  Biso   1.000  H
  C106     1.0000 0.80440  0.56550  0.85490  Biso   1.000  C
  C107     1.0000 0.84890  0.66760  0.57560  Biso   1.000  C
  C108     1.0000 0.97010  0.79579  0.14530  Biso   1.000  C
  C109     1.0000 0.93260  0.77670  0.21270  Biso   1.000  C
  H43      1.0000 0.93890  0.74520  0.22800  Biso   1.000  H
  C110     1.0000 0.88650  0.80180  0.25850  Biso   1.000  C
  C111     1.0000 0.87750  0.84920  0.23530  Biso   1.000  C
  H44      1.0000 0.84820  0.86740  0.26770  Biso   1.000  H
  C112     1.0000 0.91230  0.86900  0.16430  Biso   1.000  C
  C113     1.0000 0.95860  0.84200  0.11810  Biso   1.000  C
  H45      1.0000 0.98140  0.85500  0.06960  Biso   1.000  H
  C114     1.0000 0.84510  0.77930  0.32910  Biso   1.000  C
  C115     1.0000 0.89860  0.91850  0.13390  Biso   1.000  C
  Zn6      1.0000 0.30293  0.18589  0.39312  Biso   1.000  Zn
  O51      1.0000 0.61490  0.29900  0.20680  Biso   1.000  O
  O52      1.0000 0.59410  0.13138  0.83470  Biso   1.000  O
  O53      1.0000 0.37060  0.20410  0.54940  Biso   1.000  O
  O54      1.0000 0.30830  0.14260  0.51630  Biso   1.000  O
  O55      1.0000 0.25850  0.04880  0.79910  Biso   1.000  O
  O56      1.0000 0.32710  0.05350  0.94380  Biso   1.000  O
  O57      1.0000 0.33810  0.23590  0.31780  Biso   1.000  O
  O58      1.0000 0.32040  0.30380  0.39230  Biso   1.000  O
  O59      1.0000 0.38910  0.44717  0.20090  Biso   1.000  O
  O60      1.0000 0.39830  0.42950  0.04730  Biso   1.000  O
  N16      1.0000 0.52050  0.26890  0.10410  Biso   1.000  N
  N17      1.0000 0.59850  0.21840  0.01760  Biso   1.000  N
  N18      1.0000 0.50920  0.17428  0.89900  Biso   1.000  N
  C116     1.0000 0.58840  0.27390  0.14050  Biso   1.000  C
  C117     1.0000 0.63540  0.24340  0.09110  Biso   1.000  C
  C118     1.0000 0.70740  0.23600  0.11870  Biso   1.000  C
  H46      1.0000 0.73340  0.25220  0.17170  Biso   1.000  H
  C119     1.0000 0.74020  0.20320  0.06400  Biso   1.000  C
  H47      1.0000 0.78870  0.19770  0.08070  Biso   1.000  H
  C120     1.0000 0.70090  0.17910  0.98580  Biso   1.000  C
  H48      1.0000 0.72230  0.15830  0.94780  Biso   1.000  H
  C121     1.0000 0.62890  0.18712  0.96630  Biso   1.000  C
  C122     1.0000 0.57620  0.16200  0.89280  Biso   1.000  C
  C123     1.0000 0.45080  0.15330  0.83590  Biso   1.000  C
  C124     1.0000 0.41170  0.11920  0.87140  Biso   1.000  C
  H49      1.0000 0.42600  0.10760  0.93520  Biso   1.000  H
  C125     1.0000 0.35190  0.10180  0.81420  Biso   1.000  C
  C126     1.0000 0.33210  0.11710  0.71860  Biso   1.000  C
  H50      1.0000 0.29230  0.10450  0.67890  Biso   1.000  H
  C127     1.0000 0.37120  0.15140  0.68080  Biso   1.000  C
  C128     1.0000 0.43050  0.17000  0.73960  Biso   1.000  C
  H51      1.0000 0.45650  0.19330  0.71510  Biso   1.000  H
  C129     1.0000 0.30440  0.06550  0.85490  Biso   1.000  C
  C130     1.0000 0.34890  0.16760  0.57560  Biso   1.000  C
  C131     1.0000 0.47010  0.29579  0.14530  Biso   1.000  C
  C132     1.0000 0.43260  0.27670  0.21270  Biso   1.000  C
  H52      1.0000 0.43890  0.24520  0.22800  Biso   1.000  H
  C133     1.0000 0.38650  0.30180  0.25850  Biso   1.000  C
  C134     1.0000 0.37750  0.34920  0.23530  Biso   1.000  C
  H53      1.0000 0.34820  0.36740  0.26770  Biso   1.000  H
  C135     1.0000 0.41230  0.36900  0.16430  Biso   1.000  C
  C136     1.0000 0.45860  0.34200  0.11810  Biso   1.000  C
  H54      1.0000 0.48140  0.35500  0.06960  Biso   1.000  H
  C137     1.0000 0.34510  0.27930  0.32910  Biso   1.000  C
  C138     1.0000 0.39860  0.41850  0.13390  Biso   1.000  C
  Zn7      1.0000 0.19707  0.68589  0.60688  Biso   1.000  Zn
  O61      1.0000 0.88510  0.79900  0.79320  Biso   1.000  O
  O62      1.0000 0.90590  0.63138  0.16530  Biso   1.000  O
  O63      1.0000 0.12940  0.70410  0.45060  Biso   1.000  O
  O64      1.0000 0.19170  0.64260  0.48370  Biso   1.000  O
  O65      1.0000 0.24150  0.54880  0.20090  Biso   1.000  O
  O66      1.0000 0.17290  0.55350  0.05620  Biso   1.000  O
  O67      1.0000 0.16190  0.73590  0.68220  Biso   1.000  O
  O68      1.0000 0.17960  0.80380  0.60770  Biso   1.000  O
  O69      1.0000 0.11090  0.94717  0.79910  Biso   1.000  O
  O70      1.0000 0.10170  0.92950  0.95270  Biso   1.000  O
  N19      1.0000 0.97950  0.76890  0.89590  Biso   1.000  N
  N20      1.0000 0.90150  0.71840  0.98240  Biso   1.000  N
  N21      1.0000 0.99080  0.67428  0.10100  Biso   1.000  N
  C139     1.0000 0.91160  0.77390  0.85950  Biso   1.000  C
  C140     1.0000 0.86460  0.74340  0.90890  Biso   1.000  C
  C141     1.0000 0.79260  0.73600  0.88130  Biso   1.000  C
  H55      1.0000 0.76660  0.75220  0.82830  Biso   1.000  H
  C142     1.0000 0.75980  0.70320  0.93600  Biso   1.000  C
  H56      1.0000 0.71130  0.69770  0.91930  Biso   1.000  H
  C143     1.0000 0.79910  0.67910  0.01420  Biso   1.000  C
  H57      1.0000 0.77770  0.65830  0.05220  Biso   1.000  H
  C144     1.0000 0.87110  0.68712  0.03370  Biso   1.000  C
  C145     1.0000 0.92380  0.66200  0.10720  Biso   1.000  C
  C146     1.0000 0.04920  0.65330  0.16410  Biso   1.000  C
  C147     1.0000 0.08830  0.61920  0.12860  Biso   1.000  C
  H58      1.0000 0.07400  0.60760  0.06480  Biso   1.000  H
  C148     1.0000 0.14810  0.60180  0.18580  Biso   1.000  C
  C149     1.0000 0.16790  0.61710  0.28140  Biso   1.000  C
  H59      1.0000 0.20770  0.60450  0.32110  Biso   1.000  H
  C150     1.0000 0.12880  0.65140  0.31920  Biso   1.000  C
  C151     1.0000 0.06950  0.67000  0.26040  Biso   1.000  C
  H60      1.0000 0.04350  0.69330  0.28490  Biso   1.000  H
  C152     1.0000 0.19560  0.56550  0.14510  Biso   1.000  C
  C153     1.0000 0.15110  0.66760  0.42440  Biso   1.000  C
  C154     1.0000 0.02990  0.79579  0.85470  Biso   1.000  C
  C155     1.0000 0.06740  0.77670  0.78730  Biso   1.000  C
  H61      1.0000 0.06110  0.74520  0.77200  Biso   1.000  H
  C156     1.0000 0.11350  0.80180  0.74150  Biso   1.000  C
  C157     1.0000 0.12250  0.84920  0.76470  Biso   1.000  C
  H62      1.0000 0.15180  0.86740  0.73230  Biso   1.000  H
  C158     1.0000 0.08770  0.86900  0.83570  Biso   1.000  C
  C159     1.0000 0.04140  0.84200  0.88190  Biso   1.000  C
  H63      1.0000 0.01860  0.85500  0.93040  Biso   1.000  H
  C160     1.0000 0.15490  0.77930  0.67090  Biso   1.000  C
  C161     1.0000 0.10140  0.91850  0.86610  Biso   1.000  C
  Zn8      1.0000 0.69707  0.18589  0.60688  Biso   1.000  Zn
  O71      1.0000 0.38510  0.29900  0.79320  Biso   1.000  O
  O72      1.0000 0.40590  0.13138  0.16530  Biso   1.000  O
  O73      1.0000 0.62940  0.20410  0.45060  Biso   1.000  O
  O74      1.0000 0.69170  0.14260  0.48370  Biso   1.000  O
  O75      1.0000 0.74150  0.04880  0.20090  Biso   1.000  O
  O76      1.0000 0.67290  0.05350  0.05620  Biso   1.000  O
  O77      1.0000 0.66190  0.23590  0.68220  Biso   1.000  O
  O78      1.0000 0.67960  0.30380  0.60770  Biso   1.000  O
  O79      1.0000 0.61090  0.44717  0.79910  Biso   1.000  O
  O80      1.0000 0.60170  0.42950  0.95270  Biso   1.000  O
  N22      1.0000 0.47950  0.26890  0.89590  Biso   1.000  N
  N23      1.0000 0.40150  0.21840  0.98240  Biso   1.000  N
  N24      1.0000 0.49080  0.17428  0.10100  Biso   1.000  N
  C162     1.0000 0.41160  0.27390  0.85950  Biso   1.000  C
  C163     1.0000 0.36460  0.24340  0.90890  Biso   1.000  C
  C164     1.0000 0.29260  0.23600  0.88130  Biso   1.000  C
  H64      1.0000 0.26660  0.25220  0.82830  Biso   1.000  H
  C165     1.0000 0.25980  0.20320  0.93600  Biso   1.000  C
  H65      1.0000 0.21130  0.19770  0.91930  Biso   1.000  H
  C166     1.0000 0.29910  0.17910  0.01420  Biso   1.000  C
  H66      1.0000 0.27770  0.15830  0.05220  Biso   1.000  H
  C167     1.0000 0.37110  0.18712  0.03370  Biso   1.000  C
  C168     1.0000 0.42380  0.16200  0.10720  Biso   1.000  C
  C169     1.0000 0.54920  0.15330  0.16410  Biso   1.000  C
  C170     1.0000 0.58830  0.11920  0.12860  Biso   1.000  C
  H67      1.0000 0.57400  0.10760  0.06480  Biso   1.000  H
  C171     1.0000 0.64810  0.10180  0.18580  Biso   1.000  C
  C172     1.0000 0.66790  0.11710  0.28140  Biso   1.000  C
  H68      1.0000 0.70770  0.10450  0.32110  Biso   1.000  H
  C173     1.0000 0.62880  0.15140  0.31920  Biso   1.000  C
  C174     1.0000 0.56950  0.17000  0.26040  Biso   1.000  C
  H69      1.0000 0.54350  0.19330  0.28490  Biso   1.000  H
  C175     1.0000 0.69560  0.06550  0.14510  Biso   1.000  C
  C176     1.0000 0.65110  0.16760  0.42440  Biso   1.000  C
  C177     1.0000 0.52990  0.29579  0.85470  Biso   1.000  C
  C178     1.0000 0.56740  0.27670  0.78730  Biso   1.000  C
  H70      1.0000 0.56110  0.24520  0.77200  Biso   1.000  H
  C179     1.0000 0.61350  0.30180  0.74150  Biso   1.000  C
  C180     1.0000 0.62250  0.34920  0.76470  Biso   1.000  C
  H71      1.0000 0.65180  0.36740  0.73230  Biso   1.000  H
  C181     1.0000 0.58770  0.36900  0.83570  Biso   1.000  C
  C182     1.0000 0.54140  0.34200  0.88190  Biso   1.000  C
  H72      1.0000 0.51860  0.35500  0.93040  Biso   1.000  H
  C183     1.0000 0.65490  0.27930  0.67090  Biso   1.000  C
  C184     1.0000 0.60140  0.41850  0.86610  Biso   1.000  C
  Zn9      1.0000 0.31612  0.50000  0.19872  Biso   1.000  Zn
  Zn10     1.0000 0.19214  0.50000  0.96917  Biso   1.000  Zn
  O81      1.0000 0.30150  0.50000  0.02870  Biso   1.000  O
  Zn11     1.0000 0.81612  0.00000  0.19872  Biso   1.000  Zn
  Zn12     1.0000 0.69214  0.00000  0.96917  Biso   1.000  Zn
  O82      1.0000 0.80150  0.00000  0.02870  Biso   1.000  O
  Zn13     1.0000 0.68388  0.50000  0.80128  Biso   1.000  Zn
  Zn14     1.0000 0.80786  0.50000  0.03083  Biso   1.000  Zn
  O83      1.0000 0.69850  0.50000  0.97130  Biso   1.000  O
  Zn15     1.0000 0.18388  0.00000  0.80128  Biso   1.000  Zn
  Zn16     1.0000 0.30786  0.00000  0.03083  Biso   1.000  Zn
  O84      1.0000 0.19850  0.00000  0.97130  Biso   1.000  O
  Co1      1.0000 0.00000  0.27867  0.00000  Biso   1.000  Co
  Co2      1.0000 0.50000  0.77867  0.00000  Biso   1.000  Co
  Co3      1.0000 0.00000  0.72133  0.00000  Biso   1.000  Co
  Co4      1.0000 0.50000  0.22133  0.00000  Biso   1.000  Co
  Na1      1.0000 0.09660  0.00000  0.98520  Biso   1.000  Na
  Na2      1.0000 0.59660  0.50000  0.98520  Biso   1.000  Na
  Na3      1.0000 0.90340  0.00000  0.01480  Biso   1.000  Na
  Na4      1.0000 0.40340  0.50000  0.01480  Biso   1.000  Na
  O85      1.0000 0.00000  0.00000  0.00000  Biso   1.000  O
  O86      1.0000 0.50000  0.50000  0.00000  Biso   1.000  O
