data_image0
_cell_length_a       16.413
_cell_length_b       18.43
_cell_length_c       24.7
_cell_angle_alpha    87.9
_cell_angle_beta     85.395
_cell_angle_gamma    75.058

_symmetry_space_group_name_H-M    "P 1"
_symmetry_int_tables_number       1

loop_
  _symmetry_equiv_pos_as_xyz
  'x, y, z'

loop_
  _atom_site_label
  _atom_site_occupancy
  _atom_site_fract_x
  _atom_site_fract_y
  _atom_site_fract_z
  _atom_site_thermal_displace_type
  _atom_site_B_iso_or_equiv
  _atom_site_type_symbol
  Cd1      1.0000 0.24619  0.17842  0.35282  Biso   1.000  Cd
  Cd2      1.0000 0.91889  0.32951  0.55407  Biso   1.000  Cd
  Cd3      1.0000 0.63596  0.48584  0.49610  Biso   1.000  Cd
  Cd4      1.0000 0.72753  0.23500  0.03138  Biso   1.000  Cd
  Cd5      1.0000 0.83462  0.69990  0.15594  Biso   1.000  Cd
  Cd6      1.0000 0.60639  0.99649  0.64364  Biso   1.000  Cd
  Cd7      1.0000 0.66898  0.05213  0.99895  Biso   1.000  Cd
  Co1      1.0000 0.79073  0.10140  0.33712  Biso   1.000  Co
  Co2      1.0000 0.23631  0.36464  0.15232  Biso   1.000  Co
  O1       1.0000 0.66550  0.94390  0.32080  Biso   1.000  O
  O2       1.0000 0.72730  0.30130  0.25930  Biso   1.000  O
  O3       1.0000 0.11580  0.17060  0.32390  Biso   1.000  O
  O4       1.0000 0.12010  0.23610  0.39690  Biso   1.000  O
  O5       1.0000 0.85200  0.39790  0.48330  Biso   1.000  O
  O6       1.0000 0.73730  0.41360  0.43900  Biso   1.000  O
  O7       1.0000 0.63780  0.00520  0.54940  Biso   1.000  O
  O8       1.0000 0.73780  0.92830  0.59150  Biso   1.000  O
  O9       1.0000 0.97680  0.76590  0.48070  Biso   1.000  O
  O10      1.0000 0.98700  0.77420  0.39280  Biso   1.000  O
  O11      1.0000 0.01920  0.97760  0.27840  Biso   1.000  O
  O12      1.0000 0.75660  0.17330  0.49110  Biso   1.000  O
  O13      1.0000 0.35470  0.20480  0.38460  Biso   1.000  O
  O14      1.0000 0.45360  0.09810  0.36820  Biso   1.000  O
  O15      1.0000 0.43730  0.42260  0.45130  Biso   1.000  O
  O16      1.0000 0.56140  0.40310  0.48240  Biso   1.000  O
  O17      1.0000 0.80470  0.82860  0.12960  Biso   1.000  O
  O18      1.0000 0.85910  0.79880  0.20730  Biso   1.000  O
  O19      1.0000 0.79390  0.17780  0.10610  Biso   1.000  O
  O20      1.0000 0.74650  0.09670  0.06220  Biso   1.000  O
  O21      1.0000 0.07650  0.57040  0.15830  Biso   1.000  O
  O22      1.0000 0.19570  0.20300  0.06040  Biso   1.000  O
  O23      1.0000 0.31120  0.09640  0.28720  Biso   1.000  O
  O24      1.0000 0.42920  0.01110  0.26440  Biso   1.000  O
  O25      1.0000 0.55040  0.13040  0.04280  Biso   1.000  O
  O26      1.0000 0.55790  0.01670  0.06900  Biso   1.000  O
  O27      1.0000 0.47230  0.51610  0.19990  Biso   1.000  O
  O28      1.0000 0.45440  0.58680  0.26940  Biso   1.000  O
  O29      1.0000 0.18490  0.61050  0.38810  Biso   1.000  O
  O30      1.0000 0.07500  0.60210  0.35190  Biso   1.000  O
  O31      1.0000 0.46270  0.38630  0.08550  Biso   1.000  O
  O32      1.0000 0.21230  0.29730  0.30860  Biso   1.000  O
  O33      1.0000 0.99260  0.19630  0.13790  Biso   1.000  O
  O34      1.0000 0.86500  0.25920  0.16420  Biso   1.000  O
  H1       1.0000 0.85320  0.22950  0.14420  Biso   1.000  H
  O35      1.0000 0.81720  0.47230  0.28900  Biso   1.000  O
  H2       1.0000 0.79060  0.50410  0.31070  Biso   1.000  H
  O36      1.0000 0.92190  0.47910  0.33680  Biso   1.000  O
  O37      1.0000 0.24780  0.65130  0.93940  Biso   1.000  O
  O38      1.0000 0.30870  0.64760  0.01580  Biso   1.000  O
  O39      1.0000 0.18110  0.41540  0.87830  Biso   1.000  O
  O40      1.0000 0.23140  0.31060  0.92430  Biso   1.000  O
  N1       1.0000 0.75150  0.01120  0.35240  Biso   1.000  N
  N2       1.0000 0.70620  0.12000  0.28920  Biso   1.000  N
  N3       1.0000 0.80200  0.20010  0.30860  Biso   1.000  N
  N4       1.0000 0.87870  0.04500  0.28510  Biso   1.000  N
  N5       1.0000 0.88160  0.07990  0.38110  Biso   1.000  N
  N6       1.0000 0.72980  0.15130  0.40280  Biso   1.000  N
  N7       1.0000 0.19060  0.47020  0.17120  Biso   1.000  N
  N8       1.0000 0.14310  0.38650  0.11050  Biso   1.000  N
  N9       1.0000 0.25170  0.26560  0.12090  Biso   1.000  N
  N10      1.0000 0.18290  0.33410  0.21980  Biso   1.000  N
  N11      1.0000 0.33030  0.34290  0.19380  Biso   1.000  N
  N12      1.0000 0.32060  0.38970  0.09830  Biso   1.000  N
  C1       1.0000 0.69690  0.99930  0.32070  Biso   1.000  C
  C2       1.0000 0.67060  0.06280  0.28110  Biso   1.000  C
  C3       1.0000 0.61610  0.07150  0.24080  Biso   1.000  C
  H3       1.0000 0.58850  0.03450  0.23530  Biso   1.000  H
  C4       1.0000 0.60250  0.13530  0.20860  Biso   1.000  C
  H4       1.0000 0.56630  0.14030  0.18080  Biso   1.000  H
  C5       1.0000 0.64040  0.19150  0.21630  Biso   1.000  C
  H5       1.0000 0.63150  0.23430  0.19420  Biso   1.000  H
  C6       1.0000 0.69350  0.18190  0.25920  Biso   1.000  C
  C7       1.0000 0.74270  0.23490  0.27620  Biso   1.000  C
  C8       1.0000 0.84980  0.24000  0.33450  Biso   1.000  C
  C9       1.0000 0.93740  0.21510  0.33100  Biso   1.000  C
  H6       1.0000 0.96450  0.17890  0.30570  Biso   1.000  H
  C10      1.0000 0.98470  0.24360  0.36450  Biso   1.000  C
  C11      1.0000 0.94540  0.29790  0.40150  Biso   1.000  C
  H7       1.0000 0.97740  0.31640  0.42440  Biso   1.000  H
  C12      1.0000 0.85690  0.32560  0.40470  Biso   1.000  C
  C13      1.0000 0.81080  0.29710  0.37040  Biso   1.000  C
  H8       1.0000 0.75250  0.31650  0.37140  Biso   1.000  H
  C14      1.0000 0.08070  0.21500  0.36200  Biso   1.000  C
  C15      1.0000 0.81220  0.38280  0.44520  Biso   1.000  C
  C16      1.0000 0.77590  0.96330  0.39820  Biso   1.000  C
  C17      1.0000 0.73030  0.98030  0.44880  Biso   1.000  C
  H9       1.0000 0.68150  0.01950  0.45130  Biso   1.000  H
  C18      1.0000 0.75780  0.93920  0.49470  Biso   1.000  C
  C19      1.0000 0.82930  0.87960  0.49110  Biso   1.000  C
  H10      1.0000 0.84650  0.85110  0.52190  Biso   1.000  H
  C20      1.0000 0.87510  0.86230  0.44150  Biso   1.000  C
  C21      1.0000 0.84740  0.90470  0.39550  Biso   1.000  C
  H11      1.0000 0.87810  0.89300  0.36220  Biso   1.000  H
  C22      1.0000 0.70730  0.95890  0.54810  Biso   1.000  C
  C23      1.0000 0.95150  0.79670  0.43890  Biso   1.000  C
  C24      1.0000 0.95460  0.01890  0.30290  Biso   1.000  C
  C25      1.0000 0.95720  0.04210  0.36010  Biso   1.000  C
  C26      1.0000 0.02660  0.03020  0.39080  Biso   1.000  C
  H12      1.0000 0.07980  0.00390  0.37670  Biso   1.000  H
  C27      1.0000 0.01520  0.05820  0.44240  Biso   1.000  C
  H13      1.0000 0.06110  0.05100  0.46360  Biso   1.000  H
  C28      1.0000 0.93520  0.09720  0.46330  Biso   1.000  C
  H14      1.0000 0.92690  0.11580  0.49840  Biso   1.000  H
  C29      1.0000 0.86870  0.10750  0.43060  Biso   1.000  C
  C30      1.0000 0.77890  0.14850  0.44470  Biso   1.000  C
  C31      1.0000 0.64400  0.19200  0.40920  Biso   1.000  C
  C32      1.0000 0.62000  0.26510  0.42930  Biso   1.000  C
  H15      1.0000 0.66130  0.28710  0.43950  Biso   1.000  H
  C33      1.0000 0.53590  0.30560  0.43430  Biso   1.000  C
  C34      1.0000 0.47450  0.27350  0.41780  Biso   1.000  C
  H16      1.0000 0.41830  0.30090  0.41990  Biso   1.000  H
  C35      1.0000 0.49580  0.20110  0.39820  Biso   1.000  C
  C36      1.0000 0.58060  0.16180  0.39450  Biso   1.000  C
  H17      1.0000 0.59510  0.11300  0.38150  Biso   1.000  H
  C37      1.0000 0.51050  0.38230  0.45940  Biso   1.000  C
  C38      1.0000 0.43050  0.16380  0.38280  Biso   1.000  C
  C39      1.0000 0.86230  0.02200  0.23390  Biso   1.000  C
  C40      1.0000 0.85970  0.94790  0.22620  Biso   1.000  C
  H18      1.0000 0.87430  0.91270  0.25400  Biso   1.000  H
  C41      1.0000 0.83600  0.92570  0.17860  Biso   1.000  C
  C42      1.0000 0.81020  0.97980  0.13730  Biso   1.000  C
  H19      1.0000 0.79030  0.96650  0.10580  Biso   1.000  H
  C43      1.0000 0.81460  0.05300  0.14410  Biso   1.000  C
  C44      1.0000 0.84250  0.07210  0.19160  Biso   1.000  C
  H20      1.0000 0.84810  0.12070  0.19500  Biso   1.000  H
  C45      1.0000 0.83090  0.84640  0.17100  Biso   1.000  C
  C46      1.0000 0.78320  0.11230  0.10120  Biso   1.000  C
  C47      1.0000 0.11790  0.50430  0.15060  Biso   1.000  C
  C48      1.0000 0.09130  0.45490  0.11340  Biso   1.000  C
  C49      1.0000 0.01870  0.47190  0.08390  Biso   1.000  C
  H21      1.0000 0.98080  0.51910  0.08580  Biso   1.000  H
  C50      1.0000 0.00550  0.41710  0.05260  Biso   1.000  C
  H22      1.0000 0.95780  0.42690  0.03280  Biso   1.000  H
  C51      1.0000 0.06260  0.34680  0.04990  Biso   1.000  C
  H23      1.0000 0.05420  0.31010  0.02770  Biso   1.000  H
  C52      1.0000 0.13020  0.33250  0.07980  Biso   1.000  C
  C53      1.0000 0.19750  0.25940  0.08550  Biso   1.000  C
  C54      1.0000 0.31610  0.20040  0.13390  Biso   1.000  C
  C55      1.0000 0.31100  0.16410  0.18410  Biso   1.000  C
  H24      1.0000 0.26460  0.18100  0.20870  Biso   1.000  H
  C56      1.0000 0.37530  0.10290  0.19720  Biso   1.000  C
  C57      1.0000 0.44220  0.07510  0.15950  Biso   1.000  C
  H25      1.0000 0.48310  0.03160  0.16760  Biso   1.000  H
  C58      1.0000 0.44880  0.11140  0.11000  Biso   1.000  C
  C59      1.0000 0.38620  0.17560  0.09720  Biso   1.000  C
  H26      1.0000 0.39130  0.20150  0.06460  Biso   1.000  H
  C60      1.0000 0.37060  0.06840  0.25270  Biso   1.000  C
  C61      1.0000 0.52310  0.08360  0.07040  Biso   1.000  C
  C62      1.0000 0.22150  0.50810  0.21150  Biso   1.000  C
  C63      1.0000 0.30260  0.51720  0.20440  Biso   1.000  C
  H27      1.0000 0.33410  0.50350  0.17160  Biso   1.000  H
  C64      1.0000 0.33790  0.54610  0.24430  Biso   1.000  C
  C65      1.0000 0.28640  0.57260  0.29110  Biso   1.000  C
  H28      1.0000 0.30730  0.59600  0.31760  Biso   1.000  H
  C66      1.0000 0.20670  0.56460  0.29830  Biso   1.000  C
  C67      1.0000 0.17220  0.53270  0.25870  Biso   1.000  C
  H29      1.0000 0.11710  0.52790  0.26380  Biso   1.000  H
  C68      1.0000 0.42660  0.55220  0.23650  Biso   1.000  C
  C69      1.0000 0.15020  0.59370  0.34960  Biso   1.000  C
  C70      1.0000 0.39810  0.37680  0.11280  Biso   1.000  C
  C71      1.0000 0.40400  0.35030  0.17100  Biso   1.000  C
  C72      1.0000 0.47110  0.34120  0.20170  Biso   1.000  C
  H30      1.0000 0.52280  0.34630  0.18610  Biso   1.000  H
  C73      1.0000 0.46200  0.32440  0.25580  Biso   1.000  C
  H31      1.0000 0.50750  0.31910  0.27720  Biso   1.000  H
  C74      1.0000 0.38400  0.31510  0.27970  Biso   1.000  C
  H32      1.0000 0.37630  0.30390  0.31650  Biso   1.000  H
  C75      1.0000 0.32060  0.32340  0.24560  Biso   1.000  C
  C76      1.0000 0.23110  0.31780  0.26090  Biso   1.000  C
  C77      1.0000 0.09500  0.33480  0.22690  Biso   1.000  C
  C78      1.0000 0.03820  0.38800  0.26140  Biso   1.000  C
  H33      1.0000 0.05920  0.41810  0.28310  Biso   1.000  H
  C79      1.0000 0.95230  0.39530  0.26310  Biso   1.000  C
  C80      1.0000 0.92060  0.34930  0.22990  Biso   1.000  C
  H34      1.0000 0.86270  0.35550  0.22920  Biso   1.000  H
  C81      1.0000 0.97560  0.29640  0.19930  Biso   1.000  C
  C82      1.0000 0.06250  0.28780  0.19900  Biso   1.000  C
  H35      1.0000 0.09910  0.24910  0.17920  Biso   1.000  H
  C83      1.0000 0.89390  0.45360  0.29910  Biso   1.000  C
  C84      1.0000 0.94600  0.24610  0.16440  Biso   1.000  C
  C85      1.0000 0.29930  0.42470  0.04720  Biso   1.000  C
  C86      1.0000 0.27590  0.38700  0.00680  Biso   1.000  C
  H36      1.0000 0.28000  0.33580  0.01090  Biso   1.000  H
  C87      1.0000 0.24610  0.42450  0.95970  Biso   1.000  C
  C88      1.0000 0.24430  0.49990  0.95190  Biso   1.000  C
  H37      1.0000 0.22490  0.52480  0.92020  Biso   1.000  H
  C89      1.0000 0.27110  0.53780  0.99120  Biso   1.000  C
  C90      1.0000 0.29860  0.50070  0.03970  Biso   1.000  C
  H38      1.0000 0.31600  0.52630  0.06660  Biso   1.000  H
  C91      1.0000 0.21890  0.38120  0.91820  Biso   1.000  C
  C92      1.0000 0.27570  0.61720  0.98180  Biso   1.000  C
  Cd8      1.0000 0.75381  0.82158  0.64718  Biso   1.000  Cd
  Cd9      1.0000 0.08111  0.67049  0.44593  Biso   1.000  Cd
  Cd10     1.0000 0.36404  0.51416  0.50390  Biso   1.000  Cd
  Cd11     1.0000 0.27247  0.76500  0.96862  Biso   1.000  Cd
  Cd12     1.0000 0.16538  0.30010  0.84406  Biso   1.000  Cd
  Cd13     1.0000 0.39361  0.00351  0.35636  Biso   1.000  Cd
  Cd14     1.0000 0.33102  0.94787  0.00105  Biso   1.000  Cd
  Co3      1.0000 0.20927  0.89860  0.66288  Biso   1.000  Co
  Co4      1.0000 0.76369  0.63536  0.84768  Biso   1.000  Co
  O41      1.0000 0.33450  0.05610  0.67920  Biso   1.000  O
  O42      1.0000 0.27270  0.69870  0.74070  Biso   1.000  O
  O43      1.0000 0.88420  0.82940  0.67610  Biso   1.000  O
  O44      1.0000 0.87990  0.76390  0.60310  Biso   1.000  O
  O45      1.0000 0.14800  0.60210  0.51670  Biso   1.000  O
  O46      1.0000 0.26270  0.58640  0.56100  Biso   1.000  O
  O47      1.0000 0.36220  0.99480  0.45060  Biso   1.000  O
  O48      1.0000 0.26220  0.07170  0.40850  Biso   1.000  O
  O49      1.0000 0.02320  0.23410  0.51930  Biso   1.000  O
  O50      1.0000 0.01300  0.22580  0.60720  Biso   1.000  O
  O51      1.0000 0.98080  0.02240  0.72160  Biso   1.000  O
  O52      1.0000 0.24340  0.82670  0.50890  Biso   1.000  O
  O53      1.0000 0.64530  0.79520  0.61540  Biso   1.000  O
  O54      1.0000 0.54640  0.90190  0.63180  Biso   1.000  O
  O55      1.0000 0.56270  0.57740  0.54870  Biso   1.000  O
  O56      1.0000 0.43860  0.59690  0.51760  Biso   1.000  O
  O57      1.0000 0.19530  0.17140  0.87040  Biso   1.000  O
  O58      1.0000 0.14090  0.20120  0.79270  Biso   1.000  O
  O59      1.0000 0.20610  0.82220  0.89390  Biso   1.000  O
  O60      1.0000 0.25350  0.90330  0.93780  Biso   1.000  O
  O61      1.0000 0.92350  0.42960  0.84170  Biso   1.000  O
  O62      1.0000 0.80430  0.79700  0.93960  Biso   1.000  O
  O63      1.0000 0.68880  0.90360  0.71280  Biso   1.000  O
  O64      1.0000 0.57080  0.98890  0.73560  Biso   1.000  O
  O65      1.0000 0.44960  0.86960  0.95720  Biso   1.000  O
  O66      1.0000 0.44210  0.98330  0.93100  Biso   1.000  O
  O67      1.0000 0.52770  0.48390  0.80010  Biso   1.000  O
  O68      1.0000 0.54560  0.41320  0.73060  Biso   1.000  O
  O69      1.0000 0.81510  0.38950  0.61190  Biso   1.000  O
  O70      1.0000 0.92500  0.39790  0.64810  Biso   1.000  O
  O71      1.0000 0.53730  0.61370  0.91450  Biso   1.000  O
  O72      1.0000 0.78770  0.70270  0.69140  Biso   1.000  O
  O73      1.0000 0.00740  0.80370  0.86210  Biso   1.000  O
  O74      1.0000 0.13500  0.74080  0.83580  Biso   1.000  O
  H39      1.0000 0.14680  0.77050  0.85580  Biso   1.000  H
  O75      1.0000 0.18280  0.52770  0.71100  Biso   1.000  O
  H40      1.0000 0.20940  0.49590  0.68930  Biso   1.000  H
  O76      1.0000 0.07810  0.52090  0.66320  Biso   1.000  O
  O77      1.0000 0.75220  0.34870  0.06060  Biso   1.000  O
  O78      1.0000 0.69130  0.35240  0.98420  Biso   1.000  O
  O79      1.0000 0.81890  0.58460  0.12170  Biso   1.000  O
  O80      1.0000 0.76860  0.68940  0.07570  Biso   1.000  O
  N13      1.0000 0.24850  0.98880  0.64760  Biso   1.000  N
  N14      1.0000 0.29380  0.88000  0.71080  Biso   1.000  N
  N15      1.0000 0.19800  0.79990  0.69140  Biso   1.000  N
  N16      1.0000 0.12130  0.95500  0.71490  Biso   1.000  N
  N17      1.0000 0.11840  0.92010  0.61890  Biso   1.000  N
  N18      1.0000 0.27020  0.84870  0.59720  Biso   1.000  N
  N19      1.0000 0.80940  0.52980  0.82880  Biso   1.000  N
  N20      1.0000 0.85690  0.61350  0.88950  Biso   1.000  N
  N21      1.0000 0.74830  0.73440  0.87910  Biso   1.000  N
  N22      1.0000 0.81710  0.66590  0.78020  Biso   1.000  N
  N23      1.0000 0.66970  0.65710  0.80620  Biso   1.000  N
  N24      1.0000 0.67940  0.61030  0.90170  Biso   1.000  N
  C93      1.0000 0.30310  0.00070  0.67930  Biso   1.000  C
  C94      1.0000 0.32940  0.93720  0.71890  Biso   1.000  C
  C95      1.0000 0.38390  0.92850  0.75920  Biso   1.000  C
  H41      1.0000 0.41150  0.96550  0.76470  Biso   1.000  H
  C96      1.0000 0.39750  0.86470  0.79140  Biso   1.000  C
  H42      1.0000 0.43370  0.85970  0.81920  Biso   1.000  H
  C97      1.0000 0.35960  0.80850  0.78370  Biso   1.000  C
  H43      1.0000 0.36850  0.76570  0.80580  Biso   1.000  H
  C98      1.0000 0.30650  0.81810  0.74080  Biso   1.000  C
  C99      1.0000 0.25730  0.76510  0.72380  Biso   1.000  C
  C100     1.0000 0.15020  0.76000  0.66550  Biso   1.000  C
  C101     1.0000 0.06260  0.78490  0.66900  Biso   1.000  C
  H44      1.0000 0.03550  0.82110  0.69430  Biso   1.000  H
  C102     1.0000 0.01530  0.75640  0.63550  Biso   1.000  C
  C103     1.0000 0.05460  0.70210  0.59850  Biso   1.000  C
  H45      1.0000 0.02260  0.68360  0.57560  Biso   1.000  H
  C104     1.0000 0.14310  0.67440  0.59530  Biso   1.000  C
  C105     1.0000 0.18920  0.70290  0.62960  Biso   1.000  C
  H46      1.0000 0.24750  0.68350  0.62860  Biso   1.000  H
  C106     1.0000 0.91930  0.78500  0.63800  Biso   1.000  C
  C107     1.0000 0.18780  0.61720  0.55480  Biso   1.000  C
  C108     1.0000 0.22410  0.03670  0.60180  Biso   1.000  C
  C109     1.0000 0.26970  0.01970  0.55120  Biso   1.000  C
  H47      1.0000 0.31850  0.98050  0.54870  Biso   1.000  H
  C110     1.0000 0.24220  0.06080  0.50530  Biso   1.000  C
  C111     1.0000 0.17070  0.12040  0.50890  Biso   1.000  C
  H48      1.0000 0.15350  0.14890  0.47810  Biso   1.000  H
  C112     1.0000 0.12490  0.13770  0.55850  Biso   1.000  C
  C113     1.0000 0.15260  0.09530  0.60450  Biso   1.000  C
  H49      1.0000 0.12190  0.10700  0.63780  Biso   1.000  H
  C114     1.0000 0.29270  0.04110  0.45190  Biso   1.000  C
  C115     1.0000 0.04850  0.20330  0.56110  Biso   1.000  C
  C116     1.0000 0.04540  0.98110  0.69710  Biso   1.000  C
  C117     1.0000 0.04280  0.95790  0.63990  Biso   1.000  C
  C118     1.0000 0.97340  0.96980  0.60920  Biso   1.000  C
  H50      1.0000 0.92020  0.99610  0.62330  Biso   1.000  H
  C119     1.0000 0.98480  0.94180  0.55760  Biso   1.000  C
  H51      1.0000 0.93890  0.94900  0.53640  Biso   1.000  H
  C120     1.0000 0.06480  0.90280  0.53670  Biso   1.000  C
  H52      1.0000 0.07310  0.88420  0.50160  Biso   1.000  H
  C121     1.0000 0.13130  0.89250  0.56940  Biso   1.000  C
  C122     1.0000 0.22110  0.85150  0.55530  Biso   1.000  C
  C123     1.0000 0.35600  0.80800  0.59080  Biso   1.000  C
  C124     1.0000 0.38000  0.73490  0.57070  Biso   1.000  C
  H53      1.0000 0.33870  0.71290  0.56050  Biso   1.000  H
  C125     1.0000 0.46410  0.69440  0.56570  Biso   1.000  C
  C126     1.0000 0.52550  0.72650  0.58220  Biso   1.000  C
  H54      1.0000 0.58170  0.69910  0.58010  Biso   1.000  H
  C127     1.0000 0.50420  0.79890  0.60180  Biso   1.000  C
  C128     1.0000 0.41940  0.83820  0.60550  Biso   1.000  C
  H55      1.0000 0.40490  0.88700  0.61850  Biso   1.000  H
  C129     1.0000 0.48950  0.61770  0.54060  Biso   1.000  C
  C130     1.0000 0.56950  0.83620  0.61720  Biso   1.000  C
  C131     1.0000 0.13770  0.97800  0.76610  Biso   1.000  C
  C132     1.0000 0.14030  0.05210  0.77380  Biso   1.000  C
  H56      1.0000 0.12570  0.08730  0.74600  Biso   1.000  H
  C133     1.0000 0.16400  0.07430  0.82140  Biso   1.000  C
  C134     1.0000 0.18980  0.02020  0.86270  Biso   1.000  C
  H57      1.0000 0.20970  0.03350  0.89420  Biso   1.000  H
  C135     1.0000 0.18540  0.94700  0.85590  Biso   1.000  C
  C136     1.0000 0.15750  0.92790  0.80840  Biso   1.000  C
  H58      1.0000 0.15190  0.87930  0.80500  Biso   1.000  H
  C137     1.0000 0.16910  0.15360  0.82900  Biso   1.000  C
  C138     1.0000 0.21680  0.88770  0.89880  Biso   1.000  C
  C139     1.0000 0.88210  0.49570  0.84940  Biso   1.000  C
  C140     1.0000 0.90870  0.54510  0.88660  Biso   1.000  C
  C141     1.0000 0.98130  0.52810  0.91610  Biso   1.000  C
  H59      1.0000 0.01920  0.48090  0.91420  Biso   1.000  H
  C142     1.0000 0.99450  0.58290  0.94740  Biso   1.000  C
  H60      1.0000 0.04220  0.57310  0.96720  Biso   1.000  H
  C143     1.0000 0.93740  0.65320  0.95010  Biso   1.000  C
  H61      1.0000 0.94580  0.68990  0.97230  Biso   1.000  H
  C144     1.0000 0.86980  0.66750  0.92020  Biso   1.000  C
  C145     1.0000 0.80250  0.74060  0.91450  Biso   1.000  C
  C146     1.0000 0.68390  0.79960  0.86610  Biso   1.000  C
  C147     1.0000 0.68900  0.83590  0.81590  Biso   1.000  C
  H62      1.0000 0.73540  0.81900  0.79130  Biso   1.000  H
  C148     1.0000 0.62470  0.89710  0.80280  Biso   1.000  C
  C149     1.0000 0.55780  0.92490  0.84050  Biso   1.000  C
  H63      1.0000 0.51690  0.96840  0.83240  Biso   1.000  H
  C150     1.0000 0.55120  0.88860  0.89000  Biso   1.000  C
  C151     1.0000 0.61380  0.82440  0.90280  Biso   1.000  C
  H64      1.0000 0.60870  0.79850  0.93540  Biso   1.000  H
  C152     1.0000 0.62940  0.93160  0.74730  Biso   1.000  C
  C153     1.0000 0.47690  0.91640  0.92960  Biso   1.000  C
  C154     1.0000 0.77850  0.49190  0.78850  Biso   1.000  C
  C155     1.0000 0.69740  0.48280  0.79560  Biso   1.000  C
  H65      1.0000 0.66590  0.49650  0.82840  Biso   1.000  H
  C156     1.0000 0.66210  0.45390  0.75570  Biso   1.000  C
  C157     1.0000 0.71360  0.42740  0.70890  Biso   1.000  C
  H66      1.0000 0.69270  0.40400  0.68240  Biso   1.000  H
  C158     1.0000 0.79330  0.43540  0.70170  Biso   1.000  C
  C159     1.0000 0.82780  0.46730  0.74130  Biso   1.000  C
  H67      1.0000 0.88290  0.47210  0.73620  Biso   1.000  H
  C160     1.0000 0.57340  0.44780  0.76350  Biso   1.000  C
  C161     1.0000 0.84980  0.40630  0.65040  Biso   1.000  C
  C162     1.0000 0.60190  0.62320  0.88720  Biso   1.000  C
  C163     1.0000 0.59600  0.64970  0.82900  Biso   1.000  C
  C164     1.0000 0.52890  0.65880  0.79830  Biso   1.000  C
  H68      1.0000 0.47720  0.65370  0.81390  Biso   1.000  H
  C165     1.0000 0.53800  0.67560  0.74420  Biso   1.000  C
  H69      1.0000 0.49250  0.68090  0.72280  Biso   1.000  H
  C166     1.0000 0.61600  0.68490  0.72030  Biso   1.000  C
  H70      1.0000 0.62370  0.69610  0.68350  Biso   1.000  H
  C167     1.0000 0.67940  0.67660  0.75440  Biso   1.000  C
  C168     1.0000 0.76890  0.68220  0.73910  Biso   1.000  C
  C169     1.0000 0.90500  0.66520  0.77310  Biso   1.000  C
  C170     1.0000 0.96180  0.61200  0.73860  Biso   1.000  C
  H71      1.0000 0.94080  0.58190  0.71690  Biso   1.000  H
  C171     1.0000 0.04770  0.60470  0.73690  Biso   1.000  C
  C172     1.0000 0.07940  0.65070  0.77010  Biso   1.000  C
  H72      1.0000 0.13730  0.64450  0.77080  Biso   1.000  H
  C173     1.0000 0.02440  0.70360  0.80070  Biso   1.000  C
  C174     1.0000 0.93750  0.71220  0.80100  Biso   1.000  C
  H73      1.0000 0.90090  0.75090  0.82080  Biso   1.000  H
  C175     1.0000 0.10610  0.54640  0.70090  Biso   1.000  C
  C176     1.0000 0.05400  0.75390  0.83560  Biso   1.000  C
  C177     1.0000 0.70070  0.57530  0.95280  Biso   1.000  C
  C178     1.0000 0.72410  0.61300  0.99320  Biso   1.000  C
  H74      1.0000 0.72000  0.66420  0.98910  Biso   1.000  H
  C179     1.0000 0.75390  0.57550  0.04030  Biso   1.000  C
  C180     1.0000 0.75570  0.50010  0.04810  Biso   1.000  C
  H75      1.0000 0.77510  0.47520  0.07980  Biso   1.000  H
  C181     1.0000 0.72890  0.46220  0.00880  Biso   1.000  C
  C182     1.0000 0.70140  0.49930  0.96030  Biso   1.000  C
  H76      1.0000 0.68400  0.47370  0.93340  Biso   1.000  H
  C183     1.0000 0.78110  0.61880  0.08180  Biso   1.000  C
  C184     1.0000 0.72430  0.38280  0.01820  Biso   1.000  C
