data_OLOKEF_clean
_audit_creation_date              2014-07-02
_audit_creation_method            'Materials Studio'
_symmetry_space_group_name_H-M    'P1'
_symmetry_Int_Tables_number       1
_symmetry_cell_setting            triclinic
loop_
_symmetry_equiv_pos_as_xyz
  x,y,z
_cell_length_a                    6.9100
_cell_length_b                    7.3890
_cell_length_c                    8.2230
_cell_angle_alpha                 90.0800
_cell_angle_beta                  109.8300
_cell_angle_gamma                 93.3700
loop_
_atom_site_label
_atom_site_type_symbol
_atom_site_fract_x
_atom_site_fract_y
_atom_site_fract_z
_atom_site_U_iso_or_equiv
_atom_site_adp_type
_atom_site_occupancy
Ni1    Ni    0.00000   0.50000   0.00000   0.01267  Uiso   1.00
Ni2    Ni    0.50000  -0.00000   0.00000   0.01267  Uiso   1.00
H1     H     0.42900   0.79600   0.53750   0.01267  Uiso   1.00
H2     H     0.57100   0.20400   0.46250   0.01267  Uiso   1.00
C1     C     0.58100   0.66130   0.84030   0.01267  Uiso   1.00
C2     C     0.53950   0.57140   0.66680   0.01267  Uiso   1.00
C3     C     0.58120   0.39210   0.64280   0.01267  Uiso   1.00
C4     C     0.45790   0.67700   0.52260   0.01267  Uiso   1.00
C5     C     0.64760   0.26050   0.78800   0.01267  Uiso   1.00
C6     C     0.41900   0.33870   0.15970   0.01267  Uiso   1.00
C7     C     0.46050   0.42860   0.33320   0.01267  Uiso   1.00
C8     C     0.41880   0.60790   0.35720   0.01267  Uiso   1.00
C9     C     0.54210   0.32300   0.47740   0.01267  Uiso   1.00
C10    C     0.35240   0.73950   0.21200   0.01267  Uiso   1.00
O1     O     0.44760   0.76440   0.85100   0.01267  Uiso   1.00
O2     O     0.74510   0.63790   0.96150   0.01267  Uiso   1.00
O3     O     0.82930   0.27030   0.89540   0.01267  Uiso   1.00
O4     O     0.51250   0.14110   0.78970   0.01267  Uiso   1.00
O5     O     0.55240   0.23560   0.14900   0.01267  Uiso   1.00
O6     O     0.25490   0.36210   0.03850   0.01267  Uiso   1.00
O7     O     0.17070   0.72970   0.10460   0.01267  Uiso   1.00
O8     O     0.48750   0.85890   0.21030   0.01267  Uiso   1.00
