data_image0
_cell_length_a       12.6356
_cell_length_b       12.6963
_cell_length_c       22.1755
_cell_angle_alpha    84.864
_cell_angle_beta     88.088
_cell_angle_gamma    72.98

_symmetry_space_group_name_H-M    "P 1"
_symmetry_int_tables_number       1

loop_
  _symmetry_equiv_pos_as_xyz
  'x, y, z'

loop_
  _atom_site_label
  _atom_site_occupancy
  _atom_site_fract_x
  _atom_site_fract_y
  _atom_site_fract_z
  _atom_site_thermal_displace_type
  _atom_site_B_iso_or_equiv
  _atom_site_type_symbol
  Ag1      1.0000 0.20449  0.41297  0.34693  Biso   1.000  Ag
  Ag2      1.0000 0.29361  0.60671  0.30066  Biso   1.000  Ag
  Ag3      1.0000 0.38949  0.40719  0.23907  Biso   1.000  Ag
  Ag4      1.0000 0.23522  0.58565  0.15907  Biso   1.000  Ag
  Ag5      1.0000 0.16162  0.38580  0.20204  Biso   1.000  Ag
  Ag6      1.0000 0.03133  0.57511  0.27309  Biso   1.000  Ag
  Sr1      1.0000 0.83904  0.04292  0.45728  Biso   1.000  Sr
  Sr2      1.0000 0.86945  0.89220  0.18048  Biso   1.000  Sr
  Sr3      1.0000 0.64513  0.94627  0.04992  Biso   1.000  Sr
  S1       1.0000 0.10443  0.68003  0.34266  Biso   1.000  S
  S2       1.0000 0.41134  0.34225  0.34704  Biso   1.000  S
  S3       1.0000 0.35207  0.68636  0.20290  Biso   1.000  S
  S4       1.0000 0.34921  0.29614  0.15920  Biso   1.000  S
  S5       1.0000 0.03066  0.65075  0.16437  Biso   1.000  S
  S6       1.0000 0.10872  0.29924  0.29870  Biso   1.000  S
  O1       1.0000 0.92064  0.84395  0.42449  Biso   1.000  O
  O2       1.0000 0.04679  0.88001  0.47768  Biso   1.000  O
  O3       1.0000 0.51818  0.21396  0.46591  Biso   1.000  O
  O4       1.0000 0.69182  0.22035  0.45828  Biso   1.000  O
  O5       1.0000 0.53250  0.82715  0.11255  Biso   1.000  O
  O6       1.0000 0.55850  0.82779  0.21112  Biso   1.000  O
  O7       1.0000 0.58211  0.16297  0.07648  Biso   1.000  O
  O8       1.0000 0.45396  0.11731  0.02975  Biso   1.000  O
  O9       1.0000 0.81000  0.77303  0.01285  Biso   1.000  O
  O10      1.0000 0.80050  0.78290  0.11180  Biso   1.000  O
  O11      1.0000 0.95732  0.11942  0.38017  Biso   1.000  O
  O12      1.0000 0.97117  0.11196  0.28023  Biso   1.000  O
  O13      1.0000 0.83570  0.99430  0.06716  Biso   1.000  O
  O14      1.0000 0.65765  0.97630  0.16507  Biso   1.000  O
  N1       1.0000 0.14670  0.51327  0.42924  Biso   1.000  N
  N2       1.0000 0.43550  0.53720  0.36941  Biso   1.000  N
  N3       1.0000 0.51410  0.49440  0.19752  Biso   1.000  N
  N4       1.0000 0.32127  0.47780  0.08244  Biso   1.000  N
  N5       1.0000 0.02850  0.45696  0.12901  Biso   1.000  N
  N6       1.0000 0.91920  0.46680  0.29715  Biso   1.000  N
  C1       1.0000 0.10430  0.62310  0.41830  Biso   1.000  C
  C2       1.0000 0.06510  0.69140  0.46544  Biso   1.000  C
  C3       1.0000 0.07490  0.64290  0.52426  Biso   1.000  C
  H1       1.0000 0.05230  0.68660  0.55650  Biso   1.000  H
  C4       1.0000 0.11790  0.53020  0.53507  Biso   1.000  C
  H2       1.0000 0.12380  0.49660  0.57430  Biso   1.000  H
  C5       1.0000 0.15190  0.46860  0.48661  Biso   1.000  C
  H3       1.0000 0.17980  0.39230  0.49380  Biso   1.000  H
  C6       1.0000 0.00830  0.81320  0.45473  Biso   1.000  C
  C7       1.0000 0.46890  0.42780  0.38534  Biso   1.000  C
  C8       1.0000 0.55270  0.38250  0.42864  Biso   1.000  C
  C9       1.0000 0.60440  0.45220  0.45161  Biso   1.000  C
  H4       1.0000 0.66250  0.42360  0.47870  Biso   1.000  H
  C10      1.0000 0.57010  0.56380  0.43436  Biso   1.000  C
  H5       1.0000 0.60420  0.61150  0.44950  Biso   1.000  H
  C11      1.0000 0.48470  0.60280  0.39445  Biso   1.000  C
  H6       1.0000 0.45940  0.67860  0.38410  Biso   1.000  H
  C12      1.0000 0.59000  0.26220  0.45193  Biso   1.000  C
  C13      1.0000 0.48920  0.60560  0.19069  Biso   1.000  C
  C14      1.0000 0.57080  0.65700  0.17322  Biso   1.000  C
  C15      1.0000 0.67800  0.59150  0.16479  Biso   1.000  C
  H7       1.0000 0.73390  0.62420  0.15490  Biso   1.000  H
  C16      1.0000 0.70230  0.47800  0.17100  Biso   1.000  C
  H8       1.0000 0.77360  0.43310  0.16430  Biso   1.000  H
  C17      1.0000 0.61800  0.43350  0.18739  Biso   1.000  C
  H9       1.0000 0.63380  0.35700  0.19170  Biso   1.000  H
  C18      1.0000 0.54920  0.78090  0.16504  Biso   1.000  C
  C19      1.0000 0.36710  0.36770  0.08959  Biso   1.000  C
  C20      1.0000 0.42730  0.30870  0.04289  Biso   1.000  C
  C21      1.0000 0.43550  0.36620  0.98749  Biso   1.000  C
  H10      1.0000 0.47310  0.32890  0.95530  Biso   1.000  H
  C22      1.0000 0.38740  0.47930  0.98052  Biso   1.000  C
  H11      1.0000 0.39180  0.51910  0.94370  Biso   1.000  H
  C23      1.0000 0.33310  0.53140  0.02883  Biso   1.000  C
  H12      1.0000 0.30290  0.60780  0.02430  Biso   1.000  H
  C24      1.0000 0.49060  0.18760  0.05101  Biso   1.000  C
  C25      1.0000 0.98060  0.56690  0.12011  Biso   1.000  C
  C26      1.0000 0.90030  0.61110  0.07505  Biso   1.000  C
  C27      1.0000 0.87450  0.53890  0.03869  Biso   1.000  C
  H13      1.0000 0.82480  0.56660  0.00710  Biso   1.000  H
  C28      1.0000 0.92170  0.42680  0.04895  Biso   1.000  C
  H14      1.0000 0.90270  0.37780  0.02570  Biso   1.000  H
  C29      1.0000 0.99790  0.38900  0.09467  Biso   1.000  C
  H15      1.0000 0.02970  0.31320  0.10210  Biso   1.000  H
  C30      1.0000 0.83460  0.73140  0.06546  Biso   1.000  C
  C31      1.0000 0.96410  0.35650  0.30469  Biso   1.000  C
  C32      1.0000 0.89760  0.28640  0.31837  Biso   1.000  C
  C33      1.0000 0.78460  0.33150  0.32447  Biso   1.000  C
  H16      1.0000 0.73950  0.28610  0.33420  Biso   1.000  H
  C34      1.0000 0.73940  0.44440  0.31606  Biso   1.000  C
  H17      1.0000 0.66340  0.47650  0.31940  Biso   1.000  H
  C35      1.0000 0.80890  0.50850  0.30267  Biso   1.000  C
  H18      1.0000 0.77820  0.58470  0.29710  Biso   1.000  H
  C36      1.0000 0.94720  0.16330  0.32710  Biso   1.000  C
  H19      1.0000 0.83300  0.05400  0.06680  Biso   1.000  H
  H20      1.0000 0.88400  0.96700  0.03700  Biso   1.000  H
  H21      1.0000 0.62300  0.94700  0.18010  Biso   1.000  H
  H22      1.0000 0.62900  0.03900  0.17420  Biso   1.000  H
  Ag7      1.0000 0.79551  0.58703  0.65307  Biso   1.000  Ag
  Ag8      1.0000 0.70639  0.39329  0.69934  Biso   1.000  Ag
  Ag9      1.0000 0.61051  0.59281  0.76093  Biso   1.000  Ag
  Ag10     1.0000 0.76478  0.41435  0.84093  Biso   1.000  Ag
  Ag11     1.0000 0.83838  0.61420  0.79796  Biso   1.000  Ag
  Ag12     1.0000 0.96867  0.42489  0.72691  Biso   1.000  Ag
  Sr4      1.0000 0.16096  0.95708  0.54272  Biso   1.000  Sr
  Sr5      1.0000 0.13055  0.10780  0.81952  Biso   1.000  Sr
  Sr6      1.0000 0.35487  0.05373  0.95008  Biso   1.000  Sr
  S7       1.0000 0.89557  0.31997  0.65734  Biso   1.000  S
  S8       1.0000 0.58866  0.65775  0.65296  Biso   1.000  S
  S9       1.0000 0.64793  0.31364  0.79710  Biso   1.000  S
  S10      1.0000 0.65079  0.70386  0.84080  Biso   1.000  S
  S11      1.0000 0.96934  0.34925  0.83563  Biso   1.000  S
  S12      1.0000 0.89128  0.70076  0.70130  Biso   1.000  S
  O15      1.0000 0.07936  0.15605  0.57551  Biso   1.000  O
  O16      1.0000 0.95321  0.11999  0.52232  Biso   1.000  O
  O17      1.0000 0.48182  0.78604  0.53409  Biso   1.000  O
  O18      1.0000 0.30818  0.77965  0.54172  Biso   1.000  O
  O19      1.0000 0.46750  0.17285  0.88745  Biso   1.000  O
  O20      1.0000 0.44150  0.17221  0.78888  Biso   1.000  O
  O21      1.0000 0.41789  0.83703  0.92352  Biso   1.000  O
  O22      1.0000 0.54604  0.88269  0.97025  Biso   1.000  O
  O23      1.0000 0.19000  0.22697  0.98715  Biso   1.000  O
  O24      1.0000 0.19950  0.21710  0.88820  Biso   1.000  O
  O25      1.0000 0.04268  0.88058  0.61983  Biso   1.000  O
  O26      1.0000 0.02883  0.88804  0.71977  Biso   1.000  O
  O27      1.0000 0.16430  0.00570  0.93284  Biso   1.000  O
  O28      1.0000 0.34235  0.02370  0.83493  Biso   1.000  O
  N7       1.0000 0.85330  0.48673  0.57076  Biso   1.000  N
  N8       1.0000 0.56450  0.46280  0.63059  Biso   1.000  N
  N9       1.0000 0.48590  0.50560  0.80248  Biso   1.000  N
  N10      1.0000 0.67873  0.52220  0.91756  Biso   1.000  N
  N11      1.0000 0.97150  0.54304  0.87099  Biso   1.000  N
  N12      1.0000 0.08080  0.53320  0.70285  Biso   1.000  N
  C37      1.0000 0.89570  0.37690  0.58170  Biso   1.000  C
  C38      1.0000 0.93490  0.30860  0.53456  Biso   1.000  C
  C39      1.0000 0.92510  0.35710  0.47574  Biso   1.000  C
  H23      1.0000 0.94770  0.31340  0.44350  Biso   1.000  H
  C40      1.0000 0.88210  0.46980  0.46493  Biso   1.000  C
  H24      1.0000 0.87620  0.50340  0.42570  Biso   1.000  H
  C41      1.0000 0.84810  0.53140  0.51339  Biso   1.000  C
  H25      1.0000 0.82020  0.60770  0.50620  Biso   1.000  H
  C42      1.0000 0.99170  0.18680  0.54527  Biso   1.000  C
  C43      1.0000 0.53110  0.57220  0.61466  Biso   1.000  C
  C44      1.0000 0.44730  0.61750  0.57136  Biso   1.000  C
  C45      1.0000 0.39560  0.54780  0.54839  Biso   1.000  C
  H26      1.0000 0.33750  0.57640  0.52130  Biso   1.000  H
  C46      1.0000 0.42990  0.43620  0.56564  Biso   1.000  C
  H27      1.0000 0.39580  0.38850  0.55050  Biso   1.000  H
  C47      1.0000 0.51530  0.39720  0.60555  Biso   1.000  C
  H28      1.0000 0.54060  0.32140  0.61590  Biso   1.000  H
  C48      1.0000 0.41000  0.73780  0.54807  Biso   1.000  C
  C49      1.0000 0.51080  0.39440  0.80931  Biso   1.000  C
  C50      1.0000 0.42920  0.34300  0.82678  Biso   1.000  C
  C51      1.0000 0.32200  0.40850  0.83521  Biso   1.000  C
  H29      1.0000 0.26610  0.37580  0.84510  Biso   1.000  H
  C52      1.0000 0.29770  0.52200  0.82900  Biso   1.000  C
  H30      1.0000 0.22640  0.56690  0.83570  Biso   1.000  H
  C53      1.0000 0.38200  0.56650  0.81261  Biso   1.000  C
  H31      1.0000 0.36620  0.64300  0.80830  Biso   1.000  H
  C54      1.0000 0.45080  0.21910  0.83496  Biso   1.000  C
  C55      1.0000 0.63290  0.63230  0.91041  Biso   1.000  C
  C56      1.0000 0.57270  0.69130  0.95711  Biso   1.000  C
  C57      1.0000 0.56450  0.63380  0.01251  Biso   1.000  C
  H32      1.0000 0.52690  0.67110  0.04470  Biso   1.000  H
  C58      1.0000 0.61260  0.52070  0.01948  Biso   1.000  C
  H33      1.0000 0.60820  0.48090  0.05630  Biso   1.000  H
  C59      1.0000 0.66690  0.46860  0.97117  Biso   1.000  C
  H34      1.0000 0.69710  0.39220  0.97570  Biso   1.000  H
  C60      1.0000 0.50940  0.81240  0.94899  Biso   1.000  C
  C61      1.0000 0.01940  0.43310  0.87989  Biso   1.000  C
  C62      1.0000 0.09970  0.38890  0.92495  Biso   1.000  C
  C63      1.0000 0.12550  0.46110  0.96131  Biso   1.000  C
  H35      1.0000 0.17520  0.43340  0.99290  Biso   1.000  H
  C64      1.0000 0.07830  0.57320  0.95105  Biso   1.000  C
  H36      1.0000 0.09730  0.62220  0.97430  Biso   1.000  H
  C65      1.0000 0.00210  0.61100  0.90533  Biso   1.000  C
  H37      1.0000 0.97030  0.68680  0.89790  Biso   1.000  H
  C66      1.0000 0.16540  0.26860  0.93454  Biso   1.000  C
  C67      1.0000 0.03590  0.64350  0.69531  Biso   1.000  C
  C68      1.0000 0.10240  0.71360  0.68163  Biso   1.000  C
  C69      1.0000 0.21540  0.66850  0.67553  Biso   1.000  C
  H38      1.0000 0.26050  0.71390  0.66580  Biso   1.000  H
  C70      1.0000 0.26060  0.55560  0.68394  Biso   1.000  C
  H39      1.0000 0.33660  0.52350  0.68060  Biso   1.000  H
  C71      1.0000 0.19110  0.49150  0.69733  Biso   1.000  C
  H40      1.0000 0.22180  0.41530  0.70290  Biso   1.000  H
  C72      1.0000 0.05280  0.83670  0.67290  Biso   1.000  C
  H41      1.0000 0.16700  0.94600  0.93320  Biso   1.000  H
  H42      1.0000 0.11600  0.03300  0.96300  Biso   1.000  H
  H43      1.0000 0.37700  0.05300  0.81990  Biso   1.000  H
  H44      1.0000 0.37100  0.96100  0.82580  Biso   1.000  H
