data_image0
_cell_length_a       26.982
_cell_length_b       8.033
_cell_length_c       23.293
_cell_angle_alpha    90
_cell_angle_beta     98.992
_cell_angle_gamma    90

_symmetry_space_group_name_H-M    "P 1"
_symmetry_int_tables_number       1

loop_
  _symmetry_equiv_pos_as_xyz
  'x, y, z'

loop_
  _atom_site_label
  _atom_site_occupancy
  _atom_site_fract_x
  _atom_site_fract_y
  _atom_site_fract_z
  _atom_site_thermal_displace_type
  _atom_site_B_iso_or_equiv
  _atom_site_type_symbol
  Zn1      1.0000 0.03981  0.12477  0.00164  Biso   1.000  Zn
  O1       1.0000 0.98605  0.23340  0.04153  Biso   1.000  O
  O2       1.0000 0.92559  0.04690  0.04215  Biso   1.000  O
  O3       1.0000 0.85255  0.60990  0.19660  Biso   1.000  O
  O4       1.0000 0.93886  0.99500  0.42339  Biso   1.000  O
  O5       1.0000 0.99864  0.80830  0.42418  Biso   1.000  O
  N1       1.0000 0.09385  0.30190  0.01482  Biso   1.000  N
  N2       1.0000 0.23422  0.67980  0.99910  Biso   1.000  N
  C1       1.0000 0.94578  0.18410  0.05560  Biso   1.000  C
  C2       1.0000 0.92008  0.29870  0.09120  Biso   1.000  C
  C3       1.0000 0.87800  0.24910  0.11410  Biso   1.000  C
  H1       1.0000 0.86460  0.14360  0.10590  Biso   1.000  H
  C4       1.0000 0.85600  0.35680  0.14920  Biso   1.000  C
  H2       1.0000 0.82720  0.32430  0.16370  Biso   1.000  H
  C5       1.0000 0.87540  0.50420  0.16200  Biso   1.000  C
  C6       1.0000 0.91610  0.56310  0.13740  Biso   1.000  C
  H3       1.0000 0.92800  0.67110  0.14440  Biso   1.000  H
  C7       1.0000 0.93798  0.45760  0.10290  Biso   1.000  C
  H4       1.0000 0.96560  0.49380  0.08690  Biso   1.000  H
  C8       1.0000 0.88090  0.67490  0.24580  Biso   1.000  C
  C9       1.0000 0.86380  0.81460  0.26770  Biso   1.000  C
  H5       1.0000 0.83510  0.86630  0.24850  Biso   1.000  H
  C10      1.0000 0.88910  0.88110  0.31870  Biso   1.000  C
  H6       1.0000 0.87680  0.97650  0.33420  Biso   1.000  H
  C11      1.0000 0.93218  0.80860  0.34690  Biso   1.000  C
  C12      1.0000 0.94860  0.66430  0.32290  Biso   1.000  C
  H7       1.0000 0.97740  0.61180  0.34140  Biso   1.000  H
  C13      1.0000 0.92340  0.59780  0.27310  Biso   1.000  C
  H8       1.0000 0.93500  0.50100  0.25770  Biso   1.000  H
  C14      1.0000 0.95858  0.87510  0.40200  Biso   1.000  C
  C15      1.0000 0.13486  0.29210  0.99040  Biso   1.000  C
  H9       1.0000 0.13990  0.19730  0.96920  Biso   1.000  H
  C16      1.0000 0.17047  0.41660  0.99520  Biso   1.000  C
  H10      1.0000 0.19910  0.40380  0.97790  Biso   1.000  H
  C17      1.0000 0.16389  0.55700  0.02490  Biso   1.000  C
  C18      1.0000 0.12180  0.56750  0.05100  Biso   1.000  C
  H11      1.0000 0.11570  0.66170  0.07200  Biso   1.000  H
  C19      1.0000 0.08820  0.43260  0.04540  Biso   1.000  C
  H12      1.0000 0.06040  0.43790  0.06450  Biso   1.000  H
  C20      1.0000 0.19881  0.69900  0.02800  Biso   1.000  C
  C21      1.0000 0.18960  0.84780  0.06200  Biso   1.000  C
  H13      1.0000 0.19920  0.82510  0.10270  Biso   1.000  H
  H14      1.0000 0.15450  0.87550  0.05440  Biso   1.000  H
  H15      1.0000 0.20890  0.93940  0.05100  Biso   1.000  H
  Zn2      1.0000 0.53981  0.62477  0.00164  Biso   1.000  Zn
  O6       1.0000 0.48605  0.73340  0.04153  Biso   1.000  O
  O7       1.0000 0.42559  0.54690  0.04215  Biso   1.000  O
  O8       1.0000 0.35255  0.10990  0.19660  Biso   1.000  O
  O9       1.0000 0.43886  0.49500  0.42339  Biso   1.000  O
  O10      1.0000 0.49864  0.30830  0.42418  Biso   1.000  O
  N3       1.0000 0.59385  0.80190  0.01482  Biso   1.000  N
  N4       1.0000 0.73422  0.17980  0.99910  Biso   1.000  N
  C22      1.0000 0.44578  0.68410  0.05560  Biso   1.000  C
  C23      1.0000 0.42008  0.79870  0.09120  Biso   1.000  C
  C24      1.0000 0.37800  0.74910  0.11410  Biso   1.000  C
  H16      1.0000 0.36460  0.64360  0.10590  Biso   1.000  H
  C25      1.0000 0.35600  0.85680  0.14920  Biso   1.000  C
  H17      1.0000 0.32720  0.82430  0.16370  Biso   1.000  H
  C26      1.0000 0.37540  0.00420  0.16200  Biso   1.000  C
  C27      1.0000 0.41610  0.06310  0.13740  Biso   1.000  C
  H18      1.0000 0.42800  0.17110  0.14440  Biso   1.000  H
  C28      1.0000 0.43798  0.95760  0.10290  Biso   1.000  C
  H19      1.0000 0.46560  0.99380  0.08690  Biso   1.000  H
  C29      1.0000 0.38090  0.17490  0.24580  Biso   1.000  C
  C30      1.0000 0.36380  0.31460  0.26770  Biso   1.000  C
  H20      1.0000 0.33510  0.36630  0.24850  Biso   1.000  H
  C31      1.0000 0.38910  0.38110  0.31870  Biso   1.000  C
  H21      1.0000 0.37680  0.47650  0.33420  Biso   1.000  H
  C32      1.0000 0.43218  0.30860  0.34690  Biso   1.000  C
  C33      1.0000 0.44860  0.16430  0.32290  Biso   1.000  C
  H22      1.0000 0.47740  0.11180  0.34140  Biso   1.000  H
  C34      1.0000 0.42340  0.09780  0.27310  Biso   1.000  C
  H23      1.0000 0.43500  0.00100  0.25770  Biso   1.000  H
  C35      1.0000 0.45858  0.37510  0.40200  Biso   1.000  C
  C36      1.0000 0.63486  0.79210  0.99040  Biso   1.000  C
  H24      1.0000 0.63990  0.69730  0.96920  Biso   1.000  H
  C37      1.0000 0.67047  0.91660  0.99520  Biso   1.000  C
  H25      1.0000 0.69910  0.90380  0.97790  Biso   1.000  H
  C38      1.0000 0.66389  0.05700  0.02490  Biso   1.000  C
  C39      1.0000 0.62180  0.06750  0.05100  Biso   1.000  C
  H26      1.0000 0.61570  0.16170  0.07200  Biso   1.000  H
  C40      1.0000 0.58820  0.93260  0.04540  Biso   1.000  C
  H27      1.0000 0.56040  0.93790  0.06450  Biso   1.000  H
  C41      1.0000 0.69881  0.19900  0.02800  Biso   1.000  C
  C42      1.0000 0.68960  0.34780  0.06200  Biso   1.000  C
  H28      1.0000 0.69920  0.32510  0.10270  Biso   1.000  H
  H29      1.0000 0.65450  0.37550  0.05440  Biso   1.000  H
  H30      1.0000 0.70890  0.43940  0.05100  Biso   1.000  H
  Zn3      1.0000 0.96019  0.12477  0.49836  Biso   1.000  Zn
  O11      1.0000 0.01395  0.23340  0.45847  Biso   1.000  O
  O12      1.0000 0.07441  0.04690  0.45785  Biso   1.000  O
  O13      1.0000 0.14745  0.60990  0.30340  Biso   1.000  O
  O14      1.0000 0.06114  0.99500  0.07661  Biso   1.000  O
  O15      1.0000 0.00136  0.80830  0.07582  Biso   1.000  O
  N5       1.0000 0.90615  0.30190  0.48518  Biso   1.000  N
  N6       1.0000 0.76578  0.67980  0.50090  Biso   1.000  N
  C43      1.0000 0.05422  0.18410  0.44440  Biso   1.000  C
  C44      1.0000 0.07992  0.29870  0.40880  Biso   1.000  C
  C45      1.0000 0.12200  0.24910  0.38590  Biso   1.000  C
  H31      1.0000 0.13540  0.14360  0.39410  Biso   1.000  H
  C46      1.0000 0.14400  0.35680  0.35080  Biso   1.000  C
  H32      1.0000 0.17280  0.32430  0.33630  Biso   1.000  H
  C47      1.0000 0.12460  0.50420  0.33800  Biso   1.000  C
  C48      1.0000 0.08390  0.56310  0.36260  Biso   1.000  C
  H33      1.0000 0.07200  0.67110  0.35560  Biso   1.000  H
  C49      1.0000 0.06202  0.45760  0.39710  Biso   1.000  C
  H34      1.0000 0.03440  0.49380  0.41310  Biso   1.000  H
  C50      1.0000 0.11910  0.67490  0.25420  Biso   1.000  C
  C51      1.0000 0.13620  0.81460  0.23230  Biso   1.000  C
  H35      1.0000 0.16490  0.86630  0.25150  Biso   1.000  H
  C52      1.0000 0.11090  0.88110  0.18130  Biso   1.000  C
  H36      1.0000 0.12320  0.97650  0.16580  Biso   1.000  H
  C53      1.0000 0.06782  0.80860  0.15310  Biso   1.000  C
  C54      1.0000 0.05140  0.66430  0.17710  Biso   1.000  C
  H37      1.0000 0.02260  0.61180  0.15860  Biso   1.000  H
  C55      1.0000 0.07660  0.59780  0.22690  Biso   1.000  C
  H38      1.0000 0.06500  0.50100  0.24230  Biso   1.000  H
  C56      1.0000 0.04142  0.87510  0.09800  Biso   1.000  C
  C57      1.0000 0.86514  0.29210  0.50960  Biso   1.000  C
  H39      1.0000 0.86010  0.19730  0.53080  Biso   1.000  H
  C58      1.0000 0.82953  0.41660  0.50480  Biso   1.000  C
  H40      1.0000 0.80090  0.40380  0.52210  Biso   1.000  H
  C59      1.0000 0.83611  0.55700  0.47510  Biso   1.000  C
  C60      1.0000 0.87820  0.56750  0.44900  Biso   1.000  C
  H41      1.0000 0.88430  0.66170  0.42800  Biso   1.000  H
  C61      1.0000 0.91180  0.43260  0.45460  Biso   1.000  C
  H42      1.0000 0.93960  0.43790  0.43550  Biso   1.000  H
  C62      1.0000 0.80119  0.69900  0.47200  Biso   1.000  C
  C63      1.0000 0.81040  0.84780  0.43800  Biso   1.000  C
  H43      1.0000 0.80080  0.82510  0.39730  Biso   1.000  H
  H44      1.0000 0.84550  0.87550  0.44560  Biso   1.000  H
  H45      1.0000 0.79110  0.93940  0.44900  Biso   1.000  H
  Zn4      1.0000 0.46019  0.62477  0.49836  Biso   1.000  Zn
  O16      1.0000 0.51395  0.73340  0.45847  Biso   1.000  O
  O17      1.0000 0.57441  0.54690  0.45785  Biso   1.000  O
  O18      1.0000 0.64745  0.10990  0.30340  Biso   1.000  O
  O19      1.0000 0.56114  0.49500  0.07661  Biso   1.000  O
  O20      1.0000 0.50136  0.30830  0.07582  Biso   1.000  O
  N7       1.0000 0.40615  0.80190  0.48518  Biso   1.000  N
  N8       1.0000 0.26578  0.17980  0.50090  Biso   1.000  N
  C64      1.0000 0.55422  0.68410  0.44440  Biso   1.000  C
  C65      1.0000 0.57992  0.79870  0.40880  Biso   1.000  C
  C66      1.0000 0.62200  0.74910  0.38590  Biso   1.000  C
  H46      1.0000 0.63540  0.64360  0.39410  Biso   1.000  H
  C67      1.0000 0.64400  0.85680  0.35080  Biso   1.000  C
  H47      1.0000 0.67280  0.82430  0.33630  Biso   1.000  H
  C68      1.0000 0.62460  0.00420  0.33800  Biso   1.000  C
  C69      1.0000 0.58390  0.06310  0.36260  Biso   1.000  C
  H48      1.0000 0.57200  0.17110  0.35560  Biso   1.000  H
  C70      1.0000 0.56202  0.95760  0.39710  Biso   1.000  C
  H49      1.0000 0.53440  0.99380  0.41310  Biso   1.000  H
  C71      1.0000 0.61910  0.17490  0.25420  Biso   1.000  C
  C72      1.0000 0.63620  0.31460  0.23230  Biso   1.000  C
  H50      1.0000 0.66490  0.36630  0.25150  Biso   1.000  H
  C73      1.0000 0.61090  0.38110  0.18130  Biso   1.000  C
  H51      1.0000 0.62320  0.47650  0.16580  Biso   1.000  H
  C74      1.0000 0.56782  0.30860  0.15310  Biso   1.000  C
  C75      1.0000 0.55140  0.16430  0.17710  Biso   1.000  C
  H52      1.0000 0.52260  0.11180  0.15860  Biso   1.000  H
  C76      1.0000 0.57660  0.09780  0.22690  Biso   1.000  C
  H53      1.0000 0.56500  0.00100  0.24230  Biso   1.000  H
  C77      1.0000 0.54142  0.37510  0.09800  Biso   1.000  C
  C78      1.0000 0.36514  0.79210  0.50960  Biso   1.000  C
  H54      1.0000 0.36010  0.69730  0.53080  Biso   1.000  H
  C79      1.0000 0.32953  0.91660  0.50480  Biso   1.000  C
  H55      1.0000 0.30090  0.90380  0.52210  Biso   1.000  H
  C80      1.0000 0.33611  0.05700  0.47510  Biso   1.000  C
  C81      1.0000 0.37820  0.06750  0.44900  Biso   1.000  C
  H56      1.0000 0.38430  0.16170  0.42800  Biso   1.000  H
  C82      1.0000 0.41180  0.93260  0.45460  Biso   1.000  C
  H57      1.0000 0.43960  0.93790  0.43550  Biso   1.000  H
  C83      1.0000 0.30119  0.19900  0.47200  Biso   1.000  C
  C84      1.0000 0.31040  0.34780  0.43800  Biso   1.000  C
  H58      1.0000 0.30080  0.32510  0.39730  Biso   1.000  H
  H59      1.0000 0.34550  0.37550  0.44560  Biso   1.000  H
  H60      1.0000 0.29110  0.43940  0.44900  Biso   1.000  H
  Zn5      1.0000 0.96019  0.87523  0.99836  Biso   1.000  Zn
  O21      1.0000 0.01395  0.76660  0.95847  Biso   1.000  O
  O22      1.0000 0.07441  0.95310  0.95785  Biso   1.000  O
  O23      1.0000 0.14745  0.39010  0.80340  Biso   1.000  O
  O24      1.0000 0.06114  0.00500  0.57661  Biso   1.000  O
  O25      1.0000 0.00136  0.19170  0.57582  Biso   1.000  O
  N9       1.0000 0.90615  0.69810  0.98518  Biso   1.000  N
  N10      1.0000 0.76578  0.32020  0.00090  Biso   1.000  N
  C85      1.0000 0.05422  0.81590  0.94440  Biso   1.000  C
  C86      1.0000 0.07992  0.70130  0.90880  Biso   1.000  C
  C87      1.0000 0.12200  0.75090  0.88590  Biso   1.000  C
  H61      1.0000 0.13540  0.85640  0.89410  Biso   1.000  H
  C88      1.0000 0.14400  0.64320  0.85080  Biso   1.000  C
  H62      1.0000 0.17280  0.67570  0.83630  Biso   1.000  H
  C89      1.0000 0.12460  0.49580  0.83800  Biso   1.000  C
  C90      1.0000 0.08390  0.43690  0.86260  Biso   1.000  C
  H63      1.0000 0.07200  0.32890  0.85560  Biso   1.000  H
  C91      1.0000 0.06202  0.54240  0.89710  Biso   1.000  C
  H64      1.0000 0.03440  0.50620  0.91310  Biso   1.000  H
  C92      1.0000 0.11910  0.32510  0.75420  Biso   1.000  C
  C93      1.0000 0.13620  0.18540  0.73230  Biso   1.000  C
  H65      1.0000 0.16490  0.13370  0.75150  Biso   1.000  H
  C94      1.0000 0.11090  0.11890  0.68130  Biso   1.000  C
  H66      1.0000 0.12320  0.02350  0.66580  Biso   1.000  H
  C95      1.0000 0.06782  0.19140  0.65310  Biso   1.000  C
  C96      1.0000 0.05140  0.33570  0.67710  Biso   1.000  C
  H67      1.0000 0.02260  0.38820  0.65860  Biso   1.000  H
  C97      1.0000 0.07660  0.40220  0.72690  Biso   1.000  C
  H68      1.0000 0.06500  0.49900  0.74230  Biso   1.000  H
  C98      1.0000 0.04142  0.12490  0.59800  Biso   1.000  C
  C99      1.0000 0.86514  0.70790  0.00960  Biso   1.000  C
  H69      1.0000 0.86010  0.80270  0.03080  Biso   1.000  H
  C100     1.0000 0.82953  0.58340  0.00480  Biso   1.000  C
  H70      1.0000 0.80090  0.59620  0.02210  Biso   1.000  H
  C101     1.0000 0.83611  0.44300  0.97510  Biso   1.000  C
  C102     1.0000 0.87820  0.43250  0.94900  Biso   1.000  C
  H71      1.0000 0.88430  0.33830  0.92800  Biso   1.000  H
  C103     1.0000 0.91180  0.56740  0.95460  Biso   1.000  C
  H72      1.0000 0.93960  0.56210  0.93550  Biso   1.000  H
  C104     1.0000 0.80119  0.30100  0.97200  Biso   1.000  C
  C105     1.0000 0.81040  0.15220  0.93800  Biso   1.000  C
  H73      1.0000 0.80080  0.17490  0.89730  Biso   1.000  H
  H74      1.0000 0.84550  0.12450  0.94560  Biso   1.000  H
  H75      1.0000 0.79110  0.06060  0.94900  Biso   1.000  H
  Zn6      1.0000 0.46019  0.37523  0.99836  Biso   1.000  Zn
  O26      1.0000 0.51395  0.26660  0.95847  Biso   1.000  O
  O27      1.0000 0.57441  0.45310  0.95785  Biso   1.000  O
  O28      1.0000 0.64745  0.89010  0.80340  Biso   1.000  O
  O29      1.0000 0.56114  0.50500  0.57661  Biso   1.000  O
  O30      1.0000 0.50136  0.69170  0.57582  Biso   1.000  O
  N11      1.0000 0.40615  0.19810  0.98518  Biso   1.000  N
  N12      1.0000 0.26578  0.82020  0.00090  Biso   1.000  N
  C106     1.0000 0.55422  0.31590  0.94440  Biso   1.000  C
  C107     1.0000 0.57992  0.20130  0.90880  Biso   1.000  C
  C108     1.0000 0.62200  0.25090  0.88590  Biso   1.000  C
  H76      1.0000 0.63540  0.35640  0.89410  Biso   1.000  H
  C109     1.0000 0.64400  0.14320  0.85080  Biso   1.000  C
  H77      1.0000 0.67280  0.17570  0.83630  Biso   1.000  H
  C110     1.0000 0.62460  0.99580  0.83800  Biso   1.000  C
  C111     1.0000 0.58390  0.93690  0.86260  Biso   1.000  C
  H78      1.0000 0.57200  0.82890  0.85560  Biso   1.000  H
  C112     1.0000 0.56202  0.04240  0.89710  Biso   1.000  C
  H79      1.0000 0.53440  0.00620  0.91310  Biso   1.000  H
  C113     1.0000 0.61910  0.82510  0.75420  Biso   1.000  C
  C114     1.0000 0.63620  0.68540  0.73230  Biso   1.000  C
  H80      1.0000 0.66490  0.63370  0.75150  Biso   1.000  H
  C115     1.0000 0.61090  0.61890  0.68130  Biso   1.000  C
  H81      1.0000 0.62320  0.52350  0.66580  Biso   1.000  H
  C116     1.0000 0.56782  0.69140  0.65310  Biso   1.000  C
  C117     1.0000 0.55140  0.83570  0.67710  Biso   1.000  C
  H82      1.0000 0.52260  0.88820  0.65860  Biso   1.000  H
  C118     1.0000 0.57660  0.90220  0.72690  Biso   1.000  C
  H83      1.0000 0.56500  0.99900  0.74230  Biso   1.000  H
  C119     1.0000 0.54142  0.62490  0.59800  Biso   1.000  C
  C120     1.0000 0.36514  0.20790  0.00960  Biso   1.000  C
  H84      1.0000 0.36010  0.30270  0.03080  Biso   1.000  H
  C121     1.0000 0.32953  0.08340  0.00480  Biso   1.000  C
  H85      1.0000 0.30090  0.09620  0.02210  Biso   1.000  H
  C122     1.0000 0.33611  0.94300  0.97510  Biso   1.000  C
  C123     1.0000 0.37820  0.93250  0.94900  Biso   1.000  C
  H86      1.0000 0.38430  0.83830  0.92800  Biso   1.000  H
  C124     1.0000 0.41180  0.06740  0.95460  Biso   1.000  C
  H87      1.0000 0.43960  0.06210  0.93550  Biso   1.000  H
  C125     1.0000 0.30119  0.80100  0.97200  Biso   1.000  C
  C126     1.0000 0.31040  0.65220  0.93800  Biso   1.000  C
  H88      1.0000 0.30080  0.67490  0.89730  Biso   1.000  H
  H89      1.0000 0.34550  0.62450  0.94560  Biso   1.000  H
  H90      1.0000 0.29110  0.56060  0.94900  Biso   1.000  H
  Zn7      1.0000 0.03981  0.87523  0.50164  Biso   1.000  Zn
  O31      1.0000 0.98605  0.76660  0.54153  Biso   1.000  O
  O32      1.0000 0.92559  0.95310  0.54215  Biso   1.000  O
  O33      1.0000 0.85255  0.39010  0.69660  Biso   1.000  O
  O34      1.0000 0.93886  0.00500  0.92339  Biso   1.000  O
  O35      1.0000 0.99864  0.19170  0.92418  Biso   1.000  O
  N13      1.0000 0.09385  0.69810  0.51482  Biso   1.000  N
  N14      1.0000 0.23422  0.32020  0.49910  Biso   1.000  N
  C127     1.0000 0.94578  0.81590  0.55560  Biso   1.000  C
  C128     1.0000 0.92008  0.70130  0.59120  Biso   1.000  C
  C129     1.0000 0.87800  0.75090  0.61410  Biso   1.000  C
  H91      1.0000 0.86460  0.85640  0.60590  Biso   1.000  H
  C130     1.0000 0.85600  0.64320  0.64920  Biso   1.000  C
  H92      1.0000 0.82720  0.67570  0.66370  Biso   1.000  H
  C131     1.0000 0.87540  0.49580  0.66200  Biso   1.000  C
  C132     1.0000 0.91610  0.43690  0.63740  Biso   1.000  C
  H93      1.0000 0.92800  0.32890  0.64440  Biso   1.000  H
  C133     1.0000 0.93798  0.54240  0.60290  Biso   1.000  C
  H94      1.0000 0.96560  0.50620  0.58690  Biso   1.000  H
  C134     1.0000 0.88090  0.32510  0.74580  Biso   1.000  C
  C135     1.0000 0.86380  0.18540  0.76770  Biso   1.000  C
  H95      1.0000 0.83510  0.13370  0.74850  Biso   1.000  H
  C136     1.0000 0.88910  0.11890  0.81870  Biso   1.000  C
  H96      1.0000 0.87680  0.02350  0.83420  Biso   1.000  H
  C137     1.0000 0.93218  0.19140  0.84690  Biso   1.000  C
  C138     1.0000 0.94860  0.33570  0.82290  Biso   1.000  C
  H97      1.0000 0.97740  0.38820  0.84140  Biso   1.000  H
  C139     1.0000 0.92340  0.40220  0.77310  Biso   1.000  C
  H98      1.0000 0.93500  0.49900  0.75770  Biso   1.000  H
  C140     1.0000 0.95858  0.12490  0.90200  Biso   1.000  C
  C141     1.0000 0.13486  0.70790  0.49040  Biso   1.000  C
  H99      1.0000 0.13990  0.80270  0.46920  Biso   1.000  H
  C142     1.0000 0.17047  0.58340  0.49520  Biso   1.000  C
  H100     1.0000 0.19910  0.59620  0.47790  Biso   1.000  H
  C143     1.0000 0.16389  0.44300  0.52490  Biso   1.000  C
  C144     1.0000 0.12180  0.43250  0.55100  Biso   1.000  C
  H101     1.0000 0.11570  0.33830  0.57200  Biso   1.000  H
  C145     1.0000 0.08820  0.56740  0.54540  Biso   1.000  C
  H102     1.0000 0.06040  0.56210  0.56450  Biso   1.000  H
  C146     1.0000 0.19881  0.30100  0.52800  Biso   1.000  C
  C147     1.0000 0.18960  0.15220  0.56200  Biso   1.000  C
  H103     1.0000 0.19920  0.17490  0.60270  Biso   1.000  H
  H104     1.0000 0.15450  0.12450  0.55440  Biso   1.000  H
  H105     1.0000 0.20890  0.06060  0.55100  Biso   1.000  H
  Zn8      1.0000 0.53981  0.37523  0.50164  Biso   1.000  Zn
  O36      1.0000 0.48605  0.26660  0.54153  Biso   1.000  O
  O37      1.0000 0.42559  0.45310  0.54215  Biso   1.000  O
  O38      1.0000 0.35255  0.89010  0.69660  Biso   1.000  O
  O39      1.0000 0.43886  0.50500  0.92339  Biso   1.000  O
  O40      1.0000 0.49864  0.69170  0.92418  Biso   1.000  O
  N15      1.0000 0.59385  0.19810  0.51482  Biso   1.000  N
  N16      1.0000 0.73422  0.82020  0.49910  Biso   1.000  N
  C148     1.0000 0.44578  0.31590  0.55560  Biso   1.000  C
  C149     1.0000 0.42008  0.20130  0.59120  Biso   1.000  C
  C150     1.0000 0.37800  0.25090  0.61410  Biso   1.000  C
  H106     1.0000 0.36460  0.35640  0.60590  Biso   1.000  H
  C151     1.0000 0.35600  0.14320  0.64920  Biso   1.000  C
  H107     1.0000 0.32720  0.17570  0.66370  Biso   1.000  H
  C152     1.0000 0.37540  0.99580  0.66200  Biso   1.000  C
  C153     1.0000 0.41610  0.93690  0.63740  Biso   1.000  C
  H108     1.0000 0.42800  0.82890  0.64440  Biso   1.000  H
  C154     1.0000 0.43798  0.04240  0.60290  Biso   1.000  C
  H109     1.0000 0.46560  0.00620  0.58690  Biso   1.000  H
  C155     1.0000 0.38090  0.82510  0.74580  Biso   1.000  C
  C156     1.0000 0.36380  0.68540  0.76770  Biso   1.000  C
  H110     1.0000 0.33510  0.63370  0.74850  Biso   1.000  H
  C157     1.0000 0.38910  0.61890  0.81870  Biso   1.000  C
  H111     1.0000 0.37680  0.52350  0.83420  Biso   1.000  H
  C158     1.0000 0.43218  0.69140  0.84690  Biso   1.000  C
  C159     1.0000 0.44860  0.83570  0.82290  Biso   1.000  C
  H112     1.0000 0.47740  0.88820  0.84140  Biso   1.000  H
  C160     1.0000 0.42340  0.90220  0.77310  Biso   1.000  C
  H113     1.0000 0.43500  0.99900  0.75770  Biso   1.000  H
  C161     1.0000 0.45858  0.62490  0.90200  Biso   1.000  C
  C162     1.0000 0.63486  0.20790  0.49040  Biso   1.000  C
  H114     1.0000 0.63990  0.30270  0.46920  Biso   1.000  H
  C163     1.0000 0.67047  0.08340  0.49520  Biso   1.000  C
  H115     1.0000 0.69910  0.09620  0.47790  Biso   1.000  H
  C164     1.0000 0.66389  0.94300  0.52490  Biso   1.000  C
  C165     1.0000 0.62180  0.93250  0.55100  Biso   1.000  C
  H116     1.0000 0.61570  0.83830  0.57200  Biso   1.000  H
  C166     1.0000 0.58820  0.06740  0.54540  Biso   1.000  C
  H117     1.0000 0.56040  0.06210  0.56450  Biso   1.000  H
  C167     1.0000 0.69881  0.80100  0.52800  Biso   1.000  C
  C168     1.0000 0.68960  0.65220  0.56200  Biso   1.000  C
  H118     1.0000 0.69920  0.67490  0.60270  Biso   1.000  H
  H119     1.0000 0.65450  0.62450  0.55440  Biso   1.000  H
  H120     1.0000 0.70890  0.56060  0.55100  Biso   1.000  H
