data_image0
_cell_length_a       32.27
_cell_length_b       18.631
_cell_length_c       23.512
_cell_angle_alpha    90
_cell_angle_beta     117.225
_cell_angle_gamma    90

_symmetry_space_group_name_H-M    "P 1"
_symmetry_int_tables_number       1

loop_
  _symmetry_equiv_pos_as_xyz
  'x, y, z'

loop_
  _atom_site_label
  _atom_site_occupancy
  _atom_site_fract_x
  _atom_site_fract_y
  _atom_site_fract_z
  _atom_site_thermal_displace_type
  _atom_site_B_iso_or_equiv
  _atom_site_type_symbol
  Cu1      1.0000 0.25121  0.44778  0.29787  Biso   1.000  Cu
  Cu2      1.0000 0.23987  0.51803  0.19395  Biso   1.000  Cu
  Cu3      1.0000 0.04077  0.23112  0.30217  Biso   1.000  Cu
  O1       1.0000 0.25750  0.36230  0.25270  Biso   1.000  O
  O2       1.0000 0.24520  0.42250  0.16400  Biso   1.000  O
  O3       1.0000 0.26720  0.10020  0.26180  Biso   1.000  O
  O4       1.0000 0.25880  0.04190  0.17520  Biso   1.000  O
  O5       1.0000 0.31751  0.47190  0.32420  Biso   1.000  O
  O6       1.0000 0.30720  0.53080  0.23810  Biso   1.000  O
  O7       1.0000 0.50730  0.65930  0.33040  Biso   1.000  O
  O8       1.0000 0.44090  0.65700  0.23930  Biso   1.000  O
  O9       1.0000 0.18450  0.43820  0.25320  Biso   1.000  O
  O10      1.0000 0.17230  0.49790  0.16580  Biso   1.000  O
  O11      1.0000 0.05414  0.30340  0.25700  Biso   1.000  O
  O12      1.0000 0.98281  0.29450  0.17500  Biso   1.000  O
  C1       1.0000 0.25250  0.36800  0.19910  Biso   1.000  C
  C2       1.0000 0.25670  0.29690  0.17010  Biso   1.000  C
  C3       1.0000 0.25270  0.29630  0.10870  Biso   1.000  C
  H1       1.0000 0.24980  0.33920  0.08700  Biso   1.000  H
  C4       1.0000 0.25320  0.23140  0.07980  Biso   1.000  C
  C5       1.0000 0.25760  0.16730  0.11220  Biso   1.000  C
  H2       1.0000 0.25800  0.12390  0.09280  Biso   1.000  H
  C6       1.0000 0.26160  0.16790  0.17360  Biso   1.000  C
  C7       1.0000 0.26110  0.23270  0.20260  Biso   1.000  C
  H3       1.0000 0.26370  0.23310  0.24360  Biso   1.000  H
  C8       1.0000 0.26260  0.09890  0.20280  Biso   1.000  C
  C9       1.0000 0.33100  0.50580  0.29490  Biso   1.000  C
  C10      1.0000 0.37987  0.52400  0.32590  Biso   1.000  C
  C11      1.0000 0.39759  0.56880  0.29500  Biso   1.000  C
  H4       1.0000 0.37830  0.58500  0.25380  Biso   1.000  H
  C12      1.0000 0.44420  0.58930  0.32560  Biso   1.000  C
  C13      1.0000 0.47299  0.56500  0.38710  Biso   1.000  C
  H5       1.0000 0.50410  0.57870  0.40760  Biso   1.000  H
  C14      1.0000 0.45530  0.52020  0.41800  Biso   1.000  C
  C15      1.0000 0.40870  0.49970  0.38740  Biso   1.000  C
  H6       1.0000 0.39680  0.46980  0.40810  Biso   1.000  H
  C16      1.0000 0.46380  0.64240  0.29620  Biso   1.000  C
  H7       1.0000 0.45240  0.68410  0.31040  Biso   1.000  H
  C17      1.0000 0.15730  0.45750  0.19700  Biso   1.000  C
  C18      1.0000 0.10679  0.44480  0.16930  Biso   1.000  C
  C19      1.0000 0.08936  0.39720  0.19860  Biso   1.000  C
  H8       1.0000 0.10910  0.37770  0.23830  Biso   1.000  H
  C20      1.0000 0.04242  0.37880  0.16860  Biso   1.000  C
  C21      1.0000 0.01290  0.40800  0.10930  Biso   1.000  C
  H9       1.0000 0.98150  0.39570  0.08920  Biso   1.000  H
  C22      1.0000 0.03030  0.45560  0.08000  Biso   1.000  C
  C23      1.0000 0.07730  0.47400  0.11000  Biso   1.000  C
  H10      1.0000 0.08890  0.50590  0.09040  Biso   1.000  H
  C24      1.0000 0.02050  0.32570  0.19920  Biso   1.000  C
  C25      1.0000 0.25280  0.22660  0.01740  Biso   1.000  C
  O13      1.0000 0.27600  0.18100  0.00710  Biso   1.000  O
  C26      1.0000 0.99680  0.47850  0.01700  Biso   1.000  C
  O14      1.0000 0.96540  0.43900  0.98180  Biso   1.000  O
  C27      1.0000 0.48250  0.49120  0.48340  Biso   1.000  C
  H11      1.0000 0.46980  0.45830  0.49600  Biso   1.000  H
  H12      1.0000 0.25710  0.18470  0.00560  Biso   1.000  H
  H13      1.0000 0.96940  0.45980  0.00190  Biso   1.000  H
  O15      1.0000 0.47250  0.42890  0.49350  Biso   1.000  O
  N1       1.0000 0.51750  0.50880  0.51660  Biso   1.000  N
  Cu4      1.0000 0.75121  0.94778  0.29787  Biso   1.000  Cu
  Cu5      1.0000 0.73987  0.01803  0.19395  Biso   1.000  Cu
  Cu6      1.0000 0.54077  0.73112  0.30217  Biso   1.000  Cu
  O16      1.0000 0.75750  0.86230  0.25270  Biso   1.000  O
  O17      1.0000 0.74520  0.92250  0.16400  Biso   1.000  O
  O18      1.0000 0.76720  0.60020  0.26180  Biso   1.000  O
  O19      1.0000 0.75880  0.54190  0.17520  Biso   1.000  O
  O20      1.0000 0.81751  0.97190  0.32420  Biso   1.000  O
  O21      1.0000 0.80720  0.03080  0.23810  Biso   1.000  O
  O22      1.0000 0.00730  0.15930  0.33040  Biso   1.000  O
  O23      1.0000 0.94090  0.15700  0.23930  Biso   1.000  O
  O24      1.0000 0.68450  0.93820  0.25320  Biso   1.000  O
  O25      1.0000 0.67230  0.99790  0.16580  Biso   1.000  O
  O26      1.0000 0.55414  0.80340  0.25700  Biso   1.000  O
  O27      1.0000 0.48281  0.79450  0.17500  Biso   1.000  O
  C28      1.0000 0.75250  0.86800  0.19910  Biso   1.000  C
  C29      1.0000 0.75670  0.79690  0.17010  Biso   1.000  C
  C30      1.0000 0.75270  0.79630  0.10870  Biso   1.000  C
  H14      1.0000 0.74980  0.83920  0.08700  Biso   1.000  H
  C31      1.0000 0.75320  0.73140  0.07980  Biso   1.000  C
  C32      1.0000 0.75760  0.66730  0.11220  Biso   1.000  C
  H15      1.0000 0.75800  0.62390  0.09280  Biso   1.000  H
  C33      1.0000 0.76160  0.66790  0.17360  Biso   1.000  C
  C34      1.0000 0.76110  0.73270  0.20260  Biso   1.000  C
  H16      1.0000 0.76370  0.73310  0.24360  Biso   1.000  H
  C35      1.0000 0.76260  0.59890  0.20280  Biso   1.000  C
  C36      1.0000 0.83100  0.00580  0.29490  Biso   1.000  C
  C37      1.0000 0.87987  0.02400  0.32590  Biso   1.000  C
  C38      1.0000 0.89759  0.06880  0.29500  Biso   1.000  C
  H17      1.0000 0.87830  0.08500  0.25380  Biso   1.000  H
  C39      1.0000 0.94420  0.08930  0.32560  Biso   1.000  C
  C40      1.0000 0.97299  0.06500  0.38710  Biso   1.000  C
  H18      1.0000 0.00410  0.07870  0.40760  Biso   1.000  H
  C41      1.0000 0.95530  0.02020  0.41800  Biso   1.000  C
  C42      1.0000 0.90870  0.99970  0.38740  Biso   1.000  C
  H19      1.0000 0.89680  0.96980  0.40810  Biso   1.000  H
  C43      1.0000 0.96380  0.14240  0.29620  Biso   1.000  C
  H20      1.0000 0.95240  0.18410  0.31040  Biso   1.000  H
  C44      1.0000 0.65730  0.95750  0.19700  Biso   1.000  C
  C45      1.0000 0.60679  0.94480  0.16930  Biso   1.000  C
  C46      1.0000 0.58936  0.89720  0.19860  Biso   1.000  C
  H21      1.0000 0.60910  0.87770  0.23830  Biso   1.000  H
  C47      1.0000 0.54242  0.87880  0.16860  Biso   1.000  C
  C48      1.0000 0.51290  0.90800  0.10930  Biso   1.000  C
  H22      1.0000 0.48150  0.89570  0.08920  Biso   1.000  H
  C49      1.0000 0.53030  0.95560  0.08000  Biso   1.000  C
  C50      1.0000 0.57730  0.97400  0.11000  Biso   1.000  C
  H23      1.0000 0.58890  0.00590  0.09040  Biso   1.000  H
  C51      1.0000 0.52050  0.82570  0.19920  Biso   1.000  C
  C52      1.0000 0.75280  0.72660  0.01740  Biso   1.000  C
  O28      1.0000 0.77600  0.68100  0.00710  Biso   1.000  O
  C53      1.0000 0.49680  0.97850  0.01700  Biso   1.000  C
  O29      1.0000 0.46540  0.93900  0.98180  Biso   1.000  O
  C54      1.0000 0.98250  0.99120  0.48340  Biso   1.000  C
  H24      1.0000 0.96980  0.95830  0.49600  Biso   1.000  H
  H25      1.0000 0.75710  0.68470  0.00560  Biso   1.000  H
  H26      1.0000 0.46940  0.95980  0.00190  Biso   1.000  H
  O30      1.0000 0.97250  0.92890  0.49350  Biso   1.000  O
  N2       1.0000 0.01750  0.00880  0.51660  Biso   1.000  N
  Cu7      1.0000 0.74879  0.44778  0.20213  Biso   1.000  Cu
  Cu8      1.0000 0.76013  0.51803  0.30605  Biso   1.000  Cu
  Cu9      1.0000 0.95923  0.23112  0.19783  Biso   1.000  Cu
  O31      1.0000 0.74250  0.36230  0.24730  Biso   1.000  O
  O32      1.0000 0.75480  0.42250  0.33600  Biso   1.000  O
  O33      1.0000 0.73280  0.10020  0.23820  Biso   1.000  O
  O34      1.0000 0.74120  0.04190  0.32480  Biso   1.000  O
  O35      1.0000 0.68249  0.47190  0.17580  Biso   1.000  O
  O36      1.0000 0.69280  0.53080  0.26190  Biso   1.000  O
  O37      1.0000 0.49270  0.65930  0.16960  Biso   1.000  O
  O38      1.0000 0.55910  0.65700  0.26070  Biso   1.000  O
  O39      1.0000 0.81550  0.43820  0.24680  Biso   1.000  O
  O40      1.0000 0.82770  0.49790  0.33420  Biso   1.000  O
  O41      1.0000 0.94586  0.30340  0.24300  Biso   1.000  O
  O42      1.0000 0.01719  0.29450  0.32500  Biso   1.000  O
  C55      1.0000 0.74750  0.36800  0.30090  Biso   1.000  C
  C56      1.0000 0.74330  0.29690  0.32990  Biso   1.000  C
  C57      1.0000 0.74730  0.29630  0.39130  Biso   1.000  C
  H27      1.0000 0.75020  0.33920  0.41300  Biso   1.000  H
  C58      1.0000 0.74680  0.23140  0.42020  Biso   1.000  C
  C59      1.0000 0.74240  0.16730  0.38780  Biso   1.000  C
  H28      1.0000 0.74200  0.12390  0.40720  Biso   1.000  H
  C60      1.0000 0.73840  0.16790  0.32640  Biso   1.000  C
  C61      1.0000 0.73890  0.23270  0.29740  Biso   1.000  C
  H29      1.0000 0.73630  0.23310  0.25640  Biso   1.000  H
  C62      1.0000 0.73740  0.09890  0.29720  Biso   1.000  C
  C63      1.0000 0.66900  0.50580  0.20510  Biso   1.000  C
  C64      1.0000 0.62013  0.52400  0.17410  Biso   1.000  C
  C65      1.0000 0.60241  0.56880  0.20500  Biso   1.000  C
  H30      1.0000 0.62170  0.58500  0.24620  Biso   1.000  H
  C66      1.0000 0.55580  0.58930  0.17440  Biso   1.000  C
  C67      1.0000 0.52701  0.56500  0.11290  Biso   1.000  C
  H31      1.0000 0.49590  0.57870  0.09240  Biso   1.000  H
  C68      1.0000 0.54470  0.52020  0.08200  Biso   1.000  C
  C69      1.0000 0.59130  0.49970  0.11260  Biso   1.000  C
  H32      1.0000 0.60320  0.46980  0.09190  Biso   1.000  H
  C70      1.0000 0.53620  0.64240  0.20380  Biso   1.000  C
  H33      1.0000 0.54760  0.68410  0.18960  Biso   1.000  H
  C71      1.0000 0.84270  0.45750  0.30300  Biso   1.000  C
  C72      1.0000 0.89321  0.44480  0.33070  Biso   1.000  C
  C73      1.0000 0.91064  0.39720  0.30140  Biso   1.000  C
  H34      1.0000 0.89090  0.37770  0.26170  Biso   1.000  H
  C74      1.0000 0.95758  0.37880  0.33140  Biso   1.000  C
  C75      1.0000 0.98710  0.40800  0.39070  Biso   1.000  C
  H35      1.0000 0.01850  0.39570  0.41080  Biso   1.000  H
  C76      1.0000 0.96970  0.45560  0.42000  Biso   1.000  C
  C77      1.0000 0.92270  0.47400  0.39000  Biso   1.000  C
  H36      1.0000 0.91110  0.50590  0.40960  Biso   1.000  H
  C78      1.0000 0.97950  0.32570  0.30080  Biso   1.000  C
  C79      1.0000 0.74720  0.22660  0.48260  Biso   1.000  C
  O43      1.0000 0.72400  0.18100  0.49290  Biso   1.000  O
  C80      1.0000 0.00320  0.47850  0.48300  Biso   1.000  C
  O44      1.0000 0.03460  0.43900  0.51820  Biso   1.000  O
  C81      1.0000 0.51750  0.49120  0.01660  Biso   1.000  C
  H37      1.0000 0.53020  0.45830  0.00400  Biso   1.000  H
  H38      1.0000 0.74290  0.18470  0.49440  Biso   1.000  H
  H39      1.0000 0.03060  0.45980  0.49810  Biso   1.000  H
  O45      1.0000 0.52750  0.42890  0.00650  Biso   1.000  O
  N3       1.0000 0.48250  0.50880  0.98340  Biso   1.000  N
  Cu10     1.0000 0.24879  0.94778  0.20213  Biso   1.000  Cu
  Cu11     1.0000 0.26013  0.01803  0.30605  Biso   1.000  Cu
  Cu12     1.0000 0.45923  0.73112  0.19783  Biso   1.000  Cu
  O46      1.0000 0.24250  0.86230  0.24730  Biso   1.000  O
  O47      1.0000 0.25480  0.92250  0.33600  Biso   1.000  O
  O48      1.0000 0.23280  0.60020  0.23820  Biso   1.000  O
  O49      1.0000 0.24120  0.54190  0.32480  Biso   1.000  O
  O50      1.0000 0.18249  0.97190  0.17580  Biso   1.000  O
  O51      1.0000 0.19280  0.03080  0.26190  Biso   1.000  O
  O52      1.0000 0.99270  0.15930  0.16960  Biso   1.000  O
  O53      1.0000 0.05910  0.15700  0.26070  Biso   1.000  O
  O54      1.0000 0.31550  0.93820  0.24680  Biso   1.000  O
  O55      1.0000 0.32770  0.99790  0.33420  Biso   1.000  O
  O56      1.0000 0.44586  0.80340  0.24300  Biso   1.000  O
  O57      1.0000 0.51719  0.79450  0.32500  Biso   1.000  O
  C82      1.0000 0.24750  0.86800  0.30090  Biso   1.000  C
  C83      1.0000 0.24330  0.79690  0.32990  Biso   1.000  C
  C84      1.0000 0.24730  0.79630  0.39130  Biso   1.000  C
  H40      1.0000 0.25020  0.83920  0.41300  Biso   1.000  H
  C85      1.0000 0.24680  0.73140  0.42020  Biso   1.000  C
  C86      1.0000 0.24240  0.66730  0.38780  Biso   1.000  C
  H41      1.0000 0.24200  0.62390  0.40720  Biso   1.000  H
  C87      1.0000 0.23840  0.66790  0.32640  Biso   1.000  C
  C88      1.0000 0.23890  0.73270  0.29740  Biso   1.000  C
  H42      1.0000 0.23630  0.73310  0.25640  Biso   1.000  H
  C89      1.0000 0.23740  0.59890  0.29720  Biso   1.000  C
  C90      1.0000 0.16900  0.00580  0.20510  Biso   1.000  C
  C91      1.0000 0.12013  0.02400  0.17410  Biso   1.000  C
  C92      1.0000 0.10241  0.06880  0.20500  Biso   1.000  C
  H43      1.0000 0.12170  0.08500  0.24620  Biso   1.000  H
  C93      1.0000 0.05580  0.08930  0.17440  Biso   1.000  C
  C94      1.0000 0.02701  0.06500  0.11290  Biso   1.000  C
  H44      1.0000 0.99590  0.07870  0.09240  Biso   1.000  H
  C95      1.0000 0.04470  0.02020  0.08200  Biso   1.000  C
  C96      1.0000 0.09130  0.99970  0.11260  Biso   1.000  C
  H45      1.0000 0.10320  0.96980  0.09190  Biso   1.000  H
  C97      1.0000 0.03620  0.14240  0.20380  Biso   1.000  C
  H46      1.0000 0.04760  0.18410  0.18960  Biso   1.000  H
  C98      1.0000 0.34270  0.95750  0.30300  Biso   1.000  C
  C99      1.0000 0.39321  0.94480  0.33070  Biso   1.000  C
  C100     1.0000 0.41064  0.89720  0.30140  Biso   1.000  C
  H47      1.0000 0.39090  0.87770  0.26170  Biso   1.000  H
  C101     1.0000 0.45758  0.87880  0.33140  Biso   1.000  C
  C102     1.0000 0.48710  0.90800  0.39070  Biso   1.000  C
  H48      1.0000 0.51850  0.89570  0.41080  Biso   1.000  H
  C103     1.0000 0.46970  0.95560  0.42000  Biso   1.000  C
  C104     1.0000 0.42270  0.97400  0.39000  Biso   1.000  C
  H49      1.0000 0.41110  0.00590  0.40960  Biso   1.000  H
  C105     1.0000 0.47950  0.82570  0.30080  Biso   1.000  C
  C106     1.0000 0.24720  0.72660  0.48260  Biso   1.000  C
  O58      1.0000 0.22400  0.68100  0.49290  Biso   1.000  O
  C107     1.0000 0.50320  0.97850  0.48300  Biso   1.000  C
  O59      1.0000 0.53460  0.93900  0.51820  Biso   1.000  O
  C108     1.0000 0.01750  0.99120  0.01660  Biso   1.000  C
  H50      1.0000 0.03020  0.95830  0.00400  Biso   1.000  H
  H51      1.0000 0.24290  0.68470  0.49440  Biso   1.000  H
  H52      1.0000 0.53060  0.95980  0.49810  Biso   1.000  H
  O60      1.0000 0.02750  0.92890  0.00650  Biso   1.000  O
  N4       1.0000 0.98250  0.00880  0.98340  Biso   1.000  N
  Cu13     1.0000 0.74879  0.55222  0.70213  Biso   1.000  Cu
  Cu14     1.0000 0.76013  0.48197  0.80605  Biso   1.000  Cu
  Cu15     1.0000 0.95923  0.76888  0.69783  Biso   1.000  Cu
  O61      1.0000 0.74250  0.63770  0.74730  Biso   1.000  O
  O62      1.0000 0.75480  0.57750  0.83600  Biso   1.000  O
  O63      1.0000 0.73280  0.89980  0.73820  Biso   1.000  O
  O64      1.0000 0.74120  0.95810  0.82480  Biso   1.000  O
  O65      1.0000 0.68249  0.52810  0.67580  Biso   1.000  O
  O66      1.0000 0.69280  0.46920  0.76190  Biso   1.000  O
  O67      1.0000 0.49270  0.34070  0.66960  Biso   1.000  O
  O68      1.0000 0.55910  0.34300  0.76070  Biso   1.000  O
  O69      1.0000 0.81550  0.56180  0.74680  Biso   1.000  O
  O70      1.0000 0.82770  0.50210  0.83420  Biso   1.000  O
  O71      1.0000 0.94586  0.69660  0.74300  Biso   1.000  O
  O72      1.0000 0.01719  0.70550  0.82500  Biso   1.000  O
  C109     1.0000 0.74750  0.63200  0.80090  Biso   1.000  C
  C110     1.0000 0.74330  0.70310  0.82990  Biso   1.000  C
  C111     1.0000 0.74730  0.70370  0.89130  Biso   1.000  C
  H53      1.0000 0.75020  0.66080  0.91300  Biso   1.000  H
  C112     1.0000 0.74680  0.76860  0.92020  Biso   1.000  C
  C113     1.0000 0.74240  0.83270  0.88780  Biso   1.000  C
  H54      1.0000 0.74200  0.87610  0.90720  Biso   1.000  H
  C114     1.0000 0.73840  0.83210  0.82640  Biso   1.000  C
  C115     1.0000 0.73890  0.76730  0.79740  Biso   1.000  C
  H55      1.0000 0.73630  0.76690  0.75640  Biso   1.000  H
  C116     1.0000 0.73740  0.90110  0.79720  Biso   1.000  C
  C117     1.0000 0.66900  0.49420  0.70510  Biso   1.000  C
  C118     1.0000 0.62013  0.47600  0.67410  Biso   1.000  C
  C119     1.0000 0.60241  0.43120  0.70500  Biso   1.000  C
  H56      1.0000 0.62170  0.41500  0.74620  Biso   1.000  H
  C120     1.0000 0.55580  0.41070  0.67440  Biso   1.000  C
  C121     1.0000 0.52701  0.43500  0.61290  Biso   1.000  C
  H57      1.0000 0.49590  0.42130  0.59240  Biso   1.000  H
  C122     1.0000 0.54470  0.47980  0.58200  Biso   1.000  C
  C123     1.0000 0.59130  0.50030  0.61260  Biso   1.000  C
  H58      1.0000 0.60320  0.53020  0.59190  Biso   1.000  H
  C124     1.0000 0.53620  0.35760  0.70380  Biso   1.000  C
  H59      1.0000 0.54760  0.31590  0.68960  Biso   1.000  H
  C125     1.0000 0.84270  0.54250  0.80300  Biso   1.000  C
  C126     1.0000 0.89321  0.55520  0.83070  Biso   1.000  C
  C127     1.0000 0.91064  0.60280  0.80140  Biso   1.000  C
  H60      1.0000 0.89090  0.62230  0.76170  Biso   1.000  H
  C128     1.0000 0.95758  0.62120  0.83140  Biso   1.000  C
  C129     1.0000 0.98710  0.59200  0.89070  Biso   1.000  C
  H61      1.0000 0.01850  0.60430  0.91080  Biso   1.000  H
  C130     1.0000 0.96970  0.54440  0.92000  Biso   1.000  C
  C131     1.0000 0.92270  0.52600  0.89000  Biso   1.000  C
  H62      1.0000 0.91110  0.49410  0.90960  Biso   1.000  H
  C132     1.0000 0.97950  0.67430  0.80080  Biso   1.000  C
  C133     1.0000 0.74720  0.77340  0.98260  Biso   1.000  C
  O73      1.0000 0.72400  0.81900  0.99290  Biso   1.000  O
  C134     1.0000 0.00320  0.52150  0.98300  Biso   1.000  C
  O74      1.0000 0.03460  0.56100  0.01820  Biso   1.000  O
  H63      1.0000 0.53020  0.54170  0.50400  Biso   1.000  H
  H64      1.0000 0.74290  0.81530  0.99440  Biso   1.000  H
  H65      1.0000 0.03060  0.54020  0.99810  Biso   1.000  H
  O75      1.0000 0.52750  0.57110  0.50650  Biso   1.000  O
  Cu16     1.0000 0.24879  0.05222  0.70213  Biso   1.000  Cu
  Cu17     1.0000 0.26013  0.98197  0.80605  Biso   1.000  Cu
  Cu18     1.0000 0.45923  0.26888  0.69783  Biso   1.000  Cu
  O76      1.0000 0.24250  0.13770  0.74730  Biso   1.000  O
  O77      1.0000 0.25480  0.07750  0.83600  Biso   1.000  O
  O78      1.0000 0.23280  0.39980  0.73820  Biso   1.000  O
  O79      1.0000 0.24120  0.45810  0.82480  Biso   1.000  O
  O80      1.0000 0.18249  0.02810  0.67580  Biso   1.000  O
  O81      1.0000 0.19280  0.96920  0.76190  Biso   1.000  O
  O82      1.0000 0.99270  0.84070  0.66960  Biso   1.000  O
  O83      1.0000 0.05910  0.84300  0.76070  Biso   1.000  O
  O84      1.0000 0.31550  0.06180  0.74680  Biso   1.000  O
  O85      1.0000 0.32770  0.00210  0.83420  Biso   1.000  O
  O86      1.0000 0.44586  0.19660  0.74300  Biso   1.000  O
  O87      1.0000 0.51719  0.20550  0.82500  Biso   1.000  O
  C135     1.0000 0.24750  0.13200  0.80090  Biso   1.000  C
  C136     1.0000 0.24330  0.20310  0.82990  Biso   1.000  C
  C137     1.0000 0.24730  0.20370  0.89130  Biso   1.000  C
  H66      1.0000 0.25020  0.16080  0.91300  Biso   1.000  H
  C138     1.0000 0.24680  0.26860  0.92020  Biso   1.000  C
  C139     1.0000 0.24240  0.33270  0.88780  Biso   1.000  C
  H67      1.0000 0.24200  0.37610  0.90720  Biso   1.000  H
  C140     1.0000 0.23840  0.33210  0.82640  Biso   1.000  C
  C141     1.0000 0.23890  0.26730  0.79740  Biso   1.000  C
  H68      1.0000 0.23630  0.26690  0.75640  Biso   1.000  H
  C142     1.0000 0.23740  0.40110  0.79720  Biso   1.000  C
  C143     1.0000 0.16900  0.99420  0.70510  Biso   1.000  C
  C144     1.0000 0.12013  0.97600  0.67410  Biso   1.000  C
  C145     1.0000 0.10241  0.93120  0.70500  Biso   1.000  C
  H69      1.0000 0.12170  0.91500  0.74620  Biso   1.000  H
  C146     1.0000 0.05580  0.91070  0.67440  Biso   1.000  C
  C147     1.0000 0.02701  0.93500  0.61290  Biso   1.000  C
  H70      1.0000 0.99590  0.92130  0.59240  Biso   1.000  H
  C148     1.0000 0.04470  0.97980  0.58200  Biso   1.000  C
  C149     1.0000 0.09130  0.00030  0.61260  Biso   1.000  C
  H71      1.0000 0.10320  0.03020  0.59190  Biso   1.000  H
  C150     1.0000 0.03620  0.85760  0.70380  Biso   1.000  C
  H72      1.0000 0.04760  0.81590  0.68960  Biso   1.000  H
  C151     1.0000 0.34270  0.04250  0.80300  Biso   1.000  C
  C152     1.0000 0.39321  0.05520  0.83070  Biso   1.000  C
  C153     1.0000 0.41064  0.10280  0.80140  Biso   1.000  C
  H73      1.0000 0.39090  0.12230  0.76170  Biso   1.000  H
  C154     1.0000 0.45758  0.12120  0.83140  Biso   1.000  C
  C155     1.0000 0.48710  0.09200  0.89070  Biso   1.000  C
  H74      1.0000 0.51850  0.10430  0.91080  Biso   1.000  H
  C156     1.0000 0.46970  0.04440  0.92000  Biso   1.000  C
  C157     1.0000 0.42270  0.02600  0.89000  Biso   1.000  C
  H75      1.0000 0.41110  0.99410  0.90960  Biso   1.000  H
  C158     1.0000 0.47950  0.17430  0.80080  Biso   1.000  C
  C159     1.0000 0.24720  0.27340  0.98260  Biso   1.000  C
  O88      1.0000 0.22400  0.31900  0.99290  Biso   1.000  O
  C160     1.0000 0.50320  0.02150  0.98300  Biso   1.000  C
  O89      1.0000 0.53460  0.06100  0.01820  Biso   1.000  O
  H76      1.0000 0.03020  0.04170  0.50400  Biso   1.000  H
  H77      1.0000 0.24290  0.31530  0.99440  Biso   1.000  H
  H78      1.0000 0.53060  0.04020  0.99810  Biso   1.000  H
  O90      1.0000 0.02750  0.07110  0.50650  Biso   1.000  O
  Cu19     1.0000 0.25121  0.55222  0.79787  Biso   1.000  Cu
  Cu20     1.0000 0.23987  0.48197  0.69395  Biso   1.000  Cu
  Cu21     1.0000 0.04077  0.76888  0.80217  Biso   1.000  Cu
  O91      1.0000 0.25750  0.63770  0.75270  Biso   1.000  O
  O92      1.0000 0.24520  0.57750  0.66400  Biso   1.000  O
  O93      1.0000 0.26720  0.89980  0.76180  Biso   1.000  O
  O94      1.0000 0.25880  0.95810  0.67520  Biso   1.000  O
  O95      1.0000 0.31751  0.52810  0.82420  Biso   1.000  O
  O96      1.0000 0.30720  0.46920  0.73810  Biso   1.000  O
  O97      1.0000 0.50730  0.34070  0.83040  Biso   1.000  O
  O98      1.0000 0.44090  0.34300  0.73930  Biso   1.000  O
  O99      1.0000 0.18450  0.56180  0.75320  Biso   1.000  O
  O100     1.0000 0.17230  0.50210  0.66580  Biso   1.000  O
  O101     1.0000 0.05414  0.69660  0.75700  Biso   1.000  O
  O102     1.0000 0.98281  0.70550  0.67500  Biso   1.000  O
  C161     1.0000 0.25250  0.63200  0.69910  Biso   1.000  C
  C162     1.0000 0.25670  0.70310  0.67010  Biso   1.000  C
  C163     1.0000 0.25270  0.70370  0.60870  Biso   1.000  C
  H79      1.0000 0.24980  0.66080  0.58700  Biso   1.000  H
  C164     1.0000 0.25320  0.76860  0.57980  Biso   1.000  C
  C165     1.0000 0.25760  0.83270  0.61220  Biso   1.000  C
  H80      1.0000 0.25800  0.87610  0.59280  Biso   1.000  H
  C166     1.0000 0.26160  0.83210  0.67360  Biso   1.000  C
  C167     1.0000 0.26110  0.76730  0.70260  Biso   1.000  C
  H81      1.0000 0.26370  0.76690  0.74360  Biso   1.000  H
  C168     1.0000 0.26260  0.90110  0.70280  Biso   1.000  C
  C169     1.0000 0.33100  0.49420  0.79490  Biso   1.000  C
  C170     1.0000 0.37987  0.47600  0.82590  Biso   1.000  C
  C171     1.0000 0.39759  0.43120  0.79500  Biso   1.000  C
  H82      1.0000 0.37830  0.41500  0.75380  Biso   1.000  H
  C172     1.0000 0.44420  0.41070  0.82560  Biso   1.000  C
  C173     1.0000 0.47299  0.43500  0.88710  Biso   1.000  C
  H83      1.0000 0.50410  0.42130  0.90760  Biso   1.000  H
  C174     1.0000 0.45530  0.47980  0.91800  Biso   1.000  C
  C175     1.0000 0.40870  0.50030  0.88740  Biso   1.000  C
  H84      1.0000 0.39680  0.53020  0.90810  Biso   1.000  H
  C176     1.0000 0.46380  0.35760  0.79620  Biso   1.000  C
  H85      1.0000 0.45240  0.31590  0.81040  Biso   1.000  H
  C177     1.0000 0.15730  0.54250  0.69700  Biso   1.000  C
  C178     1.0000 0.10679  0.55520  0.66930  Biso   1.000  C
  C179     1.0000 0.08936  0.60280  0.69860  Biso   1.000  C
  H86      1.0000 0.10910  0.62230  0.73830  Biso   1.000  H
  C180     1.0000 0.04242  0.62120  0.66860  Biso   1.000  C
  C181     1.0000 0.01290  0.59200  0.60930  Biso   1.000  C
  H87      1.0000 0.98150  0.60430  0.58920  Biso   1.000  H
  C182     1.0000 0.03030  0.54440  0.58000  Biso   1.000  C
  C183     1.0000 0.07730  0.52600  0.61000  Biso   1.000  C
  H88      1.0000 0.08890  0.49410  0.59040  Biso   1.000  H
  C184     1.0000 0.02050  0.67430  0.69920  Biso   1.000  C
  C185     1.0000 0.25280  0.77340  0.51740  Biso   1.000  C
  O103     1.0000 0.27600  0.81900  0.50710  Biso   1.000  O
  C186     1.0000 0.99680  0.52150  0.51700  Biso   1.000  C
  O104     1.0000 0.96540  0.56100  0.48180  Biso   1.000  O
  H89      1.0000 0.46980  0.54170  0.99600  Biso   1.000  H
  H90      1.0000 0.25710  0.81530  0.50560  Biso   1.000  H
  H91      1.0000 0.96940  0.54020  0.50190  Biso   1.000  H
  O105     1.0000 0.47250  0.57110  0.99350  Biso   1.000  O
  Cu22     1.0000 0.75121  0.05222  0.79787  Biso   1.000  Cu
  Cu23     1.0000 0.73987  0.98197  0.69395  Biso   1.000  Cu
  Cu24     1.0000 0.54077  0.26888  0.80217  Biso   1.000  Cu
  O106     1.0000 0.75750  0.13770  0.75270  Biso   1.000  O
  O107     1.0000 0.74520  0.07750  0.66400  Biso   1.000  O
  O108     1.0000 0.76720  0.39980  0.76180  Biso   1.000  O
  O109     1.0000 0.75880  0.45810  0.67520  Biso   1.000  O
  O110     1.0000 0.81751  0.02810  0.82420  Biso   1.000  O
  O111     1.0000 0.80720  0.96920  0.73810  Biso   1.000  O
  O112     1.0000 0.00730  0.84070  0.83040  Biso   1.000  O
  O113     1.0000 0.94090  0.84300  0.73930  Biso   1.000  O
  O114     1.0000 0.68450  0.06180  0.75320  Biso   1.000  O
  O115     1.0000 0.67230  0.00210  0.66580  Biso   1.000  O
  O116     1.0000 0.55414  0.19660  0.75700  Biso   1.000  O
  O117     1.0000 0.48281  0.20550  0.67500  Biso   1.000  O
  C187     1.0000 0.75250  0.13200  0.69910  Biso   1.000  C
  C188     1.0000 0.75670  0.20310  0.67010  Biso   1.000  C
  C189     1.0000 0.75270  0.20370  0.60870  Biso   1.000  C
  H92      1.0000 0.74980  0.16080  0.58700  Biso   1.000  H
  C190     1.0000 0.75320  0.26860  0.57980  Biso   1.000  C
  C191     1.0000 0.75760  0.33270  0.61220  Biso   1.000  C
  H93      1.0000 0.75800  0.37610  0.59280  Biso   1.000  H
  C192     1.0000 0.76160  0.33210  0.67360  Biso   1.000  C
  C193     1.0000 0.76110  0.26730  0.70260  Biso   1.000  C
  H94      1.0000 0.76370  0.26690  0.74360  Biso   1.000  H
  C194     1.0000 0.76260  0.40110  0.70280  Biso   1.000  C
  C195     1.0000 0.83100  0.99420  0.79490  Biso   1.000  C
  C196     1.0000 0.87987  0.97600  0.82590  Biso   1.000  C
  C197     1.0000 0.89759  0.93120  0.79500  Biso   1.000  C
  H95      1.0000 0.87830  0.91500  0.75380  Biso   1.000  H
  C198     1.0000 0.94420  0.91070  0.82560  Biso   1.000  C
  C199     1.0000 0.97299  0.93500  0.88710  Biso   1.000  C
  H96      1.0000 0.00410  0.92130  0.90760  Biso   1.000  H
  C200     1.0000 0.95530  0.97980  0.91800  Biso   1.000  C
  C201     1.0000 0.90870  0.00030  0.88740  Biso   1.000  C
  H97      1.0000 0.89680  0.03020  0.90810  Biso   1.000  H
  C202     1.0000 0.96380  0.85760  0.79620  Biso   1.000  C
  H98      1.0000 0.95240  0.81590  0.81040  Biso   1.000  H
  C203     1.0000 0.65730  0.04250  0.69700  Biso   1.000  C
  C204     1.0000 0.60679  0.05520  0.66930  Biso   1.000  C
  C205     1.0000 0.58936  0.10280  0.69860  Biso   1.000  C
  H99      1.0000 0.60910  0.12230  0.73830  Biso   1.000  H
  C206     1.0000 0.54242  0.12120  0.66860  Biso   1.000  C
  C207     1.0000 0.51290  0.09200  0.60930  Biso   1.000  C
  H100     1.0000 0.48150  0.10430  0.58920  Biso   1.000  H
  C208     1.0000 0.53030  0.04440  0.58000  Biso   1.000  C
  C209     1.0000 0.57730  0.02600  0.61000  Biso   1.000  C
  H101     1.0000 0.58890  0.99410  0.59040  Biso   1.000  H
  C210     1.0000 0.52050  0.17430  0.69920  Biso   1.000  C
  C211     1.0000 0.75280  0.27340  0.51740  Biso   1.000  C
  O118     1.0000 0.77600  0.31900  0.50710  Biso   1.000  O
  C212     1.0000 0.49680  0.02150  0.51700  Biso   1.000  C
  O119     1.0000 0.46540  0.06100  0.48180  Biso   1.000  O
  H102     1.0000 0.96980  0.04170  0.99600  Biso   1.000  H
  H103     1.0000 0.75710  0.31530  0.50560  Biso   1.000  H
  H104     1.0000 0.46940  0.04020  0.50190  Biso   1.000  H
  O120     1.0000 0.97250  0.07110  0.99350  Biso   1.000  O
