data_image0
_cell_length_a       12.4868
_cell_length_b       13.0255
_cell_length_c       23.7555
_cell_angle_alpha    90
_cell_angle_beta     90
_cell_angle_gamma    90

_symmetry_space_group_name_H-M    "P 1"
_symmetry_int_tables_number       1

loop_
  _symmetry_equiv_pos_as_xyz
  'x, y, z'

loop_
  _atom_site_label
  _atom_site_occupancy
  _atom_site_fract_x
  _atom_site_fract_y
  _atom_site_fract_z
  _atom_site_thermal_displace_type
  _atom_site_B_iso_or_equiv
  _atom_site_type_symbol
  O1       1.0000 0.77780  0.14939  0.32341  Biso   1.000  O
  O2       1.0000 0.65770  0.07030  0.37567  Biso   1.000  O
  O3       1.0000 0.33891  0.66292  0.70685  Biso   1.000  O
  O4       1.0000 0.37030  0.50861  0.74518  Biso   1.000  O
  C1       1.0000 0.73900  0.38640  0.49050  Biso   1.000  C
  C2       1.0000 0.66280  0.30870  0.49549  Biso   1.000  C
  H1       1.0000 0.61350  0.31010  0.52600  Biso   1.000  H
  C3       1.0000 0.65790  0.22960  0.45660  Biso   1.000  C
  H2       1.0000 0.60590  0.17690  0.46080  Biso   1.000  H
  C4       1.0000 0.72910  0.22680  0.41129  Biso   1.000  C
  C5       1.0000 0.80700  0.30200  0.40609  Biso   1.000  C
  H3       1.0000 0.85660  0.30000  0.37580  Biso   1.000  H
  C6       1.0000 0.81170  0.38030  0.44568  Biso   1.000  C
  H4       1.0000 0.86580  0.43120  0.44230  Biso   1.000  H
  C7       1.0000 0.71910  0.14440  0.36812  Biso   1.000  C
  C8       1.0000 0.63240  0.51880  0.58606  Biso   1.000  C
  C9       1.0000 0.59990  0.44310  0.62422  Biso   1.000  C
  H5       1.0000 0.63300  0.37750  0.62300  Biso   1.000  H
  C10      1.0000 0.52070  0.46170  0.66366  Biso   1.000  C
  H6       1.0000 0.49990  0.40890  0.68910  Biso   1.000  H
  C11      1.0000 0.47130  0.55710  0.66618  Biso   1.000  C
  C12      1.0000 0.50150  0.63270  0.62850  Biso   1.000  C
  H7       1.0000 0.46770  0.69800  0.62970  Biso   1.000  H
  C13      1.0000 0.58080  0.61370  0.58886  Biso   1.000  C
  H8       1.0000 0.60030  0.66630  0.56310  Biso   1.000  H
  C14      1.0000 0.38620  0.57790  0.70955  Biso   1.000  C
  O5       1.0000 0.72220  0.85061  0.32341  Biso   1.000  O
  O6       1.0000 0.84230  0.92970  0.37567  Biso   1.000  O
  O7       1.0000 0.16109  0.33708  0.70685  Biso   1.000  O
  O8       1.0000 0.12970  0.49139  0.74518  Biso   1.000  O
  C15      1.0000 0.76100  0.61360  0.49050  Biso   1.000  C
  C16      1.0000 0.83720  0.69130  0.49549  Biso   1.000  C
  H9       1.0000 0.88650  0.68990  0.52600  Biso   1.000  H
  C17      1.0000 0.84210  0.77040  0.45660  Biso   1.000  C
  H10      1.0000 0.89410  0.82310  0.46080  Biso   1.000  H
  C18      1.0000 0.77090  0.77320  0.41129  Biso   1.000  C
  C19      1.0000 0.69300  0.69800  0.40609  Biso   1.000  C
  H11      1.0000 0.64340  0.70000  0.37580  Biso   1.000  H
  C20      1.0000 0.68830  0.61970  0.44568  Biso   1.000  C
  H12      1.0000 0.63420  0.56880  0.44230  Biso   1.000  H
  C21      1.0000 0.78090  0.85560  0.36812  Biso   1.000  C
  C22      1.0000 0.86760  0.48120  0.58606  Biso   1.000  C
  C23      1.0000 0.90010  0.55690  0.62422  Biso   1.000  C
  H13      1.0000 0.86700  0.62250  0.62300  Biso   1.000  H
  C24      1.0000 0.97930  0.53830  0.66366  Biso   1.000  C
  H14      1.0000 0.00010  0.59110  0.68910  Biso   1.000  H
  C25      1.0000 0.02870  0.44290  0.66618  Biso   1.000  C
  C26      1.0000 0.99850  0.36730  0.62850  Biso   1.000  C
  H15      1.0000 0.03230  0.30200  0.62970  Biso   1.000  H
  C27      1.0000 0.91920  0.38630  0.58886  Biso   1.000  C
  H16      1.0000 0.89970  0.33370  0.56310  Biso   1.000  H
  C28      1.0000 0.11380  0.42210  0.70955  Biso   1.000  C
  O9       1.0000 0.72220  0.64939  0.17659  Biso   1.000  O
  O10      1.0000 0.84230  0.57030  0.12433  Biso   1.000  O
  O11      1.0000 0.16109  0.16292  0.79315  Biso   1.000  O
  O12      1.0000 0.12970  0.00861  0.75482  Biso   1.000  O
  C29      1.0000 0.76100  0.88640  0.00950  Biso   1.000  C
  C30      1.0000 0.83720  0.80870  0.00451  Biso   1.000  C
  H17      1.0000 0.88650  0.81010  0.97400  Biso   1.000  H
  C31      1.0000 0.84210  0.72960  0.04340  Biso   1.000  C
  H18      1.0000 0.89410  0.67690  0.03920  Biso   1.000  H
  C32      1.0000 0.77090  0.72680  0.08871  Biso   1.000  C
  C33      1.0000 0.69300  0.80200  0.09391  Biso   1.000  C
  H19      1.0000 0.64340  0.80000  0.12420  Biso   1.000  H
  C34      1.0000 0.68830  0.88030  0.05432  Biso   1.000  C
  H20      1.0000 0.63420  0.93120  0.05770  Biso   1.000  H
  C35      1.0000 0.78090  0.64440  0.13188  Biso   1.000  C
  C36      1.0000 0.86760  0.01880  0.91394  Biso   1.000  C
  C37      1.0000 0.90010  0.94310  0.87578  Biso   1.000  C
  H21      1.0000 0.86700  0.87750  0.87700  Biso   1.000  H
  C38      1.0000 0.97930  0.96170  0.83634  Biso   1.000  C
  H22      1.0000 0.00010  0.90890  0.81090  Biso   1.000  H
  C39      1.0000 0.02870  0.05710  0.83382  Biso   1.000  C
  C40      1.0000 0.99850  0.13270  0.87150  Biso   1.000  C
  H23      1.0000 0.03230  0.19800  0.87030  Biso   1.000  H
  C41      1.0000 0.91920  0.11370  0.91114  Biso   1.000  C
  H24      1.0000 0.89970  0.16630  0.93690  Biso   1.000  H
  C42      1.0000 0.11380  0.07790  0.79045  Biso   1.000  C
  O13      1.0000 0.77780  0.35061  0.17659  Biso   1.000  O
  O14      1.0000 0.65770  0.42970  0.12433  Biso   1.000  O
  O15      1.0000 0.33891  0.83708  0.79315  Biso   1.000  O
  O16      1.0000 0.37030  0.99139  0.75482  Biso   1.000  O
  C43      1.0000 0.73900  0.11360  0.00950  Biso   1.000  C
  C44      1.0000 0.66280  0.19130  0.00451  Biso   1.000  C
  H25      1.0000 0.61350  0.18990  0.97400  Biso   1.000  H
  C45      1.0000 0.65790  0.27040  0.04340  Biso   1.000  C
  H26      1.0000 0.60590  0.32310  0.03920  Biso   1.000  H
  C46      1.0000 0.72910  0.27320  0.08871  Biso   1.000  C
  C47      1.0000 0.80700  0.19800  0.09391  Biso   1.000  C
  H27      1.0000 0.85660  0.20000  0.12420  Biso   1.000  H
  C48      1.0000 0.81170  0.11970  0.05432  Biso   1.000  C
  H28      1.0000 0.86580  0.06880  0.05770  Biso   1.000  H
  C49      1.0000 0.71910  0.35560  0.13188  Biso   1.000  C
  C50      1.0000 0.63240  0.98120  0.91394  Biso   1.000  C
  C51      1.0000 0.59990  0.05690  0.87578  Biso   1.000  C
  H29      1.0000 0.63300  0.12250  0.87700  Biso   1.000  H
  C52      1.0000 0.52070  0.03830  0.83634  Biso   1.000  C
  H30      1.0000 0.49990  0.09110  0.81090  Biso   1.000  H
  C53      1.0000 0.47130  0.94290  0.83382  Biso   1.000  C
  C54      1.0000 0.50150  0.86730  0.87150  Biso   1.000  C
  H31      1.0000 0.46770  0.80200  0.87030  Biso   1.000  H
  C55      1.0000 0.58080  0.88630  0.91114  Biso   1.000  C
  H32      1.0000 0.60030  0.83370  0.93690  Biso   1.000  H
  C56      1.0000 0.38620  0.92210  0.79045  Biso   1.000  C
  O17      1.0000 0.22220  0.85061  0.67659  Biso   1.000  O
  O18      1.0000 0.34230  0.92970  0.62433  Biso   1.000  O
  O19      1.0000 0.66109  0.33708  0.29315  Biso   1.000  O
  O20      1.0000 0.62970  0.49139  0.25482  Biso   1.000  O
  C57      1.0000 0.26100  0.61360  0.50950  Biso   1.000  C
  C58      1.0000 0.33720  0.69130  0.50451  Biso   1.000  C
  H33      1.0000 0.38650  0.68990  0.47400  Biso   1.000  H
  C59      1.0000 0.34210  0.77040  0.54340  Biso   1.000  C
  H34      1.0000 0.39410  0.82310  0.53920  Biso   1.000  H
  C60      1.0000 0.27090  0.77320  0.58871  Biso   1.000  C
  C61      1.0000 0.19300  0.69800  0.59391  Biso   1.000  C
  H35      1.0000 0.14340  0.70000  0.62420  Biso   1.000  H
  C62      1.0000 0.18830  0.61970  0.55432  Biso   1.000  C
  H36      1.0000 0.13420  0.56880  0.55770  Biso   1.000  H
  C63      1.0000 0.28090  0.85560  0.63188  Biso   1.000  C
  C64      1.0000 0.36760  0.48120  0.41394  Biso   1.000  C
  C65      1.0000 0.40010  0.55690  0.37578  Biso   1.000  C
  H37      1.0000 0.36700  0.62250  0.37700  Biso   1.000  H
  C66      1.0000 0.47930  0.53830  0.33634  Biso   1.000  C
  H38      1.0000 0.50010  0.59110  0.31090  Biso   1.000  H
  C67      1.0000 0.52870  0.44290  0.33382  Biso   1.000  C
  C68      1.0000 0.49850  0.36730  0.37150  Biso   1.000  C
  H39      1.0000 0.53230  0.30200  0.37030  Biso   1.000  H
  C69      1.0000 0.41920  0.38630  0.41114  Biso   1.000  C
  H40      1.0000 0.39970  0.33370  0.43690  Biso   1.000  H
  C70      1.0000 0.61380  0.42210  0.29045  Biso   1.000  C
  O21      1.0000 0.27780  0.14939  0.67659  Biso   1.000  O
  O22      1.0000 0.15770  0.07030  0.62433  Biso   1.000  O
  O23      1.0000 0.83891  0.66292  0.29315  Biso   1.000  O
  O24      1.0000 0.87030  0.50861  0.25482  Biso   1.000  O
  C71      1.0000 0.23900  0.38640  0.50950  Biso   1.000  C
  C72      1.0000 0.16280  0.30870  0.50451  Biso   1.000  C
  H41      1.0000 0.11350  0.31010  0.47400  Biso   1.000  H
  C73      1.0000 0.15790  0.22960  0.54340  Biso   1.000  C
  H42      1.0000 0.10590  0.17690  0.53920  Biso   1.000  H
  C74      1.0000 0.22910  0.22680  0.58871  Biso   1.000  C
  C75      1.0000 0.30700  0.30200  0.59391  Biso   1.000  C
  H43      1.0000 0.35660  0.30000  0.62420  Biso   1.000  H
  C76      1.0000 0.31170  0.38030  0.55432  Biso   1.000  C
  H44      1.0000 0.36580  0.43120  0.55770  Biso   1.000  H
  C77      1.0000 0.21910  0.14440  0.63188  Biso   1.000  C
  C78      1.0000 0.13240  0.51880  0.41394  Biso   1.000  C
  C79      1.0000 0.09990  0.44310  0.37578  Biso   1.000  C
  H45      1.0000 0.13300  0.37750  0.37700  Biso   1.000  H
  C80      1.0000 0.02070  0.46170  0.33634  Biso   1.000  C
  H46      1.0000 0.99990  0.40890  0.31090  Biso   1.000  H
  C81      1.0000 0.97130  0.55710  0.33382  Biso   1.000  C
  C82      1.0000 0.00150  0.63270  0.37150  Biso   1.000  C
  H47      1.0000 0.96770  0.69800  0.37030  Biso   1.000  H
  C83      1.0000 0.08080  0.61370  0.41114  Biso   1.000  C
  H48      1.0000 0.10030  0.66630  0.43690  Biso   1.000  H
  C84      1.0000 0.88620  0.57790  0.29045  Biso   1.000  C
  O25      1.0000 0.27780  0.35061  0.82341  Biso   1.000  O
  O26      1.0000 0.15770  0.42970  0.87567  Biso   1.000  O
  O27      1.0000 0.83891  0.83708  0.20685  Biso   1.000  O
  O28      1.0000 0.87030  0.99139  0.24518  Biso   1.000  O
  C85      1.0000 0.23900  0.11360  0.99050  Biso   1.000  C
  C86      1.0000 0.16280  0.19130  0.99549  Biso   1.000  C
  H49      1.0000 0.11350  0.18990  0.02600  Biso   1.000  H
  C87      1.0000 0.15790  0.27040  0.95660  Biso   1.000  C
  H50      1.0000 0.10590  0.32310  0.96080  Biso   1.000  H
  C88      1.0000 0.22910  0.27320  0.91129  Biso   1.000  C
  C89      1.0000 0.30700  0.19800  0.90609  Biso   1.000  C
  H51      1.0000 0.35660  0.20000  0.87580  Biso   1.000  H
  C90      1.0000 0.31170  0.11970  0.94568  Biso   1.000  C
  H52      1.0000 0.36580  0.06880  0.94230  Biso   1.000  H
  C91      1.0000 0.21910  0.35560  0.86812  Biso   1.000  C
  C92      1.0000 0.13240  0.98120  0.08606  Biso   1.000  C
  C93      1.0000 0.09990  0.05690  0.12422  Biso   1.000  C
  H53      1.0000 0.13300  0.12250  0.12300  Biso   1.000  H
  C94      1.0000 0.02070  0.03830  0.16366  Biso   1.000  C
  H54      1.0000 0.99990  0.09110  0.18910  Biso   1.000  H
  C95      1.0000 0.97130  0.94290  0.16618  Biso   1.000  C
  C96      1.0000 0.00150  0.86730  0.12850  Biso   1.000  C
  H55      1.0000 0.96770  0.80200  0.12970  Biso   1.000  H
  C97      1.0000 0.08080  0.88630  0.08886  Biso   1.000  C
  H56      1.0000 0.10030  0.83370  0.06310  Biso   1.000  H
  C98      1.0000 0.88620  0.92210  0.20955  Biso   1.000  C
  O29      1.0000 0.22220  0.64939  0.82341  Biso   1.000  O
  O30      1.0000 0.34230  0.57030  0.87567  Biso   1.000  O
  O31      1.0000 0.66109  0.16292  0.20685  Biso   1.000  O
  O32      1.0000 0.62970  0.00861  0.24518  Biso   1.000  O
  C99      1.0000 0.26100  0.88640  0.99050  Biso   1.000  C
  C100     1.0000 0.33720  0.80870  0.99549  Biso   1.000  C
  H57      1.0000 0.38650  0.81010  0.02600  Biso   1.000  H
  C101     1.0000 0.34210  0.72960  0.95660  Biso   1.000  C
  H58      1.0000 0.39410  0.67690  0.96080  Biso   1.000  H
  C102     1.0000 0.27090  0.72680  0.91129  Biso   1.000  C
  C103     1.0000 0.19300  0.80200  0.90609  Biso   1.000  C
  H59      1.0000 0.14340  0.80000  0.87580  Biso   1.000  H
  C104     1.0000 0.18830  0.88030  0.94568  Biso   1.000  C
  H60      1.0000 0.13420  0.93120  0.94230  Biso   1.000  H
  C105     1.0000 0.28090  0.64440  0.86812  Biso   1.000  C
  C106     1.0000 0.36760  0.01880  0.08606  Biso   1.000  C
  C107     1.0000 0.40010  0.94310  0.12422  Biso   1.000  C
  H61      1.0000 0.36700  0.87750  0.12300  Biso   1.000  H
  C108     1.0000 0.47930  0.96170  0.16366  Biso   1.000  C
  H62      1.0000 0.50010  0.90890  0.18910  Biso   1.000  H
  C109     1.0000 0.52870  0.05710  0.16618  Biso   1.000  C
  C110     1.0000 0.49850  0.13270  0.12850  Biso   1.000  C
  H63      1.0000 0.53230  0.19800  0.12970  Biso   1.000  H
  C111     1.0000 0.41920  0.11370  0.08886  Biso   1.000  C
  H64      1.0000 0.39970  0.16630  0.06310  Biso   1.000  H
  C112     1.0000 0.61380  0.07790  0.20955  Biso   1.000  C
  Zn1      1.0000 0.24070  0.75000  0.75000  Biso   1.000  Zn
  Zn2      1.0000 0.25930  0.25000  0.75000  Biso   1.000  Zn
  Zn3      1.0000 0.75930  0.25000  0.25000  Biso   1.000  Zn
  Zn4      1.0000 0.74070  0.75000  0.25000  Biso   1.000  Zn
  Zn5      1.0000 0.75000  0.00000  0.29852  Biso   1.000  Zn
  Zn6      1.0000 0.75000  0.50000  0.20148  Biso   1.000  Zn
  Zn7      1.0000 0.25000  0.00000  0.70148  Biso   1.000  Zn
  Zn8      1.0000 0.25000  0.50000  0.79852  Biso   1.000  Zn
  Si1      1.0000 0.75000  0.50000  0.53842  Biso   1.000  Si
  Si2      1.0000 0.75000  0.00000  0.96158  Biso   1.000  Si
  Si3      1.0000 0.25000  0.50000  0.46158  Biso   1.000  Si
  Si4      1.0000 0.25000  0.00000  0.03842  Biso   1.000  Si
