data_image0
_cell_length_a       10.4787
_cell_length_b       20.0091
_cell_length_c       14.9594
_cell_angle_alpha    90
_cell_angle_beta     90
_cell_angle_gamma    90

_symmetry_space_group_name_H-M    "P 1"
_symmetry_int_tables_number       1

loop_
  _symmetry_equiv_pos_as_xyz
  'x, y, z'

loop_
  _atom_site_label
  _atom_site_occupancy
  _atom_site_fract_x
  _atom_site_fract_y
  _atom_site_fract_z
  _atom_site_thermal_displace_type
  _atom_site_B_iso_or_equiv
  _atom_site_type_symbol
  Zn1      1.0000 0.07352  0.75628  0.38658  Biso   1.000  Zn
  Zn2      1.0000 0.90568  0.58893  0.43416  Biso   1.000  Zn
  Zn3      1.0000 0.36740  0.08386  0.98210  Biso   1.000  Zn
  P1       1.0000 0.30773  0.76569  0.52151  Biso   1.000  P
  P2       1.0000 0.13640  0.44127  0.07896  Biso   1.000  P
  O1       1.0000 0.07530  0.83840  0.31400  Biso   1.000  O
  O2       1.0000 0.92000  0.67910  0.18880  Biso   1.000  O
  O3       1.0000 0.24500  0.74580  0.43480  Biso   1.000  O
  O4       1.0000 0.94580  0.75800  0.47960  Biso   1.000  O
  O5       1.0000 0.08700  0.93110  0.20190  Biso   1.000  O
  H1       1.0000 0.14180  0.91100  0.17340  Biso   1.000  H
  O6       1.0000 0.90790  0.59320  0.30200  Biso   1.000  O
  O7       1.0000 0.73580  0.76710  0.39770  Biso   1.000  O
  H2       1.0000 0.73790  0.80790  0.40260  Biso   1.000  H
  O8       1.0000 0.29280  0.84000  0.53970  Biso   1.000  O
  O9       1.0000 0.19070  0.50630  0.05050  Biso   1.000  O
  O10      1.0000 0.24410  0.39350  0.10300  Biso   1.000  O
  O11      1.0000 0.05290  0.40860  0.01190  Biso   1.000  O
  O12      1.0000 0.94340  0.54400  0.83780  Biso   1.000  O
  H3       1.0000 0.91840  0.56720  0.79620  Biso   1.000  H
  Zn4      1.0000 0.42648  0.74372  0.88658  Biso   1.000  Zn
  Zn5      1.0000 0.59432  0.91107  0.93416  Biso   1.000  Zn
  Zn6      1.0000 0.13260  0.41614  0.48210  Biso   1.000  Zn
  P3       1.0000 0.19227  0.73431  0.02151  Biso   1.000  P
  P4       1.0000 0.36360  0.05873  0.57896  Biso   1.000  P
  O13      1.0000 0.42470  0.66160  0.81400  Biso   1.000  O
  O14      1.0000 0.58000  0.82090  0.68880  Biso   1.000  O
  O15      1.0000 0.25500  0.75420  0.93480  Biso   1.000  O
  O16      1.0000 0.55420  0.74200  0.97960  Biso   1.000  O
  O17      1.0000 0.41300  0.56890  0.70190  Biso   1.000  O
  H4       1.0000 0.35820  0.58900  0.67340  Biso   1.000  H
  O18      1.0000 0.59210  0.90680  0.80200  Biso   1.000  O
  O19      1.0000 0.76420  0.73290  0.89770  Biso   1.000  O
  H5       1.0000 0.76210  0.69210  0.90260  Biso   1.000  H
  O20      1.0000 0.20720  0.66000  0.03970  Biso   1.000  O
  O21      1.0000 0.30930  0.99370  0.55050  Biso   1.000  O
  O22      1.0000 0.25590  0.10650  0.60300  Biso   1.000  O
  O23      1.0000 0.44710  0.09140  0.51190  Biso   1.000  O
  O24      1.0000 0.55660  0.95600  0.33780  Biso   1.000  O
  H6       1.0000 0.58160  0.93280  0.29620  Biso   1.000  H
  Zn7      1.0000 0.92648  0.75628  0.11342  Biso   1.000  Zn
  Zn8      1.0000 0.09432  0.58893  0.06584  Biso   1.000  Zn
  Zn9      1.0000 0.63260  0.08386  0.51790  Biso   1.000  Zn
  P5       1.0000 0.69227  0.76569  0.97849  Biso   1.000  P
  P6       1.0000 0.86360  0.44127  0.42104  Biso   1.000  P
  O25      1.0000 0.92470  0.83840  0.18600  Biso   1.000  O
  O26      1.0000 0.08000  0.67910  0.31120  Biso   1.000  O
  O27      1.0000 0.75500  0.74580  0.06520  Biso   1.000  O
  O28      1.0000 0.05420  0.75800  0.02040  Biso   1.000  O
  O29      1.0000 0.91300  0.93110  0.29810  Biso   1.000  O
  H7       1.0000 0.85820  0.91100  0.32660  Biso   1.000  H
  O30      1.0000 0.09210  0.59320  0.19800  Biso   1.000  O
  O31      1.0000 0.26420  0.76710  0.10230  Biso   1.000  O
  H8       1.0000 0.26210  0.80790  0.09740  Biso   1.000  H
  O32      1.0000 0.70720  0.84000  0.96030  Biso   1.000  O
  O33      1.0000 0.80930  0.50630  0.44950  Biso   1.000  O
  O34      1.0000 0.75590  0.39350  0.39700  Biso   1.000  O
  O35      1.0000 0.94710  0.40860  0.48810  Biso   1.000  O
  O36      1.0000 0.05660  0.54400  0.66220  Biso   1.000  O
  H9       1.0000 0.08160  0.56720  0.70380  Biso   1.000  H
  Zn10     1.0000 0.57352  0.74372  0.61342  Biso   1.000  Zn
  Zn11     1.0000 0.40568  0.91107  0.56584  Biso   1.000  Zn
  Zn12     1.0000 0.86740  0.41614  0.01790  Biso   1.000  Zn
  P7       1.0000 0.80773  0.73431  0.47849  Biso   1.000  P
  P8       1.0000 0.63640  0.05873  0.92104  Biso   1.000  P
  O37      1.0000 0.57530  0.66160  0.68600  Biso   1.000  O
  O38      1.0000 0.42000  0.82090  0.81120  Biso   1.000  O
  O39      1.0000 0.74500  0.75420  0.56520  Biso   1.000  O
  O40      1.0000 0.44580  0.74200  0.52040  Biso   1.000  O
  O41      1.0000 0.58700  0.56890  0.79810  Biso   1.000  O
  H10      1.0000 0.64180  0.58900  0.82660  Biso   1.000  H
  O42      1.0000 0.40790  0.90680  0.69800  Biso   1.000  O
  O43      1.0000 0.23580  0.73290  0.60230  Biso   1.000  O
  H11      1.0000 0.23790  0.69210  0.59740  Biso   1.000  H
  O44      1.0000 0.79280  0.66000  0.46030  Biso   1.000  O
  O45      1.0000 0.69070  0.99370  0.94950  Biso   1.000  O
  O46      1.0000 0.74410  0.10650  0.89700  Biso   1.000  O
  O47      1.0000 0.55290  0.09140  0.98810  Biso   1.000  O
  O48      1.0000 0.44340  0.95600  0.16220  Biso   1.000  O
  H12      1.0000 0.41840  0.93280  0.20380  Biso   1.000  H
  Zn13     1.0000 0.92648  0.24372  0.61342  Biso   1.000  Zn
  Zn14     1.0000 0.09432  0.41107  0.56584  Biso   1.000  Zn
  Zn15     1.0000 0.63260  0.91614  0.01790  Biso   1.000  Zn
  P9       1.0000 0.69227  0.23431  0.47849  Biso   1.000  P
  P10      1.0000 0.86360  0.55873  0.92104  Biso   1.000  P
  O49      1.0000 0.92470  0.16160  0.68600  Biso   1.000  O
  O50      1.0000 0.08000  0.32090  0.81120  Biso   1.000  O
  O51      1.0000 0.75500  0.25420  0.56520  Biso   1.000  O
  O52      1.0000 0.05420  0.24200  0.52040  Biso   1.000  O
  O53      1.0000 0.91300  0.06890  0.79810  Biso   1.000  O
  H13      1.0000 0.85820  0.08900  0.82660  Biso   1.000  H
  O54      1.0000 0.09210  0.40680  0.69800  Biso   1.000  O
  O55      1.0000 0.26420  0.23290  0.60230  Biso   1.000  O
  H14      1.0000 0.26210  0.19210  0.59740  Biso   1.000  H
  O56      1.0000 0.70720  0.16000  0.46030  Biso   1.000  O
  O57      1.0000 0.80930  0.49370  0.94950  Biso   1.000  O
  O58      1.0000 0.75590  0.60650  0.89700  Biso   1.000  O
  O59      1.0000 0.94710  0.59140  0.98810  Biso   1.000  O
  O60      1.0000 0.05660  0.45600  0.16220  Biso   1.000  O
  H15      1.0000 0.08160  0.43280  0.20380  Biso   1.000  H
  Zn16     1.0000 0.57352  0.25628  0.11342  Biso   1.000  Zn
  Zn17     1.0000 0.40568  0.08893  0.06584  Biso   1.000  Zn
  Zn18     1.0000 0.86740  0.58386  0.51790  Biso   1.000  Zn
  P11      1.0000 0.80773  0.26569  0.97849  Biso   1.000  P
  P12      1.0000 0.63640  0.94127  0.42104  Biso   1.000  P
  O61      1.0000 0.57530  0.33840  0.18600  Biso   1.000  O
  O62      1.0000 0.42000  0.17910  0.31120  Biso   1.000  O
  O63      1.0000 0.74500  0.24580  0.06520  Biso   1.000  O
  O64      1.0000 0.44580  0.25800  0.02040  Biso   1.000  O
  O65      1.0000 0.58700  0.43110  0.29810  Biso   1.000  O
  H16      1.0000 0.64180  0.41100  0.32660  Biso   1.000  H
  O66      1.0000 0.40790  0.09320  0.19800  Biso   1.000  O
  O67      1.0000 0.23580  0.26710  0.10230  Biso   1.000  O
  H17      1.0000 0.23790  0.30790  0.09740  Biso   1.000  H
  O68      1.0000 0.79280  0.34000  0.96030  Biso   1.000  O
  O69      1.0000 0.69070  0.00630  0.44950  Biso   1.000  O
  O70      1.0000 0.74410  0.89350  0.39700  Biso   1.000  O
  O71      1.0000 0.55290  0.90860  0.48810  Biso   1.000  O
  O72      1.0000 0.44340  0.04400  0.66220  Biso   1.000  O
  H18      1.0000 0.41840  0.06720  0.70380  Biso   1.000  H
  Zn19     1.0000 0.07352  0.24372  0.88658  Biso   1.000  Zn
  Zn20     1.0000 0.90568  0.41107  0.93416  Biso   1.000  Zn
  Zn21     1.0000 0.36740  0.91614  0.48210  Biso   1.000  Zn
  P13      1.0000 0.30773  0.23431  0.02151  Biso   1.000  P
  P14      1.0000 0.13640  0.55873  0.57896  Biso   1.000  P
  O73      1.0000 0.07530  0.16160  0.81400  Biso   1.000  O
  O74      1.0000 0.92000  0.32090  0.68880  Biso   1.000  O
  O75      1.0000 0.24500  0.25420  0.93480  Biso   1.000  O
  O76      1.0000 0.94580  0.24200  0.97960  Biso   1.000  O
  O77      1.0000 0.08700  0.06890  0.70190  Biso   1.000  O
  H19      1.0000 0.14180  0.08900  0.67340  Biso   1.000  H
  O78      1.0000 0.90790  0.40680  0.80200  Biso   1.000  O
  O79      1.0000 0.73580  0.23290  0.89770  Biso   1.000  O
  H20      1.0000 0.73790  0.19210  0.90260  Biso   1.000  H
  O80      1.0000 0.29280  0.16000  0.03970  Biso   1.000  O
  O81      1.0000 0.19070  0.49370  0.55050  Biso   1.000  O
  O82      1.0000 0.24410  0.60650  0.60300  Biso   1.000  O
  O83      1.0000 0.05290  0.59140  0.51190  Biso   1.000  O
  O84      1.0000 0.94340  0.45600  0.33780  Biso   1.000  O
  H21      1.0000 0.91840  0.43280  0.29620  Biso   1.000  H
  Zn22     1.0000 0.42648  0.25628  0.38658  Biso   1.000  Zn
  Zn23     1.0000 0.59432  0.08893  0.43416  Biso   1.000  Zn
  Zn24     1.0000 0.13260  0.58386  0.98210  Biso   1.000  Zn
  P15      1.0000 0.19227  0.26569  0.52151  Biso   1.000  P
  P16      1.0000 0.36360  0.94127  0.07896  Biso   1.000  P
  O85      1.0000 0.42470  0.33840  0.31400  Biso   1.000  O
  O86      1.0000 0.58000  0.17910  0.18880  Biso   1.000  O
  O87      1.0000 0.25500  0.24580  0.43480  Biso   1.000  O
  O88      1.0000 0.55420  0.25800  0.47960  Biso   1.000  O
  O89      1.0000 0.41300  0.43110  0.20190  Biso   1.000  O
  H22      1.0000 0.35820  0.41100  0.17340  Biso   1.000  H
  O90      1.0000 0.59210  0.09320  0.30200  Biso   1.000  O
  O91      1.0000 0.76420  0.26710  0.39770  Biso   1.000  O
  H23      1.0000 0.76210  0.30790  0.40260  Biso   1.000  H
  O92      1.0000 0.20720  0.34000  0.53970  Biso   1.000  O
  O93      1.0000 0.30930  0.00630  0.05050  Biso   1.000  O
  O94      1.0000 0.25590  0.89350  0.10300  Biso   1.000  O
  O95      1.0000 0.44710  0.90860  0.01190  Biso   1.000  O
  O96      1.0000 0.55660  0.04400  0.83780  Biso   1.000  O
  H24      1.0000 0.58160  0.06720  0.79620  Biso   1.000  H
  P17      1.0000 0.00000  0.88021  0.25000  Biso   1.000  P
  P18      1.0000 0.00000  0.63798  0.25000  Biso   1.000  P
  P19      1.0000 0.50000  0.61979  0.75000  Biso   1.000  P
  P20      1.0000 0.50000  0.86202  0.75000  Biso   1.000  P
  P21      1.0000 0.00000  0.11979  0.75000  Biso   1.000  P
  P22      1.0000 0.00000  0.36202  0.75000  Biso   1.000  P
  P23      1.0000 0.50000  0.38021  0.25000  Biso   1.000  P
  P24      1.0000 0.50000  0.13798  0.25000  Biso   1.000  P
