data_OMEWUZ_clean
_audit_creation_date              2014-07-02
_audit_creation_method            'Materials Studio'
_symmetry_space_group_name_H-M    'P1'
_symmetry_Int_Tables_number       1
_symmetry_cell_setting            triclinic
loop_
_symmetry_equiv_pos_as_xyz
  x,y,z
_cell_length_a                    7.6285
_cell_length_b                    11.9296
_cell_length_c                    14.3420
_cell_angle_alpha                 114.5760
_cell_angle_beta                  99.3128
_cell_angle_gamma                 90.0000
loop_
_atom_site_label
_atom_site_type_symbol
_atom_site_fract_x
_atom_site_fract_y
_atom_site_fract_z
_atom_site_U_iso_or_equiv
_atom_site_adp_type
_atom_site_occupancy
Ba1    Ba    0.93930   0.72587   0.88532   0.01267  Uiso   1.00
Ba2    Ba    0.56070   0.84055   0.11468   0.01267  Uiso   1.00
Ba3    Ba    0.06070   0.27413   0.11468   0.01267  Uiso   1.00
Ba4    Ba    0.43930   0.15945   0.88532   0.01267  Uiso   1.00
H1     H     0.23000   0.94300   0.05000   0.01267  Uiso   1.00
H2     H     0.42140   0.33760   0.62500   0.01267  Uiso   1.00
H3     H     0.45420   0.23460   0.45280   0.01267  Uiso   1.00
H4     H     0.19020   0.49120   0.38740   0.01267  Uiso   1.00
H5     H     0.15680   0.59210   0.55940   0.01267  Uiso   1.00
H6     H     0.56970   0.23070   0.31480   0.01267  Uiso   1.00
H7     H     0.40830   0.13180   0.27820   0.01267  Uiso   1.00
H8     H     0.27000   0.89300   0.95000   0.01267  Uiso   1.00
H9     H     0.07860   0.71260   0.37500   0.01267  Uiso   1.00
H10    H     0.04580   0.78180   0.54720   0.01267  Uiso   1.00
H11    H     0.30980   0.10380   0.61260   0.01267  Uiso   1.00
H12    H     0.34320   0.03270   0.44060   0.01267  Uiso   1.00
H13    H     0.93030   0.91590   0.68520   0.01267  Uiso   1.00
H14    H     0.09170   0.85360   0.72180   0.01267  Uiso   1.00
H15    H     0.77000   0.05700   0.95000   0.01267  Uiso   1.00
H16    H     0.57860   0.66240   0.37500   0.01267  Uiso   1.00
H17    H     0.54580   0.76540   0.54720   0.01267  Uiso   1.00
H18    H     0.80980   0.50880   0.61260   0.01267  Uiso   1.00
H19    H     0.84320   0.40790   0.44060   0.01267  Uiso   1.00
H20    H     0.43030   0.76930   0.68520   0.01267  Uiso   1.00
H21    H     0.59170   0.86820   0.72180   0.01267  Uiso   1.00
H22    H     0.73000   0.10700   0.05000   0.01267  Uiso   1.00
H23    H     0.92140   0.28740   0.62500   0.01267  Uiso   1.00
H24    H     0.95420   0.21820   0.45280   0.01267  Uiso   1.00
H25    H     0.69020   0.89620   0.38740   0.01267  Uiso   1.00
H26    H     0.65680   0.96730   0.55940   0.01267  Uiso   1.00
H27    H     0.06970   0.08410   0.31480   0.01267  Uiso   1.00
H28    H     0.90830   0.14640   0.27820   0.01267  Uiso   1.00
C1     C     0.28500   0.47504   0.61056   0.01267  Uiso   1.00
C2     C     0.37400   0.36843   0.57724   0.01267  Uiso   1.00
C3     C     0.39420   0.30645   0.47406   0.01267  Uiso   1.00
C4     C     0.32400   0.35275   0.40284   0.01267  Uiso   1.00
C5     C     0.23620   0.45974   0.43488   0.01267  Uiso   1.00
C6     C     0.21670   0.52006   0.53812   0.01267  Uiso   1.00
C7     C     0.26450   0.54153   0.72326   0.01267  Uiso   1.00
C8     C     0.45490   0.20170   0.26926   0.01267  Uiso   1.00
C9     C     0.47960   0.15992   0.15692   0.01267  Uiso   1.00
C10    C     0.21500   0.86448   0.38944   0.01267  Uiso   1.00
C11    C     0.12600   0.79119   0.42276   0.01267  Uiso   1.00
C12    C     0.10580   0.83239   0.52594   0.01267  Uiso   1.00
C13    C     0.17600   0.94991   0.59716   0.01267  Uiso   1.00
C14    C     0.26380   0.02486   0.56512   0.01267  Uiso   1.00
C15    C     0.28330   0.98194   0.46188   0.01267  Uiso   1.00
C16    C     0.23550   0.81827   0.27674   0.01267  Uiso   1.00
C17    C     0.04510   0.93244   0.73074   0.01267  Uiso   1.00
C18    C     0.02040   0.00300   0.84308   0.01267  Uiso   1.00
C19    C     0.71500   0.52496   0.38944   0.01267  Uiso   1.00
C20    C     0.62600   0.63157   0.42276   0.01267  Uiso   1.00
C21    C     0.60580   0.69355   0.52594   0.01267  Uiso   1.00
C22    C     0.67600   0.64725   0.59716   0.01267  Uiso   1.00
C23    C     0.76380   0.54026   0.56512   0.01267  Uiso   1.00
C24    C     0.78330   0.47994   0.46188   0.01267  Uiso   1.00
C25    C     0.73550   0.45847   0.27674   0.01267  Uiso   1.00
C26    C     0.54510   0.79830   0.73074   0.01267  Uiso   1.00
C27    C     0.52040   0.84008   0.84308   0.01267  Uiso   1.00
C28    C     0.78500   0.13552   0.61056   0.01267  Uiso   1.00
C29    C     0.87400   0.20881   0.57724   0.01267  Uiso   1.00
C30    C     0.89420   0.16761   0.47406   0.01267  Uiso   1.00
C31    C     0.82400   0.05009   0.40284   0.01267  Uiso   1.00
C32    C     0.73620   0.97514   0.43488   0.01267  Uiso   1.00
C33    C     0.71670   0.01806   0.53812   0.01267  Uiso   1.00
C34    C     0.76450   0.18173   0.72326   0.01267  Uiso   1.00
C35    C     0.95490   0.06756   0.26926   0.01267  Uiso   1.00
C36    C     0.97960   0.99700   0.15692   0.01267  Uiso   1.00
O1     O     0.16220   0.62592   0.74822   0.01267  Uiso   1.00
O2     O     0.35870   0.50588   0.78628   0.01267  Uiso   1.00
O3     O     0.33680   0.29773   0.29846   0.01267  Uiso   1.00
O4     O     0.58347   0.07494   0.13016   0.01267  Uiso   1.00
O5     O     0.40203   0.20784   0.10062   0.01267  Uiso   1.00
O6     O     0.33780   0.87770   0.25178   0.01267  Uiso   1.00
O7     O     0.14130   0.71960   0.21372   0.01267  Uiso   1.00
O8     O     0.16320   0.99927   0.70154   0.01267  Uiso   1.00
O9     O     0.91653   0.94478   0.86984   0.01267  Uiso   1.00
O10    O     0.09797   0.10722   0.89938   0.01267  Uiso   1.00
O11    O     0.83780   0.37408   0.25178   0.01267  Uiso   1.00
O12    O     0.64130   0.49412   0.21372   0.01267  Uiso   1.00
O13    O     0.66320   0.70227   0.70154   0.01267  Uiso   1.00
O14    O     0.41653   0.92506   0.86984   0.01267  Uiso   1.00
O15    O     0.59797   0.79216   0.89938   0.01267  Uiso   1.00
O16    O     0.66220   0.12230   0.74822   0.01267  Uiso   1.00
O17    O     0.85870   0.28040   0.78628   0.01267  Uiso   1.00
O18    O     0.83680   0.00073   0.29846   0.01267  Uiso   1.00
O19    O     0.08347   0.05522   0.13016   0.01267  Uiso   1.00
O20    O     0.90203   0.89278   0.10062   0.01267  Uiso   1.00
O21    O     0.25000   0.87450   0.00000   0.01267  Uiso   1.00
O22    O     0.75000   0.12550   0.00000   0.01267  Uiso   1.00
