data_image0
_cell_length_a       8.9575
_cell_length_b       19.685
_cell_length_c       25.063
_cell_angle_alpha    90
_cell_angle_beta     96.015
_cell_angle_gamma    90

_symmetry_space_group_name_H-M    "P 1"
_symmetry_int_tables_number       1

loop_
  _symmetry_equiv_pos_as_xyz
  'x, y, z'

loop_
  _atom_site_label
  _atom_site_occupancy
  _atom_site_fract_x
  _atom_site_fract_y
  _atom_site_fract_z
  _atom_site_thermal_displace_type
  _atom_site_B_iso_or_equiv
  _atom_site_type_symbol
  C1       1.0000 0.39000  0.24890  0.98242  Biso   1.000  C
  H1       1.0000 0.30570  0.22720  0.99300  Biso   1.000  H
  C2       1.0000 0.49830  0.21020  0.96240  Biso   1.000  C
  H2       1.0000 0.48730  0.16330  0.96040  Biso   1.000  H
  C3       1.0000 0.62380  0.24050  0.94514  Biso   1.000  C
  C4       1.0000 0.63320  0.31120  0.94987  Biso   1.000  C
  H3       1.0000 0.71530  0.33450  0.93910  Biso   1.000  H
  C5       1.0000 0.51890  0.34570  0.97080  Biso   1.000  C
  H4       1.0000 0.52600  0.39280  0.97330  Biso   1.000  H
  C6       1.0000 0.74060  0.19930  0.92336  Biso   1.000  C
  C7       1.0000 0.70340  0.13810  0.89780  Biso   1.000  C
  H5       1.0000 0.60350  0.12450  0.89250  Biso   1.000  H
  C8       1.0000 0.81310  0.09730  0.88010  Biso   1.000  C
  H6       1.0000 0.78590  0.05630  0.86340  Biso   1.000  H
  C9       1.0000 0.96050  0.11570  0.88646  Biso   1.000  C
  C10      1.0000 0.99880  0.17790  0.90930  Biso   1.000  C
  H7       1.0000 0.09820  0.19230  0.91240  Biso   1.000  H
  C11      1.0000 0.88910  0.21880  0.92758  Biso   1.000  C
  H8       1.0000 0.91630  0.26060  0.94310  Biso   1.000  H
  C12      1.0000 0.04580  0.04490  0.81670  Biso   1.000  C
  C13      1.0000 0.07010  0.97770  0.80587  Biso   1.000  C
  H9       1.0000 0.11020  0.94930  0.83330  Biso   1.000  H
  C14      1.0000 0.03620  0.95160  0.75497  Biso   1.000  C
  H10      1.0000 0.05370  0.90580  0.74900  Biso   1.000  H
  C15      1.0000 0.97700  0.99180  0.71266  Biso   1.000  C
  C16      1.0000 0.94990  0.06000  0.72403  Biso   1.000  C
  H11      1.0000 0.90730  0.08840  0.69690  Biso   1.000  H
  C17      1.0000 0.98560  0.08570  0.77490  Biso   1.000  C
  H12      1.0000 0.96870  0.13150  0.78130  Biso   1.000  H
  C18      1.0000 0.93590  0.96400  0.65902  Biso   1.000  C
  C19      1.0000 0.89600  0.89620  0.65077  Biso   1.000  C
  H13      1.0000 0.89990  0.86660  0.67980  Biso   1.000  H
  C20      1.0000 0.85120  0.87280  0.60040  Biso   1.000  C
  H14      1.0000 0.82310  0.82750  0.59620  Biso   1.000  H
  C21      1.0000 0.88720  0.97590  0.56314  Biso   1.000  C
  H15      1.0000 0.88580  0.00380  0.53310  Biso   1.000  H
  C22      1.0000 0.93290  0.00310  0.61317  Biso   1.000  C
  H16      1.0000 0.96190  0.04840  0.61590  Biso   1.000  H
  C23      1.0000 0.19390  0.05090  0.90538  Biso   1.000  C
  C24      1.0000 0.17980  0.04850  0.95993  Biso   1.000  C
  H17      1.0000 0.08810  0.05910  0.97220  Biso   1.000  H
  C25      1.0000 0.29980  0.03090  0.99618  Biso   1.000  C
  H18      1.0000 0.28870  0.03270  0.03260  Biso   1.000  H
  C26      1.0000 0.43560  0.01050  0.98042  Biso   1.000  C
  C27      1.0000 0.44560  0.00990  0.92529  Biso   1.000  C
  H19      1.0000 0.53410  0.99520  0.91270  Biso   1.000  H
  C28      1.0000 0.32750  0.03040  0.88882  Biso   1.000  C
  H20      1.0000 0.33920  0.03040  0.85240  Biso   1.000  H
  C29      1.0000 0.00170  0.30970  0.04741  Biso   1.000  C
  C30      1.0000 0.87430  0.27100  0.06844  Biso   1.000  C
  C31      1.0000 0.74990  0.30480  0.08485  Biso   1.000  C
  H21      1.0000 0.74390  0.35190  0.08200  Biso   1.000  H
  C32      1.0000 0.63650  0.26960  0.10510  Biso   1.000  C
  H22      1.0000 0.55320  0.29290  0.11490  Biso   1.000  H
  C33      1.0000 0.64440  0.19970  0.11111  Biso   1.000  C
  C34      1.0000 0.76510  0.16660  0.09272  Biso   1.000  C
  H23      1.0000 0.76970  0.11950  0.09460  Biso   1.000  H
  C35      1.0000 0.87820  0.20120  0.07191  Biso   1.000  C
  H24      1.0000 0.95820  0.17740  0.06000  Biso   1.000  H
  C36      1.0000 0.52730  0.16210  0.13677  Biso   1.000  C
  C37      1.0000 0.37810  0.16230  0.11690  Biso   1.000  C
  H25      1.0000 0.34720  0.18700  0.08610  Biso   1.000  H
  C38      1.0000 0.27330  0.12600  0.14230  Biso   1.000  C
  H26      1.0000 0.17310  0.12620  0.12810  Biso   1.000  H
  C39      1.0000 0.31500  0.09010  0.18750  Biso   1.000  C
  H27      1.0000 0.24390  0.06490  0.20340  Biso   1.000  H
  C40      1.0000 0.46230  0.09070  0.21025  Biso   1.000  C
  C41      1.0000 0.56800  0.12540  0.18395  Biso   1.000  C
  H28      1.0000 0.66820  0.12430  0.19800  Biso   1.000  H
  C42      1.0000 0.50850  0.05520  0.26166  Biso   1.000  C
  C43      1.0000 0.44920  0.99570  0.27450  Biso   1.000  C
  H29      1.0000 0.37530  0.97620  0.25050  Biso   1.000  H
  C44      1.0000 0.49360  0.96210  0.32220  Biso   1.000  C
  H30      1.0000 0.45250  0.91990  0.32870  Biso   1.000  H
  C45      1.0000 0.65820  0.05080  0.34730  Biso   1.000  C
  H31      1.0000 0.73070  0.07030  0.37180  Biso   1.000  H
  C46      1.0000 0.61580  0.08370  0.29970  Biso   1.000  C
  H32      1.0000 0.65890  0.12530  0.29280  Biso   1.000  H
  C47      1.0000 0.59600  0.98990  0.35930  Biso   1.000  C
  C48      1.0000 0.65070  0.95390  0.40960  Biso   1.000  C
  N1       1.0000 0.07360  0.07250  0.86876  Biso   1.000  N
  N2       1.0000 0.40030  0.31628  0.98739  Biso   1.000  N
  N3       1.0000 0.84580  0.91238  0.55650  Biso   1.000  N
  O1       1.0000 0.11110  0.28020  0.03463  Biso   1.000  O
  O2       1.0000 0.99110  0.37170  0.04300  Biso   1.000  O
  O3       1.0000 0.65300  0.89180  0.40930  Biso   1.000  O
  O4       1.0000 0.71540  0.98060  0.44670  Biso   1.000  O
  Zn1      1.0000 0.22643  0.37169  0.01777  Biso   1.000  Zn
  C49      1.0000 0.61000  0.74890  0.51758  Biso   1.000  C
  H33      1.0000 0.69430  0.72720  0.50700  Biso   1.000  H
  C50      1.0000 0.50170  0.71020  0.53760  Biso   1.000  C
  H34      1.0000 0.51270  0.66330  0.53960  Biso   1.000  H
  C51      1.0000 0.37620  0.74050  0.55486  Biso   1.000  C
  C52      1.0000 0.36680  0.81120  0.55013  Biso   1.000  C
  H35      1.0000 0.28470  0.83450  0.56090  Biso   1.000  H
  C53      1.0000 0.48110  0.84570  0.52920  Biso   1.000  C
  H36      1.0000 0.47400  0.89280  0.52670  Biso   1.000  H
  C54      1.0000 0.25940  0.69930  0.57664  Biso   1.000  C
  C55      1.0000 0.29660  0.63810  0.60220  Biso   1.000  C
  H37      1.0000 0.39650  0.62450  0.60750  Biso   1.000  H
  C56      1.0000 0.18690  0.59730  0.61990  Biso   1.000  C
  H38      1.0000 0.21410  0.55630  0.63660  Biso   1.000  H
  C57      1.0000 0.03950  0.61570  0.61354  Biso   1.000  C
  C58      1.0000 0.00120  0.67790  0.59070  Biso   1.000  C
  H39      1.0000 0.90180  0.69230  0.58760  Biso   1.000  H
  C59      1.0000 0.11090  0.71880  0.57242  Biso   1.000  C
  H40      1.0000 0.08370  0.76060  0.55690  Biso   1.000  H
  C60      1.0000 0.95420  0.54490  0.68330  Biso   1.000  C
  C61      1.0000 0.92990  0.47770  0.69413  Biso   1.000  C
  H41      1.0000 0.88980  0.44930  0.66670  Biso   1.000  H
  C62      1.0000 0.96380  0.45160  0.74503  Biso   1.000  C
  H42      1.0000 0.94630  0.40580  0.75100  Biso   1.000  H
  C63      1.0000 0.02300  0.49180  0.78734  Biso   1.000  C
  C64      1.0000 0.05010  0.56000  0.77597  Biso   1.000  C
  H43      1.0000 0.09270  0.58840  0.80310  Biso   1.000  H
  C65      1.0000 0.01440  0.58570  0.72510  Biso   1.000  C
  H44      1.0000 0.03130  0.63150  0.71870  Biso   1.000  H
  C66      1.0000 0.06410  0.46400  0.84098  Biso   1.000  C
  C67      1.0000 0.10400  0.39620  0.84923  Biso   1.000  C
  H45      1.0000 0.10010  0.36660  0.82020  Biso   1.000  H
  C68      1.0000 0.14880  0.37280  0.89960  Biso   1.000  C
  H46      1.0000 0.17690  0.32750  0.90380  Biso   1.000  H
  C69      1.0000 0.11280  0.47590  0.93686  Biso   1.000  C
  H47      1.0000 0.11420  0.50380  0.96690  Biso   1.000  H
  C70      1.0000 0.06710  0.50310  0.88683  Biso   1.000  C
  H48      1.0000 0.03810  0.54840  0.88410  Biso   1.000  H
  C71      1.0000 0.80610  0.55090  0.59462  Biso   1.000  C
  C72      1.0000 0.82020  0.54850  0.54007  Biso   1.000  C
  H49      1.0000 0.91190  0.55910  0.52780  Biso   1.000  H
  C73      1.0000 0.70020  0.53090  0.50382  Biso   1.000  C
  H50      1.0000 0.71130  0.53270  0.46740  Biso   1.000  H
  C74      1.0000 0.56440  0.51050  0.51958  Biso   1.000  C
  C75      1.0000 0.55440  0.50990  0.57471  Biso   1.000  C
  H51      1.0000 0.46590  0.49520  0.58730  Biso   1.000  H
  C76      1.0000 0.67250  0.53040  0.61118  Biso   1.000  C
  H52      1.0000 0.66080  0.53040  0.64760  Biso   1.000  H
  C77      1.0000 0.99830  0.80970  0.45259  Biso   1.000  C
  C78      1.0000 0.12570  0.77100  0.43156  Biso   1.000  C
  C79      1.0000 0.25010  0.80480  0.41515  Biso   1.000  C
  H53      1.0000 0.25610  0.85190  0.41800  Biso   1.000  H
  C80      1.0000 0.36350  0.76960  0.39490  Biso   1.000  C
  H54      1.0000 0.44680  0.79290  0.38510  Biso   1.000  H
  C81      1.0000 0.35560  0.69970  0.38889  Biso   1.000  C
  C82      1.0000 0.23490  0.66660  0.40728  Biso   1.000  C
  H55      1.0000 0.23030  0.61950  0.40540  Biso   1.000  H
  C83      1.0000 0.12180  0.70120  0.42809  Biso   1.000  C
  H56      1.0000 0.04180  0.67740  0.44000  Biso   1.000  H
  C84      1.0000 0.47270  0.66210  0.36323  Biso   1.000  C
  C85      1.0000 0.62190  0.66230  0.38310  Biso   1.000  C
  H57      1.0000 0.65280  0.68700  0.41390  Biso   1.000  H
  C86      1.0000 0.72670  0.62600  0.35770  Biso   1.000  C
  H58      1.0000 0.82690  0.62620  0.37190  Biso   1.000  H
  C87      1.0000 0.68500  0.59010  0.31250  Biso   1.000  C
  H59      1.0000 0.75610  0.56490  0.29660  Biso   1.000  H
  C88      1.0000 0.53770  0.59070  0.28975  Biso   1.000  C
  C89      1.0000 0.43200  0.62540  0.31605  Biso   1.000  C
  H60      1.0000 0.33180  0.62430  0.30200  Biso   1.000  H
  C90      1.0000 0.49150  0.55520  0.23834  Biso   1.000  C
  C91      1.0000 0.55080  0.49570  0.22550  Biso   1.000  C
  H61      1.0000 0.62470  0.47620  0.24950  Biso   1.000  H
  C92      1.0000 0.50640  0.46210  0.17780  Biso   1.000  C
  H62      1.0000 0.54750  0.41990  0.17130  Biso   1.000  H
  C93      1.0000 0.34180  0.55080  0.15270  Biso   1.000  C
  H63      1.0000 0.26930  0.57030  0.12820  Biso   1.000  H
  C94      1.0000 0.38420  0.58370  0.20030  Biso   1.000  C
  H64      1.0000 0.34110  0.62530  0.20720  Biso   1.000  H
  C95      1.0000 0.40400  0.48990  0.14070  Biso   1.000  C
  C96      1.0000 0.34930  0.45390  0.09040  Biso   1.000  C
  N4       1.0000 0.92640  0.57250  0.63124  Biso   1.000  N
  N5       1.0000 0.59970  0.81628  0.51261  Biso   1.000  N
  N6       1.0000 0.15420  0.41238  0.94350  Biso   1.000  N
  O5       1.0000 0.88890  0.78020  0.46537  Biso   1.000  O
  O6       1.0000 0.00890  0.87170  0.45700  Biso   1.000  O
  O7       1.0000 0.34700  0.39180  0.09070  Biso   1.000  O
  O8       1.0000 0.28460  0.48060  0.05330  Biso   1.000  O
  Zn2      1.0000 0.77357  0.87169  0.48223  Biso   1.000  Zn
  C97      1.0000 0.61000  0.75110  0.01758  Biso   1.000  C
  H65      1.0000 0.69430  0.77280  0.00700  Biso   1.000  H
  C98      1.0000 0.50170  0.78980  0.03760  Biso   1.000  C
  H66      1.0000 0.51270  0.83670  0.03960  Biso   1.000  H
  C99      1.0000 0.37620  0.75950  0.05486  Biso   1.000  C
  C100     1.0000 0.36680  0.68880  0.05013  Biso   1.000  C
  H67      1.0000 0.28470  0.66550  0.06090  Biso   1.000  H
  C101     1.0000 0.48110  0.65430  0.02920  Biso   1.000  C
  H68      1.0000 0.47400  0.60720  0.02670  Biso   1.000  H
  C102     1.0000 0.25940  0.80070  0.07664  Biso   1.000  C
  C103     1.0000 0.29660  0.86190  0.10220  Biso   1.000  C
  H69      1.0000 0.39650  0.87550  0.10750  Biso   1.000  H
  C104     1.0000 0.18690  0.90270  0.11990  Biso   1.000  C
  H70      1.0000 0.21410  0.94370  0.13660  Biso   1.000  H
  C105     1.0000 0.03950  0.88430  0.11354  Biso   1.000  C
  C106     1.0000 0.00120  0.82210  0.09070  Biso   1.000  C
  H71      1.0000 0.90180  0.80770  0.08760  Biso   1.000  H
  C107     1.0000 0.11090  0.78120  0.07242  Biso   1.000  C
  H72      1.0000 0.08370  0.73940  0.05690  Biso   1.000  H
  C108     1.0000 0.95420  0.95510  0.18330  Biso   1.000  C
  C109     1.0000 0.92990  0.02230  0.19413  Biso   1.000  C
  H73      1.0000 0.88980  0.05070  0.16670  Biso   1.000  H
  C110     1.0000 0.96380  0.04840  0.24503  Biso   1.000  C
  H74      1.0000 0.94630  0.09420  0.25100  Biso   1.000  H
  C111     1.0000 0.02300  0.00820  0.28734  Biso   1.000  C
  C112     1.0000 0.05010  0.94000  0.27597  Biso   1.000  C
  H75      1.0000 0.09270  0.91160  0.30310  Biso   1.000  H
  C113     1.0000 0.01440  0.91430  0.22510  Biso   1.000  C
  H76      1.0000 0.03130  0.86850  0.21870  Biso   1.000  H
  C114     1.0000 0.06410  0.03600  0.34098  Biso   1.000  C
  C115     1.0000 0.10400  0.10380  0.34923  Biso   1.000  C
  H77      1.0000 0.10010  0.13340  0.32020  Biso   1.000  H
  C116     1.0000 0.14880  0.12720  0.39960  Biso   1.000  C
  H78      1.0000 0.17690  0.17250  0.40380  Biso   1.000  H
  C117     1.0000 0.11280  0.02410  0.43686  Biso   1.000  C
  H79      1.0000 0.11420  0.99620  0.46690  Biso   1.000  H
  C118     1.0000 0.06710  0.99690  0.38683  Biso   1.000  C
  H80      1.0000 0.03810  0.95160  0.38410  Biso   1.000  H
  C119     1.0000 0.80610  0.94910  0.09462  Biso   1.000  C
  C120     1.0000 0.82020  0.95150  0.04007  Biso   1.000  C
  H81      1.0000 0.91190  0.94090  0.02780  Biso   1.000  H
  C121     1.0000 0.70020  0.96910  0.00382  Biso   1.000  C
  H82      1.0000 0.71130  0.96730  0.96740  Biso   1.000  H
  C122     1.0000 0.56440  0.98950  0.01958  Biso   1.000  C
  C123     1.0000 0.55440  0.99010  0.07471  Biso   1.000  C
  H83      1.0000 0.46590  0.00480  0.08730  Biso   1.000  H
  C124     1.0000 0.67250  0.96960  0.11118  Biso   1.000  C
  H84      1.0000 0.66080  0.96960  0.14760  Biso   1.000  H
  C125     1.0000 0.99830  0.69030  0.95259  Biso   1.000  C
  C126     1.0000 0.12570  0.72900  0.93156  Biso   1.000  C
  C127     1.0000 0.25010  0.69520  0.91515  Biso   1.000  C
  H85      1.0000 0.25610  0.64810  0.91800  Biso   1.000  H
  C128     1.0000 0.36350  0.73040  0.89490  Biso   1.000  C
  H86      1.0000 0.44680  0.70710  0.88510  Biso   1.000  H
  C129     1.0000 0.35560  0.80030  0.88889  Biso   1.000  C
  C130     1.0000 0.23490  0.83340  0.90728  Biso   1.000  C
  H87      1.0000 0.23030  0.88050  0.90540  Biso   1.000  H
  C131     1.0000 0.12180  0.79880  0.92809  Biso   1.000  C
  H88      1.0000 0.04180  0.82260  0.94000  Biso   1.000  H
  C132     1.0000 0.47270  0.83790  0.86323  Biso   1.000  C
  C133     1.0000 0.62190  0.83770  0.88310  Biso   1.000  C
  H89      1.0000 0.65280  0.81300  0.91390  Biso   1.000  H
  C134     1.0000 0.72670  0.87400  0.85770  Biso   1.000  C
  H90      1.0000 0.82690  0.87380  0.87190  Biso   1.000  H
  C135     1.0000 0.68500  0.90990  0.81250  Biso   1.000  C
  H91      1.0000 0.75610  0.93510  0.79660  Biso   1.000  H
  C136     1.0000 0.53770  0.90930  0.78975  Biso   1.000  C
  C137     1.0000 0.43200  0.87460  0.81605  Biso   1.000  C
  H92      1.0000 0.33180  0.87570  0.80200  Biso   1.000  H
  C138     1.0000 0.49150  0.94480  0.73834  Biso   1.000  C
  C139     1.0000 0.55080  0.00430  0.72550  Biso   1.000  C
  H93      1.0000 0.62470  0.02380  0.74950  Biso   1.000  H
  C140     1.0000 0.50640  0.03790  0.67780  Biso   1.000  C
  H94      1.0000 0.54750  0.08010  0.67130  Biso   1.000  H
  C141     1.0000 0.34180  0.94920  0.65270  Biso   1.000  C
  H95      1.0000 0.26930  0.92970  0.62820  Biso   1.000  H
  C142     1.0000 0.38420  0.91630  0.70030  Biso   1.000  C
  H96      1.0000 0.34110  0.87470  0.70720  Biso   1.000  H
  C143     1.0000 0.40400  0.01010  0.64070  Biso   1.000  C
  C144     1.0000 0.34930  0.04610  0.59040  Biso   1.000  C
  N7       1.0000 0.92640  0.92750  0.13124  Biso   1.000  N
  N8       1.0000 0.59970  0.68372  0.01261  Biso   1.000  N
  N9       1.0000 0.15420  0.08762  0.44350  Biso   1.000  N
  O9       1.0000 0.88890  0.71980  0.96537  Biso   1.000  O
  O10      1.0000 0.00890  0.62830  0.95700  Biso   1.000  O
  O11      1.0000 0.34700  0.10820  0.59070  Biso   1.000  O
  O12      1.0000 0.28460  0.01940  0.55330  Biso   1.000  O
  Zn3      1.0000 0.77357  0.62831  0.98223  Biso   1.000  Zn
  C145     1.0000 0.39000  0.25110  0.48242  Biso   1.000  C
  H97      1.0000 0.30570  0.27280  0.49300  Biso   1.000  H
  C146     1.0000 0.49830  0.28980  0.46240  Biso   1.000  C
  H98      1.0000 0.48730  0.33670  0.46040  Biso   1.000  H
  C147     1.0000 0.62380  0.25950  0.44514  Biso   1.000  C
  C148     1.0000 0.63320  0.18880  0.44987  Biso   1.000  C
  H99      1.0000 0.71530  0.16550  0.43910  Biso   1.000  H
  C149     1.0000 0.51890  0.15430  0.47080  Biso   1.000  C
  H100     1.0000 0.52600  0.10720  0.47330  Biso   1.000  H
  C150     1.0000 0.74060  0.30070  0.42336  Biso   1.000  C
  C151     1.0000 0.70340  0.36190  0.39780  Biso   1.000  C
  H101     1.0000 0.60350  0.37550  0.39250  Biso   1.000  H
  C152     1.0000 0.81310  0.40270  0.38010  Biso   1.000  C
  H102     1.0000 0.78590  0.44370  0.36340  Biso   1.000  H
  C153     1.0000 0.96050  0.38430  0.38646  Biso   1.000  C
  C154     1.0000 0.99880  0.32210  0.40930  Biso   1.000  C
  H103     1.0000 0.09820  0.30770  0.41240  Biso   1.000  H
  C155     1.0000 0.88910  0.28120  0.42758  Biso   1.000  C
  H104     1.0000 0.91630  0.23940  0.44310  Biso   1.000  H
  C156     1.0000 0.04580  0.45510  0.31670  Biso   1.000  C
  C157     1.0000 0.07010  0.52230  0.30587  Biso   1.000  C
  H105     1.0000 0.11020  0.55070  0.33330  Biso   1.000  H
  C158     1.0000 0.03620  0.54840  0.25497  Biso   1.000  C
  H106     1.0000 0.05370  0.59420  0.24900  Biso   1.000  H
  C159     1.0000 0.97700  0.50820  0.21266  Biso   1.000  C
  C160     1.0000 0.94990  0.44000  0.22403  Biso   1.000  C
  H107     1.0000 0.90730  0.41160  0.19690  Biso   1.000  H
  C161     1.0000 0.98560  0.41430  0.27490  Biso   1.000  C
  H108     1.0000 0.96870  0.36850  0.28130  Biso   1.000  H
  C162     1.0000 0.93590  0.53600  0.15902  Biso   1.000  C
  C163     1.0000 0.89600  0.60380  0.15077  Biso   1.000  C
  H109     1.0000 0.89990  0.63340  0.17980  Biso   1.000  H
  C164     1.0000 0.85120  0.62720  0.10040  Biso   1.000  C
  H110     1.0000 0.82310  0.67250  0.09620  Biso   1.000  H
  C165     1.0000 0.88720  0.52410  0.06314  Biso   1.000  C
  H111     1.0000 0.88580  0.49620  0.03310  Biso   1.000  H
  C166     1.0000 0.93290  0.49690  0.11317  Biso   1.000  C
  H112     1.0000 0.96190  0.45160  0.11590  Biso   1.000  H
  C167     1.0000 0.19390  0.44910  0.40538  Biso   1.000  C
  C168     1.0000 0.17980  0.45150  0.45993  Biso   1.000  C
  H113     1.0000 0.08810  0.44090  0.47220  Biso   1.000  H
  C169     1.0000 0.29980  0.46910  0.49618  Biso   1.000  C
  H114     1.0000 0.28870  0.46730  0.53260  Biso   1.000  H
  C170     1.0000 0.43560  0.48950  0.48042  Biso   1.000  C
  C171     1.0000 0.44560  0.49010  0.42529  Biso   1.000  C
  H115     1.0000 0.53410  0.50480  0.41270  Biso   1.000  H
  C172     1.0000 0.32750  0.46960  0.38882  Biso   1.000  C
  H116     1.0000 0.33920  0.46960  0.35240  Biso   1.000  H
  C173     1.0000 0.00170  0.19030  0.54741  Biso   1.000  C
  C174     1.0000 0.87430  0.22900  0.56844  Biso   1.000  C
  C175     1.0000 0.74990  0.19520  0.58485  Biso   1.000  C
  H117     1.0000 0.74390  0.14810  0.58200  Biso   1.000  H
  C176     1.0000 0.63650  0.23040  0.60510  Biso   1.000  C
  H118     1.0000 0.55320  0.20710  0.61490  Biso   1.000  H
  C177     1.0000 0.64440  0.30030  0.61111  Biso   1.000  C
  C178     1.0000 0.76510  0.33340  0.59272  Biso   1.000  C
  H119     1.0000 0.76970  0.38050  0.59460  Biso   1.000  H
  C179     1.0000 0.87820  0.29880  0.57191  Biso   1.000  C
  H120     1.0000 0.95820  0.32260  0.56000  Biso   1.000  H
  C180     1.0000 0.52730  0.33790  0.63677  Biso   1.000  C
  C181     1.0000 0.37810  0.33770  0.61690  Biso   1.000  C
  H121     1.0000 0.34720  0.31300  0.58610  Biso   1.000  H
  C182     1.0000 0.27330  0.37400  0.64230  Biso   1.000  C
  H122     1.0000 0.17310  0.37380  0.62810  Biso   1.000  H
  C183     1.0000 0.31500  0.40990  0.68750  Biso   1.000  C
  H123     1.0000 0.24390  0.43510  0.70340  Biso   1.000  H
  C184     1.0000 0.46230  0.40930  0.71025  Biso   1.000  C
  C185     1.0000 0.56800  0.37460  0.68395  Biso   1.000  C
  H124     1.0000 0.66820  0.37570  0.69800  Biso   1.000  H
  C186     1.0000 0.50850  0.44480  0.76166  Biso   1.000  C
  C187     1.0000 0.44920  0.50430  0.77450  Biso   1.000  C
  H125     1.0000 0.37530  0.52380  0.75050  Biso   1.000  H
  C188     1.0000 0.49360  0.53790  0.82220  Biso   1.000  C
  H126     1.0000 0.45250  0.58010  0.82870  Biso   1.000  H
  C189     1.0000 0.65820  0.44920  0.84730  Biso   1.000  C
  H127     1.0000 0.73070  0.42970  0.87180  Biso   1.000  H
  C190     1.0000 0.61580  0.41630  0.79970  Biso   1.000  C
  H128     1.0000 0.65890  0.37470  0.79280  Biso   1.000  H
  C191     1.0000 0.59600  0.51010  0.85930  Biso   1.000  C
  C192     1.0000 0.65070  0.54610  0.90960  Biso   1.000  C
  N10      1.0000 0.07360  0.42750  0.36876  Biso   1.000  N
  N11      1.0000 0.40030  0.18372  0.48739  Biso   1.000  N
  N12      1.0000 0.84580  0.58762  0.05650  Biso   1.000  N
  O13      1.0000 0.11110  0.21980  0.53463  Biso   1.000  O
  O14      1.0000 0.99110  0.12830  0.54300  Biso   1.000  O
  O15      1.0000 0.65300  0.60820  0.90930  Biso   1.000  O
  O16      1.0000 0.71540  0.51940  0.94670  Biso   1.000  O
  Zn4      1.0000 0.22643  0.12831  0.51777  Biso   1.000  Zn
