data_image0
_cell_length_a       18.76
_cell_length_b       18.76
_cell_length_c       17.999
_cell_angle_alpha    90
_cell_angle_beta     90
_cell_angle_gamma    90

_symmetry_space_group_name_H-M    "P 1"
_symmetry_int_tables_number       1

loop_
  _symmetry_equiv_pos_as_xyz
  'x, y, z'

loop_
  _atom_site_label
  _atom_site_occupancy
  _atom_site_fract_x
  _atom_site_fract_y
  _atom_site_fract_z
  _atom_site_thermal_displace_type
  _atom_site_B_iso_or_equiv
  _atom_site_type_symbol
  C1       1.0000 0.90340  0.80030  0.76280  Biso   1.000  C
  C2       1.0000 0.88040  0.77410  0.68800  Biso   1.000  C
  C3       1.0000 0.81400  0.76480  0.66120  Biso   1.000  C
  H1       1.0000 0.77280  0.77660  0.68720  Biso   1.000  H
  C4       1.0000 0.03580  0.77570  0.96540  Biso   1.000  C
  H2       1.0000 0.02780  0.73260  0.94120  Biso   1.000  H
  C5       1.0000 0.08450  0.78790  0.01950  Biso   1.000  C
  H3       1.0000 0.11580  0.75450  0.03930  Biso   1.000  H
  C6       1.0000 0.97790  0.97010  0.77030  Biso   1.000  C
  H4       1.0000 0.95980  0.94730  0.72850  Biso   1.000  H
  N1       1.0000 0.02930  0.88640  0.99900  Biso   1.000  N
  N2       1.0000 0.00100  0.83800  0.95300  Biso   1.000  N
  N3       1.0000 0.07970  0.85560  0.03920  Biso   1.000  N
  N4       1.0000 0.96640  0.95160  0.83980  Biso   1.000  N
  O1       1.0000 0.96220  0.79080  0.78460  Biso   1.000  O
  O2       1.0000 0.85700  0.83300  0.80050  Biso   1.000  O
  Zn1      1.0000 0.91593  0.86150  0.88833  Biso   1.000  Zn
  C7       1.0000 0.40340  0.30030  0.26280  Biso   1.000  C
  C8       1.0000 0.38040  0.27410  0.18800  Biso   1.000  C
  C9       1.0000 0.31400  0.26480  0.16120  Biso   1.000  C
  H5       1.0000 0.27280  0.27660  0.18720  Biso   1.000  H
  C10      1.0000 0.53580  0.27570  0.46540  Biso   1.000  C
  H6       1.0000 0.52780  0.23260  0.44120  Biso   1.000  H
  C11      1.0000 0.58450  0.28790  0.51950  Biso   1.000  C
  H7       1.0000 0.61580  0.25450  0.53930  Biso   1.000  H
  C12      1.0000 0.47790  0.47010  0.27030  Biso   1.000  C
  H8       1.0000 0.45980  0.44730  0.22850  Biso   1.000  H
  N5       1.0000 0.52930  0.38640  0.49900  Biso   1.000  N
  N6       1.0000 0.50100  0.33800  0.45300  Biso   1.000  N
  N7       1.0000 0.57970  0.35560  0.53920  Biso   1.000  N
  N8       1.0000 0.46640  0.45160  0.33980  Biso   1.000  N
  O3       1.0000 0.46220  0.29080  0.28460  Biso   1.000  O
  O4       1.0000 0.35700  0.33300  0.30050  Biso   1.000  O
  Zn2      1.0000 0.41593  0.36150  0.38833  Biso   1.000  Zn
  C13      1.0000 0.09660  0.19970  0.76280  Biso   1.000  C
  C14      1.0000 0.11960  0.22590  0.68800  Biso   1.000  C
  C15      1.0000 0.18600  0.23520  0.66120  Biso   1.000  C
  H9       1.0000 0.22720  0.22340  0.68720  Biso   1.000  H
  C16      1.0000 0.96420  0.22430  0.96540  Biso   1.000  C
  H10      1.0000 0.97220  0.26740  0.94120  Biso   1.000  H
  C17      1.0000 0.91550  0.21210  0.01950  Biso   1.000  C
  H11      1.0000 0.88420  0.24550  0.03930  Biso   1.000  H
  C18      1.0000 0.02210  0.02990  0.77030  Biso   1.000  C
  H12      1.0000 0.04020  0.05270  0.72850  Biso   1.000  H
  N9       1.0000 0.97070  0.11360  0.99900  Biso   1.000  N
  N10      1.0000 0.99900  0.16200  0.95300  Biso   1.000  N
  N11      1.0000 0.92030  0.14440  0.03920  Biso   1.000  N
  N12      1.0000 0.03360  0.04840  0.83980  Biso   1.000  N
  O5       1.0000 0.03780  0.20920  0.78460  Biso   1.000  O
  O6       1.0000 0.14300  0.16700  0.80050  Biso   1.000  O
  Zn3      1.0000 0.08407  0.13850  0.88833  Biso   1.000  Zn
  C19      1.0000 0.59660  0.69970  0.26280  Biso   1.000  C
  C20      1.0000 0.61960  0.72590  0.18800  Biso   1.000  C
  C21      1.0000 0.68600  0.73520  0.16120  Biso   1.000  C
  H13      1.0000 0.72720  0.72340  0.18720  Biso   1.000  H
  C22      1.0000 0.46420  0.72430  0.46540  Biso   1.000  C
  H14      1.0000 0.47220  0.76740  0.44120  Biso   1.000  H
  C23      1.0000 0.41550  0.71210  0.51950  Biso   1.000  C
  H15      1.0000 0.38420  0.74550  0.53930  Biso   1.000  H
  C24      1.0000 0.52210  0.52990  0.27030  Biso   1.000  C
  H16      1.0000 0.54020  0.55270  0.22850  Biso   1.000  H
  N13      1.0000 0.47070  0.61360  0.49900  Biso   1.000  N
  N14      1.0000 0.49900  0.66200  0.45300  Biso   1.000  N
  N15      1.0000 0.42030  0.64440  0.53920  Biso   1.000  N
  N16      1.0000 0.53360  0.54840  0.33980  Biso   1.000  N
  O7       1.0000 0.53780  0.70920  0.28460  Biso   1.000  O
  O8       1.0000 0.64300  0.66700  0.30050  Biso   1.000  O
  Zn4      1.0000 0.58407  0.63850  0.38833  Biso   1.000  Zn
  C25      1.0000 0.80030  0.09660  0.23720  Biso   1.000  C
  C26      1.0000 0.77410  0.11960  0.31200  Biso   1.000  C
  C27      1.0000 0.76480  0.18600  0.33880  Biso   1.000  C
  H17      1.0000 0.77660  0.22720  0.31280  Biso   1.000  H
  C28      1.0000 0.77570  0.96420  0.03460  Biso   1.000  C
  H18      1.0000 0.73260  0.97220  0.05880  Biso   1.000  H
  C29      1.0000 0.78790  0.91550  0.98050  Biso   1.000  C
  H19      1.0000 0.75450  0.88420  0.96070  Biso   1.000  H
  C30      1.0000 0.97010  0.02210  0.22970  Biso   1.000  C
  H20      1.0000 0.94730  0.04020  0.27150  Biso   1.000  H
  N17      1.0000 0.88640  0.97070  0.00100  Biso   1.000  N
  N18      1.0000 0.83800  0.99900  0.04700  Biso   1.000  N
  N19      1.0000 0.85560  0.92030  0.96080  Biso   1.000  N
  N20      1.0000 0.95160  0.03360  0.16020  Biso   1.000  N
  O9       1.0000 0.79080  0.03780  0.21540  Biso   1.000  O
  O10      1.0000 0.83300  0.14300  0.19950  Biso   1.000  O
  Zn5      1.0000 0.86150  0.08407  0.11167  Biso   1.000  Zn
  C31      1.0000 0.30030  0.59660  0.73720  Biso   1.000  C
  C32      1.0000 0.27410  0.61960  0.81200  Biso   1.000  C
  C33      1.0000 0.26480  0.68600  0.83880  Biso   1.000  C
  H21      1.0000 0.27660  0.72720  0.81280  Biso   1.000  H
  C34      1.0000 0.27570  0.46420  0.53460  Biso   1.000  C
  H22      1.0000 0.23260  0.47220  0.55880  Biso   1.000  H
  C35      1.0000 0.28790  0.41550  0.48050  Biso   1.000  C
  H23      1.0000 0.25450  0.38420  0.46070  Biso   1.000  H
  C36      1.0000 0.47010  0.52210  0.72970  Biso   1.000  C
  H24      1.0000 0.44730  0.54020  0.77150  Biso   1.000  H
  N21      1.0000 0.38640  0.47070  0.50100  Biso   1.000  N
  N22      1.0000 0.33800  0.49900  0.54700  Biso   1.000  N
  N23      1.0000 0.35560  0.42030  0.46080  Biso   1.000  N
  N24      1.0000 0.45160  0.53360  0.66020  Biso   1.000  N
  O11      1.0000 0.29080  0.53780  0.71540  Biso   1.000  O
  O12      1.0000 0.33300  0.64300  0.69950  Biso   1.000  O
  Zn6      1.0000 0.36150  0.58407  0.61167  Biso   1.000  Zn
  C37      1.0000 0.19970  0.90340  0.23720  Biso   1.000  C
  C38      1.0000 0.22590  0.88040  0.31200  Biso   1.000  C
  C39      1.0000 0.23520  0.81400  0.33880  Biso   1.000  C
  H25      1.0000 0.22340  0.77280  0.31280  Biso   1.000  H
  C40      1.0000 0.22430  0.03580  0.03460  Biso   1.000  C
  H26      1.0000 0.26740  0.02780  0.05880  Biso   1.000  H
  C41      1.0000 0.21210  0.08450  0.98050  Biso   1.000  C
  H27      1.0000 0.24550  0.11580  0.96070  Biso   1.000  H
  C42      1.0000 0.02990  0.97790  0.22970  Biso   1.000  C
  H28      1.0000 0.05270  0.95980  0.27150  Biso   1.000  H
  N25      1.0000 0.11360  0.02930  0.00100  Biso   1.000  N
  N26      1.0000 0.16200  0.00100  0.04700  Biso   1.000  N
  N27      1.0000 0.14440  0.07970  0.96080  Biso   1.000  N
  N28      1.0000 0.04840  0.96640  0.16020  Biso   1.000  N
  O13      1.0000 0.20920  0.96220  0.21540  Biso   1.000  O
  O14      1.0000 0.16700  0.85700  0.19950  Biso   1.000  O
  Zn7      1.0000 0.13850  0.91593  0.11167  Biso   1.000  Zn
  C43      1.0000 0.69970  0.40340  0.73720  Biso   1.000  C
  C44      1.0000 0.72590  0.38040  0.81200  Biso   1.000  C
  C45      1.0000 0.73520  0.31400  0.83880  Biso   1.000  C
  H29      1.0000 0.72340  0.27280  0.81280  Biso   1.000  H
  C46      1.0000 0.72430  0.53580  0.53460  Biso   1.000  C
  H30      1.0000 0.76740  0.52780  0.55880  Biso   1.000  H
  C47      1.0000 0.71210  0.58450  0.48050  Biso   1.000  C
  H31      1.0000 0.74550  0.61580  0.46070  Biso   1.000  H
  C48      1.0000 0.52990  0.47790  0.72970  Biso   1.000  C
  H32      1.0000 0.55270  0.45980  0.77150  Biso   1.000  H
  N29      1.0000 0.61360  0.52930  0.50100  Biso   1.000  N
  N30      1.0000 0.66200  0.50100  0.54700  Biso   1.000  N
  N31      1.0000 0.64440  0.57970  0.46080  Biso   1.000  N
  N32      1.0000 0.54840  0.46640  0.66020  Biso   1.000  N
  O15      1.0000 0.70920  0.46220  0.71540  Biso   1.000  O
  O16      1.0000 0.66700  0.35700  0.69950  Biso   1.000  O
  Zn8      1.0000 0.63850  0.41593  0.61167  Biso   1.000  Zn
  C49      1.0000 0.59660  0.80030  0.98720  Biso   1.000  C
  C50      1.0000 0.61960  0.77410  0.06200  Biso   1.000  C
  C51      1.0000 0.68600  0.76480  0.08880  Biso   1.000  C
  H33      1.0000 0.72720  0.77660  0.06280  Biso   1.000  H
  C52      1.0000 0.46420  0.77570  0.78460  Biso   1.000  C
  H34      1.0000 0.47220  0.73260  0.80880  Biso   1.000  H
  C53      1.0000 0.41550  0.78790  0.73050  Biso   1.000  C
  H35      1.0000 0.38420  0.75450  0.71070  Biso   1.000  H
  C54      1.0000 0.52210  0.97010  0.97970  Biso   1.000  C
  H36      1.0000 0.54020  0.94730  0.02150  Biso   1.000  H
  N33      1.0000 0.47070  0.88640  0.75100  Biso   1.000  N
  N34      1.0000 0.49900  0.83800  0.79700  Biso   1.000  N
  N35      1.0000 0.42030  0.85560  0.71080  Biso   1.000  N
  N36      1.0000 0.53360  0.95160  0.91020  Biso   1.000  N
  O17      1.0000 0.53780  0.79080  0.96540  Biso   1.000  O
  O18      1.0000 0.64300  0.83300  0.94950  Biso   1.000  O
  Zn9      1.0000 0.58407  0.86150  0.86167  Biso   1.000  Zn
  C55      1.0000 0.09660  0.30030  0.48720  Biso   1.000  C
  C56      1.0000 0.11960  0.27410  0.56200  Biso   1.000  C
  C57      1.0000 0.18600  0.26480  0.58880  Biso   1.000  C
  H37      1.0000 0.22720  0.27660  0.56280  Biso   1.000  H
  C58      1.0000 0.96420  0.27570  0.28460  Biso   1.000  C
  H38      1.0000 0.97220  0.23260  0.30880  Biso   1.000  H
  C59      1.0000 0.91550  0.28790  0.23050  Biso   1.000  C
  H39      1.0000 0.88420  0.25450  0.21070  Biso   1.000  H
  C60      1.0000 0.02210  0.47010  0.47970  Biso   1.000  C
  H40      1.0000 0.04020  0.44730  0.52150  Biso   1.000  H
  N37      1.0000 0.97070  0.38640  0.25100  Biso   1.000  N
  N38      1.0000 0.99900  0.33800  0.29700  Biso   1.000  N
  N39      1.0000 0.92030  0.35560  0.21080  Biso   1.000  N
  N40      1.0000 0.03360  0.45160  0.41020  Biso   1.000  N
  O19      1.0000 0.03780  0.29080  0.46540  Biso   1.000  O
  O20      1.0000 0.14300  0.33300  0.44950  Biso   1.000  O
  Zn10     1.0000 0.08407  0.36150  0.36167  Biso   1.000  Zn
  C61      1.0000 0.40340  0.19970  0.98720  Biso   1.000  C
  C62      1.0000 0.38040  0.22590  0.06200  Biso   1.000  C
  C63      1.0000 0.31400  0.23520  0.08880  Biso   1.000  C
  H41      1.0000 0.27280  0.22340  0.06280  Biso   1.000  H
  C64      1.0000 0.53580  0.22430  0.78460  Biso   1.000  C
  H42      1.0000 0.52780  0.26740  0.80880  Biso   1.000  H
  C65      1.0000 0.58450  0.21210  0.73050  Biso   1.000  C
  H43      1.0000 0.61580  0.24550  0.71070  Biso   1.000  H
  C66      1.0000 0.47790  0.02990  0.97970  Biso   1.000  C
  H44      1.0000 0.45980  0.05270  0.02150  Biso   1.000  H
  N41      1.0000 0.52930  0.11360  0.75100  Biso   1.000  N
  N42      1.0000 0.50100  0.16200  0.79700  Biso   1.000  N
  N43      1.0000 0.57970  0.14440  0.71080  Biso   1.000  N
  N44      1.0000 0.46640  0.04840  0.91020  Biso   1.000  N
  O21      1.0000 0.46220  0.20920  0.96540  Biso   1.000  O
  O22      1.0000 0.35700  0.16700  0.94950  Biso   1.000  O
  Zn11     1.0000 0.41593  0.13850  0.86167  Biso   1.000  Zn
  C67      1.0000 0.90340  0.69970  0.48720  Biso   1.000  C
  C68      1.0000 0.88040  0.72590  0.56200  Biso   1.000  C
  C69      1.0000 0.81400  0.73520  0.58880  Biso   1.000  C
  H45      1.0000 0.77280  0.72340  0.56280  Biso   1.000  H
  C70      1.0000 0.03580  0.72430  0.28460  Biso   1.000  C
  H46      1.0000 0.02780  0.76740  0.30880  Biso   1.000  H
  C71      1.0000 0.08450  0.71210  0.23050  Biso   1.000  C
  H47      1.0000 0.11580  0.74550  0.21070  Biso   1.000  H
  C72      1.0000 0.97790  0.52990  0.47970  Biso   1.000  C
  H48      1.0000 0.95980  0.55270  0.52150  Biso   1.000  H
  N45      1.0000 0.02930  0.61360  0.25100  Biso   1.000  N
  N46      1.0000 0.00100  0.66200  0.29700  Biso   1.000  N
  N47      1.0000 0.07970  0.64440  0.21080  Biso   1.000  N
  N48      1.0000 0.96640  0.54840  0.41020  Biso   1.000  N
  O23      1.0000 0.96220  0.70920  0.46540  Biso   1.000  O
  O24      1.0000 0.85700  0.66700  0.44950  Biso   1.000  O
  Zn12     1.0000 0.91593  0.63850  0.36167  Biso   1.000  Zn
  C73      1.0000 0.69970  0.09660  0.51280  Biso   1.000  C
  C74      1.0000 0.72590  0.11960  0.43800  Biso   1.000  C
  C75      1.0000 0.73520  0.18600  0.41120  Biso   1.000  C
  H49      1.0000 0.72340  0.22720  0.43720  Biso   1.000  H
  C76      1.0000 0.72430  0.96420  0.71540  Biso   1.000  C
  H50      1.0000 0.76740  0.97220  0.69120  Biso   1.000  H
  C77      1.0000 0.71210  0.91550  0.76950  Biso   1.000  C
  H51      1.0000 0.74550  0.88420  0.78930  Biso   1.000  H
  C78      1.0000 0.52990  0.02210  0.52030  Biso   1.000  C
  H52      1.0000 0.55270  0.04020  0.47850  Biso   1.000  H
  N49      1.0000 0.61360  0.97070  0.74900  Biso   1.000  N
  N50      1.0000 0.66200  0.99900  0.70300  Biso   1.000  N
  N51      1.0000 0.64440  0.92030  0.78920  Biso   1.000  N
  N52      1.0000 0.54840  0.03360  0.58980  Biso   1.000  N
  O25      1.0000 0.70920  0.03780  0.53460  Biso   1.000  O
  O26      1.0000 0.66700  0.14300  0.55050  Biso   1.000  O
  Zn13     1.0000 0.63850  0.08407  0.63833  Biso   1.000  Zn
  C79      1.0000 0.19970  0.59660  0.01280  Biso   1.000  C
  C80      1.0000 0.22590  0.61960  0.93800  Biso   1.000  C
  C81      1.0000 0.23520  0.68600  0.91120  Biso   1.000  C
  H53      1.0000 0.22340  0.72720  0.93720  Biso   1.000  H
  C82      1.0000 0.22430  0.46420  0.21540  Biso   1.000  C
  H54      1.0000 0.26740  0.47220  0.19120  Biso   1.000  H
  C83      1.0000 0.21210  0.41550  0.26950  Biso   1.000  C
  H55      1.0000 0.24550  0.38420  0.28930  Biso   1.000  H
  C84      1.0000 0.02990  0.52210  0.02030  Biso   1.000  C
  H56      1.0000 0.05270  0.54020  0.97850  Biso   1.000  H
  N53      1.0000 0.11360  0.47070  0.24900  Biso   1.000  N
  N54      1.0000 0.16200  0.49900  0.20300  Biso   1.000  N
  N55      1.0000 0.14440  0.42030  0.28920  Biso   1.000  N
  N56      1.0000 0.04840  0.53360  0.08980  Biso   1.000  N
  O27      1.0000 0.20920  0.53780  0.03460  Biso   1.000  O
  O28      1.0000 0.16700  0.64300  0.05050  Biso   1.000  O
  Zn14     1.0000 0.13850  0.58407  0.13833  Biso   1.000  Zn
  C85      1.0000 0.30030  0.90340  0.51280  Biso   1.000  C
  C86      1.0000 0.27410  0.88040  0.43800  Biso   1.000  C
  C87      1.0000 0.26480  0.81400  0.41120  Biso   1.000  C
  H57      1.0000 0.27660  0.77280  0.43720  Biso   1.000  H
  C88      1.0000 0.27570  0.03580  0.71540  Biso   1.000  C
  H58      1.0000 0.23260  0.02780  0.69120  Biso   1.000  H
  C89      1.0000 0.28790  0.08450  0.76950  Biso   1.000  C
  H59      1.0000 0.25450  0.11580  0.78930  Biso   1.000  H
  C90      1.0000 0.47010  0.97790  0.52030  Biso   1.000  C
  H60      1.0000 0.44730  0.95980  0.47850  Biso   1.000  H
  N57      1.0000 0.38640  0.02930  0.74900  Biso   1.000  N
  N58      1.0000 0.33800  0.00100  0.70300  Biso   1.000  N
  N59      1.0000 0.35560  0.07970  0.78920  Biso   1.000  N
  N60      1.0000 0.45160  0.96640  0.58980  Biso   1.000  N
  O29      1.0000 0.29080  0.96220  0.53460  Biso   1.000  O
  O30      1.0000 0.33300  0.85700  0.55050  Biso   1.000  O
  Zn15     1.0000 0.36150  0.91593  0.63833  Biso   1.000  Zn
  C91      1.0000 0.80030  0.40340  0.01280  Biso   1.000  C
  C92      1.0000 0.77410  0.38040  0.93800  Biso   1.000  C
  C93      1.0000 0.76480  0.31400  0.91120  Biso   1.000  C
  H61      1.0000 0.77660  0.27280  0.93720  Biso   1.000  H
  C94      1.0000 0.77570  0.53580  0.21540  Biso   1.000  C
  H62      1.0000 0.73260  0.52780  0.19120  Biso   1.000  H
  C95      1.0000 0.78790  0.58450  0.26950  Biso   1.000  C
  H63      1.0000 0.75450  0.61580  0.28930  Biso   1.000  H
  C96      1.0000 0.97010  0.47790  0.02030  Biso   1.000  C
  H64      1.0000 0.94730  0.45980  0.97850  Biso   1.000  H
  N61      1.0000 0.88640  0.52930  0.24900  Biso   1.000  N
  N62      1.0000 0.83800  0.50100  0.20300  Biso   1.000  N
  N63      1.0000 0.85560  0.57970  0.28920  Biso   1.000  N
  N64      1.0000 0.95160  0.46640  0.08980  Biso   1.000  N
  O31      1.0000 0.79080  0.46220  0.03460  Biso   1.000  O
  O32      1.0000 0.83300  0.35700  0.05050  Biso   1.000  O
  Zn16     1.0000 0.86150  0.41593  0.13833  Biso   1.000  Zn
  N65      1.0000 0.00000  0.00000  0.88150  Biso   1.000  N
  N66      1.0000 0.50000  0.50000  0.38150  Biso   1.000  N
  N67      1.0000 0.00000  0.00000  0.11850  Biso   1.000  N
  N68      1.0000 0.50000  0.50000  0.61850  Biso   1.000  N
  N69      1.0000 0.50000  0.00000  0.86850  Biso   1.000  N
  N70      1.0000 0.00000  0.50000  0.36850  Biso   1.000  N
  N71      1.0000 0.50000  0.00000  0.63150  Biso   1.000  N
  N72      1.0000 0.00000  0.50000  0.13150  Biso   1.000  N
  S1       1.0000 0.94274  0.75000  0.62500  Biso   1.000  S
  S2       1.0000 0.05726  0.25000  0.62500  Biso   1.000  S
  S3       1.0000 0.75000  0.05726  0.37500  Biso   1.000  S
  S4       1.0000 0.25000  0.55726  0.87500  Biso   1.000  S
  S5       1.0000 0.25000  0.94274  0.37500  Biso   1.000  S
  S6       1.0000 0.75000  0.44274  0.87500  Biso   1.000  S
  S7       1.0000 0.55726  0.75000  0.12500  Biso   1.000  S
  S8       1.0000 0.44274  0.25000  0.12500  Biso   1.000  S
  Zn17     1.0000 0.00000  0.00000  0.00000  Biso   1.000  Zn
  Zn18     1.0000 0.50000  0.50000  0.50000  Biso   1.000  Zn
  Zn19     1.0000 0.50000  0.00000  0.75000  Biso   1.000  Zn
  Zn20     1.0000 0.00000  0.50000  0.25000  Biso   1.000  Zn
