data_image0
_cell_length_a       35.755
_cell_length_b       35.755
_cell_length_c       35.755
_cell_angle_alpha    90
_cell_angle_beta     90
_cell_angle_gamma    90

_symmetry_space_group_name_H-M    "P 1"
_symmetry_int_tables_number       1

loop_
  _symmetry_equiv_pos_as_xyz
  'x, y, z'

loop_
  _atom_site_label
  _atom_site_occupancy
  _atom_site_fract_x
  _atom_site_fract_y
  _atom_site_fract_z
  _atom_site_thermal_displace_type
  _atom_site_B_iso_or_equiv
  _atom_site_type_symbol
  O1       1.0000 0.24390  0.70810  0.82596  Biso   1.000  O
  C1       1.0000 0.31360  0.65870  0.97780  Biso   1.000  C
  C2       1.0000 0.34490  0.67410  0.99500  Biso   1.000  C
  C3       1.0000 0.35840  0.65870  0.02810  Biso   1.000  C
  C4       1.0000 0.34060  0.62800  0.04392  Biso   1.000  C
  C5       1.0000 0.30930  0.61267  0.02670  Biso   1.000  C
  C6       1.0000 0.29580  0.62800  0.99370  Biso   1.000  C
  C7       1.0000 0.36830  0.61530  0.08230  Biso   1.000  C
  C8       1.0000 0.38300  0.71290  0.07060  Biso   1.000  C
  C9       1.0000 0.36080  0.58530  0.10340  Biso   1.000  C
  C10      1.0000 0.43190  0.66670  0.02930  Biso   1.000  C
  C11      1.0000 0.39430  0.67220  0.05270  Biso   1.000  C
  C12      1.0000 0.44020  0.62870  0.01490  Biso   1.000  C
  C13      1.0000 0.35000  0.71630  0.09260  Biso   1.000  C
  O2       1.0000 0.30340  0.72230  0.81240  Biso   1.000  O
  C14      1.0000 0.28770  0.69781  0.87098  Biso   1.000  C
  C15      1.0000 0.26061  0.68400  0.89530  Biso   1.000  C
  C16      1.0000 0.27090  0.67063  0.93030  Biso   1.000  C
  C17      1.0000 0.30830  0.67100  0.94099  Biso   1.000  C
  C18      1.0000 0.33534  0.68470  0.91670  Biso   1.000  C
  C19      1.0000 0.32500  0.69820  0.88170  Biso   1.000  C
  C20      1.0000 0.27670  0.71220  0.83180  Biso   1.000  C
  Zn1      1.0000 0.23602  0.80392  0.75177  Biso   1.000  Zn
  O3       1.0000 0.25610  0.29190  0.32596  Biso   1.000  O
  C21      1.0000 0.18640  0.34130  0.47780  Biso   1.000  C
  C22      1.0000 0.15510  0.32590  0.49500  Biso   1.000  C
  C23      1.0000 0.14160  0.34130  0.52810  Biso   1.000  C
  C24      1.0000 0.15940  0.37200  0.54392  Biso   1.000  C
  C25      1.0000 0.19070  0.38733  0.52670  Biso   1.000  C
  C26      1.0000 0.20420  0.37200  0.49370  Biso   1.000  C
  C27      1.0000 0.13170  0.38470  0.58230  Biso   1.000  C
  C28      1.0000 0.11700  0.28710  0.57060  Biso   1.000  C
  C29      1.0000 0.13920  0.41470  0.60340  Biso   1.000  C
  C30      1.0000 0.06810  0.33330  0.52930  Biso   1.000  C
  C31      1.0000 0.10570  0.32780  0.55270  Biso   1.000  C
  C32      1.0000 0.05980  0.37130  0.51490  Biso   1.000  C
  C33      1.0000 0.15000  0.28370  0.59260  Biso   1.000  C
  O4       1.0000 0.19660  0.27770  0.31240  Biso   1.000  O
  C34      1.0000 0.21230  0.30219  0.37098  Biso   1.000  C
  C35      1.0000 0.23939  0.31600  0.39530  Biso   1.000  C
  C36      1.0000 0.22910  0.32937  0.43030  Biso   1.000  C
  C37      1.0000 0.19170  0.32900  0.44099  Biso   1.000  C
  C38      1.0000 0.16466  0.31530  0.41670  Biso   1.000  C
  C39      1.0000 0.17500  0.30180  0.38170  Biso   1.000  C
  C40      1.0000 0.22330  0.28780  0.33180  Biso   1.000  C
  Zn2      1.0000 0.26398  0.19608  0.25177  Biso   1.000  Zn
  O5       1.0000 0.75610  0.20810  0.67404  Biso   1.000  O
  C41      1.0000 0.68640  0.15870  0.52220  Biso   1.000  C
  C42      1.0000 0.65510  0.17410  0.50500  Biso   1.000  C
  C43      1.0000 0.64160  0.15870  0.47190  Biso   1.000  C
  C44      1.0000 0.65940  0.12800  0.45608  Biso   1.000  C
  C45      1.0000 0.69070  0.11267  0.47330  Biso   1.000  C
  C46      1.0000 0.70420  0.12800  0.50630  Biso   1.000  C
  C47      1.0000 0.63170  0.11530  0.41770  Biso   1.000  C
  C48      1.0000 0.61700  0.21290  0.42940  Biso   1.000  C
  C49      1.0000 0.63920  0.08530  0.39660  Biso   1.000  C
  C50      1.0000 0.56810  0.16670  0.47070  Biso   1.000  C
  C51      1.0000 0.60570  0.17220  0.44730  Biso   1.000  C
  C52      1.0000 0.55980  0.12870  0.48510  Biso   1.000  C
  C53      1.0000 0.65000  0.21630  0.40740  Biso   1.000  C
  O6       1.0000 0.69660  0.22230  0.68760  Biso   1.000  O
  C54      1.0000 0.71230  0.19781  0.62902  Biso   1.000  C
  C55      1.0000 0.73939  0.18400  0.60470  Biso   1.000  C
  C56      1.0000 0.72910  0.17063  0.56970  Biso   1.000  C
  C57      1.0000 0.69170  0.17100  0.55901  Biso   1.000  C
  C58      1.0000 0.66466  0.18470  0.58330  Biso   1.000  C
  C59      1.0000 0.67500  0.19820  0.61830  Biso   1.000  C
  C60      1.0000 0.72330  0.21220  0.66820  Biso   1.000  C
  Zn3      1.0000 0.76398  0.30392  0.74823  Biso   1.000  Zn
  O7       1.0000 0.74390  0.79190  0.17404  Biso   1.000  O
  C61      1.0000 0.81360  0.84130  0.02220  Biso   1.000  C
  C62      1.0000 0.84490  0.82590  0.00500  Biso   1.000  C
  C63      1.0000 0.85840  0.84130  0.97190  Biso   1.000  C
  C64      1.0000 0.84060  0.87200  0.95608  Biso   1.000  C
  C65      1.0000 0.80930  0.88733  0.97330  Biso   1.000  C
  C66      1.0000 0.79580  0.87200  0.00630  Biso   1.000  C
  C67      1.0000 0.86830  0.88470  0.91770  Biso   1.000  C
  C68      1.0000 0.88300  0.78710  0.92940  Biso   1.000  C
  C69      1.0000 0.86080  0.91470  0.89660  Biso   1.000  C
  C70      1.0000 0.93190  0.83330  0.97070  Biso   1.000  C
  C71      1.0000 0.89430  0.82780  0.94730  Biso   1.000  C
  C72      1.0000 0.94020  0.87130  0.98510  Biso   1.000  C
  C73      1.0000 0.85000  0.78370  0.90740  Biso   1.000  C
  O8       1.0000 0.80340  0.77770  0.18760  Biso   1.000  O
  C74      1.0000 0.78770  0.80219  0.12902  Biso   1.000  C
  C75      1.0000 0.76061  0.81600  0.10470  Biso   1.000  C
  C76      1.0000 0.77090  0.82937  0.06970  Biso   1.000  C
  C77      1.0000 0.80830  0.82900  0.05901  Biso   1.000  C
  C78      1.0000 0.83534  0.81530  0.08330  Biso   1.000  C
  C79      1.0000 0.82500  0.80180  0.11830  Biso   1.000  C
  C80      1.0000 0.77670  0.78780  0.16820  Biso   1.000  C
  Zn4      1.0000 0.73602  0.69608  0.24823  Biso   1.000  Zn
  O9       1.0000 0.82596  0.24390  0.70810  Biso   1.000  O
  C81      1.0000 0.97780  0.31360  0.65870  Biso   1.000  C
  C82      1.0000 0.99500  0.34490  0.67410  Biso   1.000  C
  C83      1.0000 0.02810  0.35840  0.65870  Biso   1.000  C
  C84      1.0000 0.04392  0.34060  0.62800  Biso   1.000  C
  C85      1.0000 0.02670  0.30930  0.61267  Biso   1.000  C
  C86      1.0000 0.99370  0.29580  0.62800  Biso   1.000  C
  C87      1.0000 0.08230  0.36830  0.61530  Biso   1.000  C
  C88      1.0000 0.07060  0.38300  0.71290  Biso   1.000  C
  C89      1.0000 0.10340  0.36080  0.58530  Biso   1.000  C
  C90      1.0000 0.02930  0.43190  0.66670  Biso   1.000  C
  C91      1.0000 0.05270  0.39430  0.67220  Biso   1.000  C
  C92      1.0000 0.01490  0.44020  0.62870  Biso   1.000  C
  C93      1.0000 0.09260  0.35000  0.71630  Biso   1.000  C
  O10      1.0000 0.81240  0.30340  0.72230  Biso   1.000  O
  C94      1.0000 0.87098  0.28770  0.69781  Biso   1.000  C
  C95      1.0000 0.89530  0.26061  0.68400  Biso   1.000  C
  C96      1.0000 0.93030  0.27090  0.67063  Biso   1.000  C
  C97      1.0000 0.94099  0.30830  0.67100  Biso   1.000  C
  C98      1.0000 0.91670  0.33534  0.68470  Biso   1.000  C
  C99      1.0000 0.88170  0.32500  0.69820  Biso   1.000  C
  C100     1.0000 0.83180  0.27670  0.71220  Biso   1.000  C
  Zn5      1.0000 0.75177  0.23602  0.80392  Biso   1.000  Zn
  O11      1.0000 0.32596  0.25610  0.29190  Biso   1.000  O
  C101     1.0000 0.47780  0.18640  0.34130  Biso   1.000  C
  C102     1.0000 0.49500  0.15510  0.32590  Biso   1.000  C
  C103     1.0000 0.52810  0.14160  0.34130  Biso   1.000  C
  C104     1.0000 0.54392  0.15940  0.37200  Biso   1.000  C
  C105     1.0000 0.52670  0.19070  0.38733  Biso   1.000  C
  C106     1.0000 0.49370  0.20420  0.37200  Biso   1.000  C
  C107     1.0000 0.58230  0.13170  0.38470  Biso   1.000  C
  C108     1.0000 0.57060  0.11700  0.28710  Biso   1.000  C
  C109     1.0000 0.60340  0.13920  0.41470  Biso   1.000  C
  C110     1.0000 0.52930  0.06810  0.33330  Biso   1.000  C
  C111     1.0000 0.55270  0.10570  0.32780  Biso   1.000  C
  C112     1.0000 0.51490  0.05980  0.37130  Biso   1.000  C
  C113     1.0000 0.59260  0.15000  0.28370  Biso   1.000  C
  O12      1.0000 0.31240  0.19660  0.27770  Biso   1.000  O
  C114     1.0000 0.37098  0.21230  0.30219  Biso   1.000  C
  C115     1.0000 0.39530  0.23939  0.31600  Biso   1.000  C
  C116     1.0000 0.43030  0.22910  0.32937  Biso   1.000  C
  C117     1.0000 0.44099  0.19170  0.32900  Biso   1.000  C
  C118     1.0000 0.41670  0.16466  0.31530  Biso   1.000  C
  C119     1.0000 0.38170  0.17500  0.30180  Biso   1.000  C
  C120     1.0000 0.33180  0.22330  0.28780  Biso   1.000  C
  Zn6      1.0000 0.25177  0.26398  0.19608  Biso   1.000  Zn
  O13      1.0000 0.67404  0.75610  0.20810  Biso   1.000  O
  C121     1.0000 0.52220  0.68640  0.15870  Biso   1.000  C
  C122     1.0000 0.50500  0.65510  0.17410  Biso   1.000  C
  C123     1.0000 0.47190  0.64160  0.15870  Biso   1.000  C
  C124     1.0000 0.45608  0.65940  0.12800  Biso   1.000  C
  C125     1.0000 0.47330  0.69070  0.11267  Biso   1.000  C
  C126     1.0000 0.50630  0.70420  0.12800  Biso   1.000  C
  C127     1.0000 0.41770  0.63170  0.11530  Biso   1.000  C
  C128     1.0000 0.42940  0.61700  0.21290  Biso   1.000  C
  C129     1.0000 0.39660  0.63920  0.08530  Biso   1.000  C
  C130     1.0000 0.47070  0.56810  0.16670  Biso   1.000  C
  C131     1.0000 0.44730  0.60570  0.17220  Biso   1.000  C
  C132     1.0000 0.48510  0.55980  0.12870  Biso   1.000  C
  C133     1.0000 0.40740  0.65000  0.21630  Biso   1.000  C
  O14      1.0000 0.68760  0.69660  0.22230  Biso   1.000  O
  C134     1.0000 0.62902  0.71230  0.19781  Biso   1.000  C
  C135     1.0000 0.60470  0.73939  0.18400  Biso   1.000  C
  C136     1.0000 0.56970  0.72910  0.17063  Biso   1.000  C
  C137     1.0000 0.55901  0.69170  0.17100  Biso   1.000  C
  C138     1.0000 0.58330  0.66466  0.18470  Biso   1.000  C
  C139     1.0000 0.61830  0.67500  0.19820  Biso   1.000  C
  C140     1.0000 0.66820  0.72330  0.21220  Biso   1.000  C
  Zn7      1.0000 0.74823  0.76398  0.30392  Biso   1.000  Zn
  O15      1.0000 0.17404  0.74390  0.79190  Biso   1.000  O
  C141     1.0000 0.02220  0.81360  0.84130  Biso   1.000  C
  C142     1.0000 0.00500  0.84490  0.82590  Biso   1.000  C
  C143     1.0000 0.97190  0.85840  0.84130  Biso   1.000  C
  C144     1.0000 0.95608  0.84060  0.87200  Biso   1.000  C
  C145     1.0000 0.97330  0.80930  0.88733  Biso   1.000  C
  C146     1.0000 0.00630  0.79580  0.87200  Biso   1.000  C
  C147     1.0000 0.91770  0.86830  0.88470  Biso   1.000  C
  C148     1.0000 0.92940  0.88300  0.78710  Biso   1.000  C
  C149     1.0000 0.89660  0.86080  0.91470  Biso   1.000  C
  C150     1.0000 0.97070  0.93190  0.83330  Biso   1.000  C
  C151     1.0000 0.94730  0.89430  0.82780  Biso   1.000  C
  C152     1.0000 0.98510  0.94020  0.87130  Biso   1.000  C
  C153     1.0000 0.90740  0.85000  0.78370  Biso   1.000  C
  O16      1.0000 0.18760  0.80340  0.77770  Biso   1.000  O
  C154     1.0000 0.12902  0.78770  0.80219  Biso   1.000  C
  C155     1.0000 0.10470  0.76061  0.81600  Biso   1.000  C
  C156     1.0000 0.06970  0.77090  0.82937  Biso   1.000  C
  C157     1.0000 0.05901  0.80830  0.82900  Biso   1.000  C
  C158     1.0000 0.08330  0.83534  0.81530  Biso   1.000  C
  C159     1.0000 0.11830  0.82500  0.80180  Biso   1.000  C
  C160     1.0000 0.16820  0.77670  0.78780  Biso   1.000  C
  Zn8      1.0000 0.24823  0.73602  0.69608  Biso   1.000  Zn
  O17      1.0000 0.70810  0.82596  0.24390  Biso   1.000  O
  C161     1.0000 0.65870  0.97780  0.31360  Biso   1.000  C
  C162     1.0000 0.67410  0.99500  0.34490  Biso   1.000  C
  C163     1.0000 0.65870  0.02810  0.35840  Biso   1.000  C
  C164     1.0000 0.62800  0.04392  0.34060  Biso   1.000  C
  C165     1.0000 0.61267  0.02670  0.30930  Biso   1.000  C
  C166     1.0000 0.62800  0.99370  0.29580  Biso   1.000  C
  C167     1.0000 0.61530  0.08230  0.36830  Biso   1.000  C
  C168     1.0000 0.71290  0.07060  0.38300  Biso   1.000  C
  C169     1.0000 0.58530  0.10340  0.36080  Biso   1.000  C
  C170     1.0000 0.66670  0.02930  0.43190  Biso   1.000  C
  C171     1.0000 0.67220  0.05270  0.39430  Biso   1.000  C
  C172     1.0000 0.62870  0.01490  0.44020  Biso   1.000  C
  C173     1.0000 0.71630  0.09260  0.35000  Biso   1.000  C
  O18      1.0000 0.72230  0.81240  0.30340  Biso   1.000  O
  C174     1.0000 0.69781  0.87098  0.28770  Biso   1.000  C
  C175     1.0000 0.68400  0.89530  0.26061  Biso   1.000  C
  C176     1.0000 0.67063  0.93030  0.27090  Biso   1.000  C
  C177     1.0000 0.67100  0.94099  0.30830  Biso   1.000  C
  C178     1.0000 0.68470  0.91670  0.33534  Biso   1.000  C
  C179     1.0000 0.69820  0.88170  0.32500  Biso   1.000  C
  C180     1.0000 0.71220  0.83180  0.27670  Biso   1.000  C
  Zn9      1.0000 0.80392  0.75177  0.23602  Biso   1.000  Zn
  O19      1.0000 0.29190  0.32596  0.25610  Biso   1.000  O
  C181     1.0000 0.34130  0.47780  0.18640  Biso   1.000  C
  C182     1.0000 0.32590  0.49500  0.15510  Biso   1.000  C
  C183     1.0000 0.34130  0.52810  0.14160  Biso   1.000  C
  C184     1.0000 0.37200  0.54392  0.15940  Biso   1.000  C
  C185     1.0000 0.38733  0.52670  0.19070  Biso   1.000  C
  C186     1.0000 0.37200  0.49370  0.20420  Biso   1.000  C
  C187     1.0000 0.38470  0.58230  0.13170  Biso   1.000  C
  C188     1.0000 0.28710  0.57060  0.11700  Biso   1.000  C
  C189     1.0000 0.41470  0.60340  0.13920  Biso   1.000  C
  C190     1.0000 0.33330  0.52930  0.06810  Biso   1.000  C
  C191     1.0000 0.32780  0.55270  0.10570  Biso   1.000  C
  C192     1.0000 0.37130  0.51490  0.05980  Biso   1.000  C
  C193     1.0000 0.28370  0.59260  0.15000  Biso   1.000  C
  O20      1.0000 0.27770  0.31240  0.19660  Biso   1.000  O
  C194     1.0000 0.30219  0.37098  0.21230  Biso   1.000  C
  C195     1.0000 0.31600  0.39530  0.23939  Biso   1.000  C
  C196     1.0000 0.32937  0.43030  0.22910  Biso   1.000  C
  C197     1.0000 0.32900  0.44099  0.19170  Biso   1.000  C
  C198     1.0000 0.31530  0.41670  0.16466  Biso   1.000  C
  C199     1.0000 0.30180  0.38170  0.17500  Biso   1.000  C
  C200     1.0000 0.28780  0.33180  0.22330  Biso   1.000  C
  Zn10     1.0000 0.19608  0.25177  0.26398  Biso   1.000  Zn
  O21      1.0000 0.20810  0.67404  0.75610  Biso   1.000  O
  C201     1.0000 0.15870  0.52220  0.68640  Biso   1.000  C
  C202     1.0000 0.17410  0.50500  0.65510  Biso   1.000  C
  C203     1.0000 0.15870  0.47190  0.64160  Biso   1.000  C
  C204     1.0000 0.12800  0.45608  0.65940  Biso   1.000  C
  C205     1.0000 0.11267  0.47330  0.69070  Biso   1.000  C
  C206     1.0000 0.12800  0.50630  0.70420  Biso   1.000  C
  C207     1.0000 0.11530  0.41770  0.63170  Biso   1.000  C
  C208     1.0000 0.21290  0.42940  0.61700  Biso   1.000  C
  C209     1.0000 0.08530  0.39660  0.63920  Biso   1.000  C
  C210     1.0000 0.16670  0.47070  0.56810  Biso   1.000  C
  C211     1.0000 0.17220  0.44730  0.60570  Biso   1.000  C
  C212     1.0000 0.12870  0.48510  0.55980  Biso   1.000  C
  C213     1.0000 0.21630  0.40740  0.65000  Biso   1.000  C
  O22      1.0000 0.22230  0.68760  0.69660  Biso   1.000  O
  C214     1.0000 0.19781  0.62902  0.71230  Biso   1.000  C
  C215     1.0000 0.18400  0.60470  0.73939  Biso   1.000  C
  C216     1.0000 0.17063  0.56970  0.72910  Biso   1.000  C
  C217     1.0000 0.17100  0.55901  0.69170  Biso   1.000  C
  C218     1.0000 0.18470  0.58330  0.66466  Biso   1.000  C
  C219     1.0000 0.19820  0.61830  0.67500  Biso   1.000  C
  C220     1.0000 0.21220  0.66820  0.72330  Biso   1.000  C
  Zn11     1.0000 0.30392  0.74823  0.76398  Biso   1.000  Zn
  O23      1.0000 0.79190  0.17404  0.74390  Biso   1.000  O
  C221     1.0000 0.84130  0.02220  0.81360  Biso   1.000  C
  C222     1.0000 0.82590  0.00500  0.84490  Biso   1.000  C
  C223     1.0000 0.84130  0.97190  0.85840  Biso   1.000  C
  C224     1.0000 0.87200  0.95608  0.84060  Biso   1.000  C
  C225     1.0000 0.88733  0.97330  0.80930  Biso   1.000  C
  C226     1.0000 0.87200  0.00630  0.79580  Biso   1.000  C
  C227     1.0000 0.88470  0.91770  0.86830  Biso   1.000  C
  C228     1.0000 0.78710  0.92940  0.88300  Biso   1.000  C
  C229     1.0000 0.91470  0.89660  0.86080  Biso   1.000  C
  C230     1.0000 0.83330  0.97070  0.93190  Biso   1.000  C
  C231     1.0000 0.82780  0.94730  0.89430  Biso   1.000  C
  C232     1.0000 0.87130  0.98510  0.94020  Biso   1.000  C
  C233     1.0000 0.78370  0.90740  0.85000  Biso   1.000  C
  O24      1.0000 0.77770  0.18760  0.80340  Biso   1.000  O
  C234     1.0000 0.80219  0.12902  0.78770  Biso   1.000  C
  C235     1.0000 0.81600  0.10470  0.76061  Biso   1.000  C
  C236     1.0000 0.82937  0.06970  0.77090  Biso   1.000  C
  C237     1.0000 0.82900  0.05901  0.80830  Biso   1.000  C
  C238     1.0000 0.81530  0.08330  0.83534  Biso   1.000  C
  C239     1.0000 0.80180  0.11830  0.82500  Biso   1.000  C
  C240     1.0000 0.78780  0.16820  0.77670  Biso   1.000  C
  Zn12     1.0000 0.69608  0.24823  0.73602  Biso   1.000  Zn
  Zn13     1.0000 0.22149  0.72149  0.77851  Biso   1.000  Zn
  O25      1.0000 0.25299  0.75299  0.74701  Biso   1.000  O
  Zn14     1.0000 0.27851  0.27851  0.27851  Biso   1.000  Zn
  O26      1.0000 0.24701  0.24701  0.24701  Biso   1.000  O
  Zn15     1.0000 0.77851  0.22149  0.72149  Biso   1.000  Zn
  O27      1.0000 0.74701  0.25299  0.75299  Biso   1.000  O
  Zn16     1.0000 0.72149  0.77851  0.22149  Biso   1.000  Zn
  O28      1.0000 0.75299  0.74701  0.25299  Biso   1.000  O
  O29      1.0000 0.74390  0.20810  0.32596  Biso   1.000  O
  C241     1.0000 0.81360  0.15870  0.47780  Biso   1.000  C
  C242     1.0000 0.84490  0.17410  0.49500  Biso   1.000  C
  C243     1.0000 0.85840  0.15870  0.52810  Biso   1.000  C
  C244     1.0000 0.84060  0.12800  0.54392  Biso   1.000  C
  C245     1.0000 0.80930  0.11267  0.52670  Biso   1.000  C
  C246     1.0000 0.79580  0.12800  0.49370  Biso   1.000  C
  C247     1.0000 0.86830  0.11530  0.58230  Biso   1.000  C
  C248     1.0000 0.88300  0.21290  0.57060  Biso   1.000  C
  C249     1.0000 0.86080  0.08530  0.60340  Biso   1.000  C
  C250     1.0000 0.93190  0.16670  0.52930  Biso   1.000  C
  C251     1.0000 0.89430  0.17220  0.55270  Biso   1.000  C
  C252     1.0000 0.94020  0.12870  0.51490  Biso   1.000  C
  C253     1.0000 0.85000  0.21630  0.59260  Biso   1.000  C
  O30      1.0000 0.80340  0.22230  0.31240  Biso   1.000  O
  C254     1.0000 0.78770  0.19781  0.37098  Biso   1.000  C
  C255     1.0000 0.76061  0.18400  0.39530  Biso   1.000  C
  C256     1.0000 0.77090  0.17063  0.43030  Biso   1.000  C
  C257     1.0000 0.80830  0.17100  0.44099  Biso   1.000  C
  C258     1.0000 0.83534  0.18470  0.41670  Biso   1.000  C
  C259     1.0000 0.82500  0.19820  0.38170  Biso   1.000  C
  C260     1.0000 0.77670  0.21220  0.33180  Biso   1.000  C
  Zn17     1.0000 0.73602  0.30392  0.25177  Biso   1.000  Zn
  O31      1.0000 0.75610  0.79190  0.82596  Biso   1.000  O
  C261     1.0000 0.68640  0.84130  0.97780  Biso   1.000  C
  C262     1.0000 0.65510  0.82590  0.99500  Biso   1.000  C
  C263     1.0000 0.64160  0.84130  0.02810  Biso   1.000  C
  C264     1.0000 0.65940  0.87200  0.04392  Biso   1.000  C
  C265     1.0000 0.69070  0.88733  0.02670  Biso   1.000  C
  C266     1.0000 0.70420  0.87200  0.99370  Biso   1.000  C
  C267     1.0000 0.63170  0.88470  0.08230  Biso   1.000  C
  C268     1.0000 0.61700  0.78710  0.07060  Biso   1.000  C
  C269     1.0000 0.63920  0.91470  0.10340  Biso   1.000  C
  C270     1.0000 0.56810  0.83330  0.02930  Biso   1.000  C
  C271     1.0000 0.60570  0.82780  0.05270  Biso   1.000  C
  C272     1.0000 0.55980  0.87130  0.01490  Biso   1.000  C
  C273     1.0000 0.65000  0.78370  0.09260  Biso   1.000  C
  O32      1.0000 0.69660  0.77770  0.81240  Biso   1.000  O
  C274     1.0000 0.71230  0.80219  0.87098  Biso   1.000  C
  C275     1.0000 0.73939  0.81600  0.89530  Biso   1.000  C
  C276     1.0000 0.72910  0.82937  0.93030  Biso   1.000  C
  C277     1.0000 0.69170  0.82900  0.94099  Biso   1.000  C
  C278     1.0000 0.66466  0.81530  0.91670  Biso   1.000  C
  C279     1.0000 0.67500  0.80180  0.88170  Biso   1.000  C
  C280     1.0000 0.72330  0.78780  0.83180  Biso   1.000  C
  Zn18     1.0000 0.76398  0.69608  0.75177  Biso   1.000  Zn
  O33      1.0000 0.25610  0.70810  0.17404  Biso   1.000  O
  C281     1.0000 0.18640  0.65870  0.02220  Biso   1.000  C
  C282     1.0000 0.15510  0.67410  0.00500  Biso   1.000  C
  C283     1.0000 0.14160  0.65870  0.97190  Biso   1.000  C
  C284     1.0000 0.15940  0.62800  0.95608  Biso   1.000  C
  C285     1.0000 0.19070  0.61267  0.97330  Biso   1.000  C
  C286     1.0000 0.20420  0.62800  0.00630  Biso   1.000  C
  C287     1.0000 0.13170  0.61530  0.91770  Biso   1.000  C
  C288     1.0000 0.11700  0.71290  0.92940  Biso   1.000  C
  C289     1.0000 0.13920  0.58530  0.89660  Biso   1.000  C
  C290     1.0000 0.06810  0.66670  0.97070  Biso   1.000  C
  C291     1.0000 0.10570  0.67220  0.94730  Biso   1.000  C
  C292     1.0000 0.05980  0.62870  0.98510  Biso   1.000  C
  C293     1.0000 0.15000  0.71630  0.90740  Biso   1.000  C
  O34      1.0000 0.19660  0.72230  0.18760  Biso   1.000  O
  C294     1.0000 0.21230  0.69781  0.12902  Biso   1.000  C
  C295     1.0000 0.23939  0.68400  0.10470  Biso   1.000  C
  C296     1.0000 0.22910  0.67063  0.06970  Biso   1.000  C
  C297     1.0000 0.19170  0.67100  0.05901  Biso   1.000  C
  C298     1.0000 0.16466  0.68470  0.08330  Biso   1.000  C
  C299     1.0000 0.17500  0.69820  0.11830  Biso   1.000  C
  C300     1.0000 0.22330  0.71220  0.16820  Biso   1.000  C
  Zn19     1.0000 0.26398  0.80392  0.24823  Biso   1.000  Zn
  O35      1.0000 0.24390  0.29190  0.67404  Biso   1.000  O
  C301     1.0000 0.31360  0.34130  0.52220  Biso   1.000  C
  C302     1.0000 0.34490  0.32590  0.50500  Biso   1.000  C
  C303     1.0000 0.35840  0.34130  0.47190  Biso   1.000  C
  C304     1.0000 0.34060  0.37200  0.45608  Biso   1.000  C
  C305     1.0000 0.30930  0.38733  0.47330  Biso   1.000  C
  C306     1.0000 0.29580  0.37200  0.50630  Biso   1.000  C
  C307     1.0000 0.36830  0.38470  0.41770  Biso   1.000  C
  C308     1.0000 0.38300  0.28710  0.42940  Biso   1.000  C
  C309     1.0000 0.36080  0.41470  0.39660  Biso   1.000  C
  C310     1.0000 0.43190  0.33330  0.47070  Biso   1.000  C
  C311     1.0000 0.39430  0.32780  0.44730  Biso   1.000  C
  C312     1.0000 0.44020  0.37130  0.48510  Biso   1.000  C
  C313     1.0000 0.35000  0.28370  0.40740  Biso   1.000  C
  O36      1.0000 0.30340  0.27770  0.68760  Biso   1.000  O
  C314     1.0000 0.28770  0.30219  0.62902  Biso   1.000  C
  C315     1.0000 0.26061  0.31600  0.60470  Biso   1.000  C
  C316     1.0000 0.27090  0.32937  0.56970  Biso   1.000  C
  C317     1.0000 0.30830  0.32900  0.55901  Biso   1.000  C
  C318     1.0000 0.33534  0.31530  0.58330  Biso   1.000  C
  C319     1.0000 0.32500  0.30180  0.61830  Biso   1.000  C
  C320     1.0000 0.27670  0.28780  0.66820  Biso   1.000  C
  Zn20     1.0000 0.23602  0.19608  0.74823  Biso   1.000  Zn
  O37      1.0000 0.32596  0.74390  0.20810  Biso   1.000  O
  C321     1.0000 0.47780  0.81360  0.15870  Biso   1.000  C
  C322     1.0000 0.49500  0.84490  0.17410  Biso   1.000  C
  C323     1.0000 0.52810  0.85840  0.15870  Biso   1.000  C
  C324     1.0000 0.54392  0.84060  0.12800  Biso   1.000  C
  C325     1.0000 0.52670  0.80930  0.11267  Biso   1.000  C
  C326     1.0000 0.49370  0.79580  0.12800  Biso   1.000  C
  C327     1.0000 0.58230  0.86830  0.11530  Biso   1.000  C
  C328     1.0000 0.57060  0.88300  0.21290  Biso   1.000  C
  C329     1.0000 0.60340  0.86080  0.08530  Biso   1.000  C
  C330     1.0000 0.52930  0.93190  0.16670  Biso   1.000  C
  C331     1.0000 0.55270  0.89430  0.17220  Biso   1.000  C
  C332     1.0000 0.51490  0.94020  0.12870  Biso   1.000  C
  C333     1.0000 0.59260  0.85000  0.21630  Biso   1.000  C
  O38      1.0000 0.31240  0.80340  0.22230  Biso   1.000  O
  C334     1.0000 0.37098  0.78770  0.19781  Biso   1.000  C
  C335     1.0000 0.39530  0.76061  0.18400  Biso   1.000  C
  C336     1.0000 0.43030  0.77090  0.17063  Biso   1.000  C
  C337     1.0000 0.44099  0.80830  0.17100  Biso   1.000  C
  C338     1.0000 0.41670  0.83534  0.18470  Biso   1.000  C
  C339     1.0000 0.38170  0.82500  0.19820  Biso   1.000  C
  C340     1.0000 0.33180  0.77670  0.21220  Biso   1.000  C
  Zn21     1.0000 0.25177  0.73602  0.30392  Biso   1.000  Zn
  O39      1.0000 0.82596  0.75610  0.79190  Biso   1.000  O
  C341     1.0000 0.97780  0.68640  0.84130  Biso   1.000  C
  C342     1.0000 0.99500  0.65510  0.82590  Biso   1.000  C
  C343     1.0000 0.02810  0.64160  0.84130  Biso   1.000  C
  C344     1.0000 0.04392  0.65940  0.87200  Biso   1.000  C
  C345     1.0000 0.02670  0.69070  0.88733  Biso   1.000  C
  C346     1.0000 0.99370  0.70420  0.87200  Biso   1.000  C
  C347     1.0000 0.08230  0.63170  0.88470  Biso   1.000  C
  C348     1.0000 0.07060  0.61700  0.78710  Biso   1.000  C
  C349     1.0000 0.10340  0.63920  0.91470  Biso   1.000  C
  C350     1.0000 0.02930  0.56810  0.83330  Biso   1.000  C
  C351     1.0000 0.05270  0.60570  0.82780  Biso   1.000  C
  C352     1.0000 0.01490  0.55980  0.87130  Biso   1.000  C
  C353     1.0000 0.09260  0.65000  0.78370  Biso   1.000  C
  O40      1.0000 0.81240  0.69660  0.77770  Biso   1.000  O
  C354     1.0000 0.87098  0.71230  0.80219  Biso   1.000  C
  C355     1.0000 0.89530  0.73939  0.81600  Biso   1.000  C
  C356     1.0000 0.93030  0.72910  0.82937  Biso   1.000  C
  C357     1.0000 0.94099  0.69170  0.82900  Biso   1.000  C
  C358     1.0000 0.91670  0.66466  0.81530  Biso   1.000  C
  C359     1.0000 0.88170  0.67500  0.80180  Biso   1.000  C
  C360     1.0000 0.83180  0.72330  0.78780  Biso   1.000  C
  Zn22     1.0000 0.75177  0.76398  0.69608  Biso   1.000  Zn
  O41      1.0000 0.17404  0.25610  0.70810  Biso   1.000  O
  C361     1.0000 0.02220  0.18640  0.65870  Biso   1.000  C
  C362     1.0000 0.00500  0.15510  0.67410  Biso   1.000  C
  C363     1.0000 0.97190  0.14160  0.65870  Biso   1.000  C
  C364     1.0000 0.95608  0.15940  0.62800  Biso   1.000  C
  C365     1.0000 0.97330  0.19070  0.61267  Biso   1.000  C
  C366     1.0000 0.00630  0.20420  0.62800  Biso   1.000  C
  C367     1.0000 0.91770  0.13170  0.61530  Biso   1.000  C
  C368     1.0000 0.92940  0.11700  0.71290  Biso   1.000  C
  C369     1.0000 0.89660  0.13920  0.58530  Biso   1.000  C
  C370     1.0000 0.97070  0.06810  0.66670  Biso   1.000  C
  C371     1.0000 0.94730  0.10570  0.67220  Biso   1.000  C
  C372     1.0000 0.98510  0.05980  0.62870  Biso   1.000  C
  C373     1.0000 0.90740  0.15000  0.71630  Biso   1.000  C
  O42      1.0000 0.18760  0.19660  0.72230  Biso   1.000  O
  C374     1.0000 0.12902  0.21230  0.69781  Biso   1.000  C
  C375     1.0000 0.10470  0.23939  0.68400  Biso   1.000  C
  C376     1.0000 0.06970  0.22910  0.67063  Biso   1.000  C
  C377     1.0000 0.05901  0.19170  0.67100  Biso   1.000  C
  C378     1.0000 0.08330  0.16466  0.68470  Biso   1.000  C
  C379     1.0000 0.11830  0.17500  0.69820  Biso   1.000  C
  C380     1.0000 0.16820  0.22330  0.71220  Biso   1.000  C
  Zn23     1.0000 0.24823  0.26398  0.80392  Biso   1.000  Zn
  O43      1.0000 0.67404  0.24390  0.29190  Biso   1.000  O
  C381     1.0000 0.52220  0.31360  0.34130  Biso   1.000  C
  C382     1.0000 0.50500  0.34490  0.32590  Biso   1.000  C
  C383     1.0000 0.47190  0.35840  0.34130  Biso   1.000  C
  C384     1.0000 0.45608  0.34060  0.37200  Biso   1.000  C
  C385     1.0000 0.47330  0.30930  0.38733  Biso   1.000  C
  C386     1.0000 0.50630  0.29580  0.37200  Biso   1.000  C
  C387     1.0000 0.41770  0.36830  0.38470  Biso   1.000  C
  C388     1.0000 0.42940  0.38300  0.28710  Biso   1.000  C
  C389     1.0000 0.39660  0.36080  0.41470  Biso   1.000  C
  C390     1.0000 0.47070  0.43190  0.33330  Biso   1.000  C
  C391     1.0000 0.44730  0.39430  0.32780  Biso   1.000  C
  C392     1.0000 0.48510  0.44020  0.37130  Biso   1.000  C
  C393     1.0000 0.40740  0.35000  0.28370  Biso   1.000  C
  O44      1.0000 0.68760  0.30340  0.27770  Biso   1.000  O
  C394     1.0000 0.62902  0.28770  0.30219  Biso   1.000  C
  C395     1.0000 0.60470  0.26061  0.31600  Biso   1.000  C
  C396     1.0000 0.56970  0.27090  0.32937  Biso   1.000  C
  C397     1.0000 0.55901  0.30830  0.32900  Biso   1.000  C
  C398     1.0000 0.58330  0.33534  0.31530  Biso   1.000  C
  C399     1.0000 0.61830  0.32500  0.30180  Biso   1.000  C
  C400     1.0000 0.66820  0.27670  0.28780  Biso   1.000  C
  Zn24     1.0000 0.74823  0.23602  0.19608  Biso   1.000  Zn
  O45      1.0000 0.20810  0.32596  0.74390  Biso   1.000  O
  C401     1.0000 0.15870  0.47780  0.81360  Biso   1.000  C
  C402     1.0000 0.17410  0.49500  0.84490  Biso   1.000  C
  C403     1.0000 0.15870  0.52810  0.85840  Biso   1.000  C
  C404     1.0000 0.12800  0.54392  0.84060  Biso   1.000  C
  C405     1.0000 0.11267  0.52670  0.80930  Biso   1.000  C
  C406     1.0000 0.12800  0.49370  0.79580  Biso   1.000  C
  C407     1.0000 0.11530  0.58230  0.86830  Biso   1.000  C
  C408     1.0000 0.21290  0.57060  0.88300  Biso   1.000  C
  C409     1.0000 0.08530  0.60340  0.86080  Biso   1.000  C
  C410     1.0000 0.16670  0.52930  0.93190  Biso   1.000  C
  C411     1.0000 0.17220  0.55270  0.89430  Biso   1.000  C
  C412     1.0000 0.12870  0.51490  0.94020  Biso   1.000  C
  C413     1.0000 0.21630  0.59260  0.85000  Biso   1.000  C
  O46      1.0000 0.22230  0.31240  0.80340  Biso   1.000  O
  C414     1.0000 0.19781  0.37098  0.78770  Biso   1.000  C
  C415     1.0000 0.18400  0.39530  0.76061  Biso   1.000  C
  C416     1.0000 0.17063  0.43030  0.77090  Biso   1.000  C
  C417     1.0000 0.17100  0.44099  0.80830  Biso   1.000  C
  C418     1.0000 0.18470  0.41670  0.83534  Biso   1.000  C
  C419     1.0000 0.19820  0.38170  0.82500  Biso   1.000  C
  C420     1.0000 0.21220  0.33180  0.77670  Biso   1.000  C
  Zn25     1.0000 0.30392  0.25177  0.73602  Biso   1.000  Zn
  O47      1.0000 0.79190  0.82596  0.75610  Biso   1.000  O
  C421     1.0000 0.84130  0.97780  0.68640  Biso   1.000  C
  C422     1.0000 0.82590  0.99500  0.65510  Biso   1.000  C
  C423     1.0000 0.84130  0.02810  0.64160  Biso   1.000  C
  C424     1.0000 0.87200  0.04392  0.65940  Biso   1.000  C
  C425     1.0000 0.88733  0.02670  0.69070  Biso   1.000  C
  C426     1.0000 0.87200  0.99370  0.70420  Biso   1.000  C
  C427     1.0000 0.88470  0.08230  0.63170  Biso   1.000  C
  C428     1.0000 0.78710  0.07060  0.61700  Biso   1.000  C
  C429     1.0000 0.91470  0.10340  0.63920  Biso   1.000  C
  C430     1.0000 0.83330  0.02930  0.56810  Biso   1.000  C
  C431     1.0000 0.82780  0.05270  0.60570  Biso   1.000  C
  C432     1.0000 0.87130  0.01490  0.55980  Biso   1.000  C
  C433     1.0000 0.78370  0.09260  0.65000  Biso   1.000  C
  O48      1.0000 0.77770  0.81240  0.69660  Biso   1.000  O
  C434     1.0000 0.80219  0.87098  0.71230  Biso   1.000  C
  C435     1.0000 0.81600  0.89530  0.73939  Biso   1.000  C
  C436     1.0000 0.82937  0.93030  0.72910  Biso   1.000  C
  C437     1.0000 0.82900  0.94099  0.69170  Biso   1.000  C
  C438     1.0000 0.81530  0.91670  0.66466  Biso   1.000  C
  C439     1.0000 0.80180  0.88170  0.67500  Biso   1.000  C
  C440     1.0000 0.78780  0.83180  0.72330  Biso   1.000  C
  Zn26     1.0000 0.69608  0.75177  0.76398  Biso   1.000  Zn
  O49      1.0000 0.70810  0.17404  0.25610  Biso   1.000  O
  C441     1.0000 0.65870  0.02220  0.18640  Biso   1.000  C
  C442     1.0000 0.67410  0.00500  0.15510  Biso   1.000  C
  C443     1.0000 0.65870  0.97190  0.14160  Biso   1.000  C
  C444     1.0000 0.62800  0.95608  0.15940  Biso   1.000  C
  C445     1.0000 0.61267  0.97330  0.19070  Biso   1.000  C
  C446     1.0000 0.62800  0.00630  0.20420  Biso   1.000  C
  C447     1.0000 0.61530  0.91770  0.13170  Biso   1.000  C
  C448     1.0000 0.71290  0.92940  0.11700  Biso   1.000  C
  C449     1.0000 0.58530  0.89660  0.13920  Biso   1.000  C
  C450     1.0000 0.66670  0.97070  0.06810  Biso   1.000  C
  C451     1.0000 0.67220  0.94730  0.10570  Biso   1.000  C
  C452     1.0000 0.62870  0.98510  0.05980  Biso   1.000  C
  C453     1.0000 0.71630  0.90740  0.15000  Biso   1.000  C
  O50      1.0000 0.72230  0.18760  0.19660  Biso   1.000  O
  C454     1.0000 0.69781  0.12902  0.21230  Biso   1.000  C
  C455     1.0000 0.68400  0.10470  0.23939  Biso   1.000  C
  C456     1.0000 0.67063  0.06970  0.22910  Biso   1.000  C
  C457     1.0000 0.67100  0.05901  0.19170  Biso   1.000  C
  C458     1.0000 0.68470  0.08330  0.16466  Biso   1.000  C
  C459     1.0000 0.69820  0.11830  0.17500  Biso   1.000  C
  C460     1.0000 0.71220  0.16820  0.22330  Biso   1.000  C
  Zn27     1.0000 0.80392  0.24823  0.26398  Biso   1.000  Zn
  O51      1.0000 0.29190  0.67404  0.24390  Biso   1.000  O
  C461     1.0000 0.34130  0.52220  0.31360  Biso   1.000  C
  C462     1.0000 0.32590  0.50500  0.34490  Biso   1.000  C
  C463     1.0000 0.34130  0.47190  0.35840  Biso   1.000  C
  C464     1.0000 0.37200  0.45608  0.34060  Biso   1.000  C
  C465     1.0000 0.38733  0.47330  0.30930  Biso   1.000  C
  C466     1.0000 0.37200  0.50630  0.29580  Biso   1.000  C
  C467     1.0000 0.38470  0.41770  0.36830  Biso   1.000  C
  C468     1.0000 0.28710  0.42940  0.38300  Biso   1.000  C
  C469     1.0000 0.41470  0.39660  0.36080  Biso   1.000  C
  C470     1.0000 0.33330  0.47070  0.43190  Biso   1.000  C
  C471     1.0000 0.32780  0.44730  0.39430  Biso   1.000  C
  C472     1.0000 0.37130  0.48510  0.44020  Biso   1.000  C
  C473     1.0000 0.28370  0.40740  0.35000  Biso   1.000  C
  O52      1.0000 0.27770  0.68760  0.30340  Biso   1.000  O
  C474     1.0000 0.30219  0.62902  0.28770  Biso   1.000  C
  C475     1.0000 0.31600  0.60470  0.26061  Biso   1.000  C
  C476     1.0000 0.32937  0.56970  0.27090  Biso   1.000  C
  C477     1.0000 0.32900  0.55901  0.30830  Biso   1.000  C
  C478     1.0000 0.31530  0.58330  0.33534  Biso   1.000  C
  C479     1.0000 0.30180  0.61830  0.32500  Biso   1.000  C
  C480     1.0000 0.28780  0.66820  0.27670  Biso   1.000  C
  Zn28     1.0000 0.19608  0.74823  0.23602  Biso   1.000  Zn
  Zn29     1.0000 0.72149  0.22149  0.27851  Biso   1.000  Zn
  O53      1.0000 0.75299  0.25299  0.24701  Biso   1.000  O
  Zn30     1.0000 0.77851  0.77851  0.77851  Biso   1.000  Zn
  O54      1.0000 0.74701  0.74701  0.74701  Biso   1.000  O
  Zn31     1.0000 0.27851  0.72149  0.22149  Biso   1.000  Zn
  O55      1.0000 0.24701  0.75299  0.25299  Biso   1.000  O
  Zn32     1.0000 0.22149  0.27851  0.72149  Biso   1.000  Zn
  O56      1.0000 0.25299  0.24701  0.75299  Biso   1.000  O
