data_image0
_cell_length_a       16.9982
_cell_length_b       12.8924
_cell_length_c       24.7143
_cell_angle_alpha    90
_cell_angle_beta     90
_cell_angle_gamma    90

_symmetry_space_group_name_H-M    "P 1"
_symmetry_int_tables_number       1

loop_
  _symmetry_equiv_pos_as_xyz
  'x, y, z'

loop_
  _atom_site_label
  _atom_site_occupancy
  _atom_site_fract_x
  _atom_site_fract_y
  _atom_site_fract_z
  _atom_site_thermal_displace_type
  _atom_site_B_iso_or_equiv
  _atom_site_type_symbol
  C1       1.0000 0.82200  0.18950  0.94280  Biso   1.000  C
  H1       1.0000 0.77590  0.18200  0.92300  Biso   1.000  H
  C2       1.0000 0.93100  0.24840  0.96956  Biso   1.000  C
  H2       1.0000 0.97650  0.28780  0.97360  Biso   1.000  H
  C3       1.0000 0.95840  0.11610  0.04126  Biso   1.000  C
  H3       1.0000 0.92340  0.07870  0.06530  Biso   1.000  H
  H4       1.0000 0.98620  0.16770  0.06250  Biso   1.000  H
  C4       1.0000 0.01690  0.04150  0.01730  Biso   1.000  C
  H5       1.0000 0.05430  0.08070  0.99590  Biso   1.000  H
  H6       1.0000 0.04570  0.00900  0.04660  Biso   1.000  H
  N1       1.0000 0.87580  0.26500  0.93287  Biso   1.000  N
  N2       1.0000 0.91200  0.16800  0.99945  Biso   1.000  N
  N3       1.0000 0.84130  0.12840  0.98284  Biso   1.000  N
  C5       1.0000 0.82200  0.68950  0.44280  Biso   1.000  C
  H7       1.0000 0.77590  0.68200  0.42300  Biso   1.000  H
  C6       1.0000 0.93100  0.74840  0.46956  Biso   1.000  C
  H8       1.0000 0.97650  0.78780  0.47360  Biso   1.000  H
  C7       1.0000 0.95840  0.61610  0.54126  Biso   1.000  C
  H9       1.0000 0.92340  0.57870  0.56530  Biso   1.000  H
  H10      1.0000 0.98620  0.66770  0.56250  Biso   1.000  H
  C8       1.0000 0.01690  0.54150  0.51730  Biso   1.000  C
  H11      1.0000 0.05430  0.58070  0.49590  Biso   1.000  H
  H12      1.0000 0.04570  0.50900  0.54660  Biso   1.000  H
  N4       1.0000 0.87580  0.76500  0.43287  Biso   1.000  N
  N5       1.0000 0.91200  0.66800  0.49945  Biso   1.000  N
  N6       1.0000 0.84130  0.62840  0.48284  Biso   1.000  N
  C9       1.0000 0.32200  0.18950  0.44280  Biso   1.000  C
  H13      1.0000 0.27590  0.18200  0.42300  Biso   1.000  H
  C10      1.0000 0.43100  0.24840  0.46956  Biso   1.000  C
  H14      1.0000 0.47650  0.28780  0.47360  Biso   1.000  H
  C11      1.0000 0.45840  0.11610  0.54126  Biso   1.000  C
  H15      1.0000 0.42340  0.07870  0.56530  Biso   1.000  H
  H16      1.0000 0.48620  0.16770  0.56250  Biso   1.000  H
  C12      1.0000 0.51690  0.04150  0.51730  Biso   1.000  C
  H17      1.0000 0.55430  0.08070  0.49590  Biso   1.000  H
  H18      1.0000 0.54570  0.00900  0.54660  Biso   1.000  H
  N7       1.0000 0.37580  0.26500  0.43287  Biso   1.000  N
  N8       1.0000 0.41200  0.16800  0.49945  Biso   1.000  N
  N9       1.0000 0.34130  0.12840  0.48284  Biso   1.000  N
  C13      1.0000 0.32200  0.68950  0.94280  Biso   1.000  C
  H19      1.0000 0.27590  0.68200  0.92300  Biso   1.000  H
  C14      1.0000 0.43100  0.74840  0.96956  Biso   1.000  C
  H20      1.0000 0.47650  0.78780  0.97360  Biso   1.000  H
  C15      1.0000 0.45840  0.61610  0.04126  Biso   1.000  C
  H21      1.0000 0.42340  0.57870  0.06530  Biso   1.000  H
  H22      1.0000 0.48620  0.66770  0.06250  Biso   1.000  H
  C16      1.0000 0.51690  0.54150  0.01730  Biso   1.000  C
  H23      1.0000 0.55430  0.58070  0.99590  Biso   1.000  H
  H24      1.0000 0.54570  0.50900  0.04660  Biso   1.000  H
  N10      1.0000 0.37580  0.76500  0.93287  Biso   1.000  N
  N11      1.0000 0.41200  0.66800  0.99945  Biso   1.000  N
  N12      1.0000 0.34130  0.62840  0.98284  Biso   1.000  N
  C17      1.0000 0.92800  0.56050  0.94280  Biso   1.000  C
  H25      1.0000 0.97410  0.56800  0.92300  Biso   1.000  H
  C18      1.0000 0.81900  0.50160  0.96956  Biso   1.000  C
  H26      1.0000 0.77350  0.46220  0.97360  Biso   1.000  H
  C19      1.0000 0.79160  0.63390  0.04126  Biso   1.000  C
  H27      1.0000 0.82660  0.67130  0.06530  Biso   1.000  H
  H28      1.0000 0.76380  0.58230  0.06250  Biso   1.000  H
  C20      1.0000 0.73310  0.70850  0.01730  Biso   1.000  C
  H29      1.0000 0.69570  0.66930  0.99590  Biso   1.000  H
  H30      1.0000 0.70430  0.74100  0.04660  Biso   1.000  H
  N13      1.0000 0.87420  0.48500  0.93287  Biso   1.000  N
  N14      1.0000 0.83800  0.58200  0.99945  Biso   1.000  N
  N15      1.0000 0.90870  0.62160  0.98284  Biso   1.000  N
  C21      1.0000 0.92800  0.06050  0.44280  Biso   1.000  C
  H31      1.0000 0.97410  0.06800  0.42300  Biso   1.000  H
  C22      1.0000 0.81900  0.00160  0.46956  Biso   1.000  C
  H32      1.0000 0.77350  0.96220  0.47360  Biso   1.000  H
  C23      1.0000 0.79160  0.13390  0.54126  Biso   1.000  C
  H33      1.0000 0.82660  0.17130  0.56530  Biso   1.000  H
  H34      1.0000 0.76380  0.08230  0.56250  Biso   1.000  H
  C24      1.0000 0.73310  0.20850  0.51730  Biso   1.000  C
  H35      1.0000 0.69570  0.16930  0.49590  Biso   1.000  H
  H36      1.0000 0.70430  0.24100  0.54660  Biso   1.000  H
  N16      1.0000 0.87420  0.98500  0.43287  Biso   1.000  N
  N17      1.0000 0.83800  0.08200  0.49945  Biso   1.000  N
  N18      1.0000 0.90870  0.12160  0.48284  Biso   1.000  N
  C25      1.0000 0.42800  0.56050  0.44280  Biso   1.000  C
  H37      1.0000 0.47410  0.56800  0.42300  Biso   1.000  H
  C26      1.0000 0.31900  0.50160  0.46956  Biso   1.000  C
  H38      1.0000 0.27350  0.46220  0.47360  Biso   1.000  H
  C27      1.0000 0.29160  0.63390  0.54126  Biso   1.000  C
  H39      1.0000 0.32660  0.67130  0.56530  Biso   1.000  H
  H40      1.0000 0.26380  0.58230  0.56250  Biso   1.000  H
  C28      1.0000 0.23310  0.70850  0.51730  Biso   1.000  C
  H41      1.0000 0.19570  0.66930  0.49590  Biso   1.000  H
  H42      1.0000 0.20430  0.74100  0.54660  Biso   1.000  H
  N19      1.0000 0.37420  0.48500  0.43287  Biso   1.000  N
  N20      1.0000 0.33800  0.58200  0.49945  Biso   1.000  N
  N21      1.0000 0.40870  0.62160  0.48284  Biso   1.000  N
  C29      1.0000 0.42800  0.06050  0.94280  Biso   1.000  C
  H43      1.0000 0.47410  0.06800  0.92300  Biso   1.000  H
  C30      1.0000 0.31900  0.00160  0.96956  Biso   1.000  C
  H44      1.0000 0.27350  0.96220  0.97360  Biso   1.000  H
  C31      1.0000 0.29160  0.13390  0.04126  Biso   1.000  C
  H45      1.0000 0.32660  0.17130  0.06530  Biso   1.000  H
  H46      1.0000 0.26380  0.08230  0.06250  Biso   1.000  H
  C32      1.0000 0.23310  0.20850  0.01730  Biso   1.000  C
  H47      1.0000 0.19570  0.16930  0.99590  Biso   1.000  H
  H48      1.0000 0.20430  0.24100  0.04660  Biso   1.000  H
  N22      1.0000 0.37420  0.98500  0.93287  Biso   1.000  N
  N23      1.0000 0.33800  0.08200  0.99945  Biso   1.000  N
  N24      1.0000 0.40870  0.12160  0.98284  Biso   1.000  N
  C33      1.0000 0.92800  0.18950  0.80720  Biso   1.000  C
  H49      1.0000 0.97410  0.18200  0.82700  Biso   1.000  H
  C34      1.0000 0.81900  0.24840  0.78044  Biso   1.000  C
  H50      1.0000 0.77350  0.28780  0.77640  Biso   1.000  H
  C35      1.0000 0.79160  0.11610  0.70874  Biso   1.000  C
  H51      1.0000 0.82660  0.07870  0.68470  Biso   1.000  H
  H52      1.0000 0.76380  0.16770  0.68750  Biso   1.000  H
  C36      1.0000 0.73310  0.04150  0.73270  Biso   1.000  C
  H53      1.0000 0.69570  0.08070  0.75410  Biso   1.000  H
  H54      1.0000 0.70430  0.00900  0.70340  Biso   1.000  H
  N25      1.0000 0.87420  0.26500  0.81713  Biso   1.000  N
  N26      1.0000 0.83800  0.16800  0.75055  Biso   1.000  N
  N27      1.0000 0.90870  0.12840  0.76716  Biso   1.000  N
  C37      1.0000 0.92800  0.68950  0.30720  Biso   1.000  C
  H55      1.0000 0.97410  0.68200  0.32700  Biso   1.000  H
  C38      1.0000 0.81900  0.74840  0.28044  Biso   1.000  C
  H56      1.0000 0.77350  0.78780  0.27640  Biso   1.000  H
  C39      1.0000 0.79160  0.61610  0.20874  Biso   1.000  C
  H57      1.0000 0.82660  0.57870  0.18470  Biso   1.000  H
  H58      1.0000 0.76380  0.66770  0.18750  Biso   1.000  H
  C40      1.0000 0.73310  0.54150  0.23270  Biso   1.000  C
  H59      1.0000 0.69570  0.58070  0.25410  Biso   1.000  H
  H60      1.0000 0.70430  0.50900  0.20340  Biso   1.000  H
  N28      1.0000 0.87420  0.76500  0.31713  Biso   1.000  N
  N29      1.0000 0.83800  0.66800  0.25055  Biso   1.000  N
  N30      1.0000 0.90870  0.62840  0.26716  Biso   1.000  N
  C41      1.0000 0.42800  0.18950  0.30720  Biso   1.000  C
  H61      1.0000 0.47410  0.18200  0.32700  Biso   1.000  H
  C42      1.0000 0.31900  0.24840  0.28044  Biso   1.000  C
  H62      1.0000 0.27350  0.28780  0.27640  Biso   1.000  H
  C43      1.0000 0.29160  0.11610  0.20874  Biso   1.000  C
  H63      1.0000 0.32660  0.07870  0.18470  Biso   1.000  H
  H64      1.0000 0.26380  0.16770  0.18750  Biso   1.000  H
  C44      1.0000 0.23310  0.04150  0.23270  Biso   1.000  C
  H65      1.0000 0.19570  0.08070  0.25410  Biso   1.000  H
  H66      1.0000 0.20430  0.00900  0.20340  Biso   1.000  H
  N31      1.0000 0.37420  0.26500  0.31713  Biso   1.000  N
  N32      1.0000 0.33800  0.16800  0.25055  Biso   1.000  N
  N33      1.0000 0.40870  0.12840  0.26716  Biso   1.000  N
  C45      1.0000 0.42800  0.68950  0.80720  Biso   1.000  C
  H67      1.0000 0.47410  0.68200  0.82700  Biso   1.000  H
  C46      1.0000 0.31900  0.74840  0.78044  Biso   1.000  C
  H68      1.0000 0.27350  0.78780  0.77640  Biso   1.000  H
  C47      1.0000 0.29160  0.61610  0.70874  Biso   1.000  C
  H69      1.0000 0.32660  0.57870  0.68470  Biso   1.000  H
  H70      1.0000 0.26380  0.66770  0.68750  Biso   1.000  H
  C48      1.0000 0.23310  0.54150  0.73270  Biso   1.000  C
  H71      1.0000 0.19570  0.58070  0.75410  Biso   1.000  H
  H72      1.0000 0.20430  0.50900  0.70340  Biso   1.000  H
  N34      1.0000 0.37420  0.76500  0.81713  Biso   1.000  N
  N35      1.0000 0.33800  0.66800  0.75055  Biso   1.000  N
  N36      1.0000 0.40870  0.62840  0.76716  Biso   1.000  N
  C49      1.0000 0.82200  0.56050  0.80720  Biso   1.000  C
  H73      1.0000 0.77590  0.56800  0.82700  Biso   1.000  H
  C50      1.0000 0.93100  0.50160  0.78044  Biso   1.000  C
  H74      1.0000 0.97650  0.46220  0.77640  Biso   1.000  H
  C51      1.0000 0.95840  0.63390  0.70874  Biso   1.000  C
  H75      1.0000 0.92340  0.67130  0.68470  Biso   1.000  H
  H76      1.0000 0.98620  0.58230  0.68750  Biso   1.000  H
  C52      1.0000 0.01690  0.70850  0.73270  Biso   1.000  C
  H77      1.0000 0.05430  0.66930  0.75410  Biso   1.000  H
  H78      1.0000 0.04570  0.74100  0.70340  Biso   1.000  H
  N37      1.0000 0.87580  0.48500  0.81713  Biso   1.000  N
  N38      1.0000 0.91200  0.58200  0.75055  Biso   1.000  N
  N39      1.0000 0.84130  0.62160  0.76716  Biso   1.000  N
  C53      1.0000 0.82200  0.06050  0.30720  Biso   1.000  C
  H79      1.0000 0.77590  0.06800  0.32700  Biso   1.000  H
  C54      1.0000 0.93100  0.00160  0.28044  Biso   1.000  C
  H80      1.0000 0.97650  0.96220  0.27640  Biso   1.000  H
  C55      1.0000 0.95840  0.13390  0.20874  Biso   1.000  C
  H81      1.0000 0.92340  0.17130  0.18470  Biso   1.000  H
  H82      1.0000 0.98620  0.08230  0.18750  Biso   1.000  H
  C56      1.0000 0.01690  0.20850  0.23270  Biso   1.000  C
  H83      1.0000 0.05430  0.16930  0.25410  Biso   1.000  H
  H84      1.0000 0.04570  0.24100  0.20340  Biso   1.000  H
  N40      1.0000 0.87580  0.98500  0.31713  Biso   1.000  N
  N41      1.0000 0.91200  0.08200  0.25055  Biso   1.000  N
  N42      1.0000 0.84130  0.12160  0.26716  Biso   1.000  N
  C57      1.0000 0.32200  0.56050  0.30720  Biso   1.000  C
  H85      1.0000 0.27590  0.56800  0.32700  Biso   1.000  H
  C58      1.0000 0.43100  0.50160  0.28044  Biso   1.000  C
  H86      1.0000 0.47650  0.46220  0.27640  Biso   1.000  H
  C59      1.0000 0.45840  0.63390  0.20874  Biso   1.000  C
  H87      1.0000 0.42340  0.67130  0.18470  Biso   1.000  H
  H88      1.0000 0.48620  0.58230  0.18750  Biso   1.000  H
  C60      1.0000 0.51690  0.70850  0.23270  Biso   1.000  C
  H89      1.0000 0.55430  0.66930  0.25410  Biso   1.000  H
  H90      1.0000 0.54570  0.74100  0.20340  Biso   1.000  H
  N43      1.0000 0.37580  0.48500  0.31713  Biso   1.000  N
  N44      1.0000 0.41200  0.58200  0.25055  Biso   1.000  N
  N45      1.0000 0.34130  0.62160  0.26716  Biso   1.000  N
  C61      1.0000 0.32200  0.06050  0.80720  Biso   1.000  C
  H91      1.0000 0.27590  0.06800  0.82700  Biso   1.000  H
  C62      1.0000 0.43100  0.00160  0.78044  Biso   1.000  C
  H92      1.0000 0.47650  0.96220  0.77640  Biso   1.000  H
  C63      1.0000 0.45840  0.13390  0.70874  Biso   1.000  C
  H93      1.0000 0.42340  0.17130  0.68470  Biso   1.000  H
  H94      1.0000 0.48620  0.08230  0.68750  Biso   1.000  H
  C64      1.0000 0.51690  0.20850  0.73270  Biso   1.000  C
  H95      1.0000 0.55430  0.16930  0.75410  Biso   1.000  H
  H96      1.0000 0.54570  0.24100  0.70340  Biso   1.000  H
  N46      1.0000 0.37580  0.98500  0.81713  Biso   1.000  N
  N47      1.0000 0.41200  0.08200  0.75055  Biso   1.000  N
  N48      1.0000 0.34130  0.12160  0.76716  Biso   1.000  N
  C65      1.0000 0.17800  0.81050  0.05720  Biso   1.000  C
  H97      1.0000 0.22410  0.81800  0.07700  Biso   1.000  H
  C66      1.0000 0.06900  0.75160  0.03044  Biso   1.000  C
  H98      1.0000 0.02350  0.71220  0.02640  Biso   1.000  H
  C67      1.0000 0.04160  0.88390  0.95874  Biso   1.000  C
  H99      1.0000 0.07660  0.92130  0.93470  Biso   1.000  H
  H100     1.0000 0.01380  0.83230  0.93750  Biso   1.000  H
  C68      1.0000 0.98310  0.95850  0.98270  Biso   1.000  C
  H101     1.0000 0.94570  0.91930  0.00410  Biso   1.000  H
  H102     1.0000 0.95430  0.99100  0.95340  Biso   1.000  H
  N49      1.0000 0.12420  0.73500  0.06713  Biso   1.000  N
  N50      1.0000 0.08800  0.83200  0.00055  Biso   1.000  N
  N51      1.0000 0.15870  0.87160  0.01716  Biso   1.000  N
  C69      1.0000 0.17800  0.31050  0.55720  Biso   1.000  C
  H103     1.0000 0.22410  0.31800  0.57700  Biso   1.000  H
  C70      1.0000 0.06900  0.25160  0.53044  Biso   1.000  C
  H104     1.0000 0.02350  0.21220  0.52640  Biso   1.000  H
  C71      1.0000 0.04160  0.38390  0.45874  Biso   1.000  C
  H105     1.0000 0.07660  0.42130  0.43470  Biso   1.000  H
  H106     1.0000 0.01380  0.33230  0.43750  Biso   1.000  H
  C72      1.0000 0.98310  0.45850  0.48270  Biso   1.000  C
  H107     1.0000 0.94570  0.41930  0.50410  Biso   1.000  H
  H108     1.0000 0.95430  0.49100  0.45340  Biso   1.000  H
  N52      1.0000 0.12420  0.23500  0.56713  Biso   1.000  N
  N53      1.0000 0.08800  0.33200  0.50055  Biso   1.000  N
  N54      1.0000 0.15870  0.37160  0.51716  Biso   1.000  N
  C73      1.0000 0.67800  0.81050  0.55720  Biso   1.000  C
  H109     1.0000 0.72410  0.81800  0.57700  Biso   1.000  H
  C74      1.0000 0.56900  0.75160  0.53044  Biso   1.000  C
  H110     1.0000 0.52350  0.71220  0.52640  Biso   1.000  H
  C75      1.0000 0.54160  0.88390  0.45874  Biso   1.000  C
  H111     1.0000 0.57660  0.92130  0.43470  Biso   1.000  H
  H112     1.0000 0.51380  0.83230  0.43750  Biso   1.000  H
  C76      1.0000 0.48310  0.95850  0.48270  Biso   1.000  C
  H113     1.0000 0.44570  0.91930  0.50410  Biso   1.000  H
  H114     1.0000 0.45430  0.99100  0.45340  Biso   1.000  H
  N55      1.0000 0.62420  0.73500  0.56713  Biso   1.000  N
  N56      1.0000 0.58800  0.83200  0.50055  Biso   1.000  N
  N57      1.0000 0.65870  0.87160  0.51716  Biso   1.000  N
  C77      1.0000 0.67800  0.31050  0.05720  Biso   1.000  C
  H115     1.0000 0.72410  0.31800  0.07700  Biso   1.000  H
  C78      1.0000 0.56900  0.25160  0.03044  Biso   1.000  C
  H116     1.0000 0.52350  0.21220  0.02640  Biso   1.000  H
  C79      1.0000 0.54160  0.38390  0.95874  Biso   1.000  C
  H117     1.0000 0.57660  0.42130  0.93470  Biso   1.000  H
  H118     1.0000 0.51380  0.33230  0.93750  Biso   1.000  H
  C80      1.0000 0.48310  0.45850  0.98270  Biso   1.000  C
  H119     1.0000 0.44570  0.41930  0.00410  Biso   1.000  H
  H120     1.0000 0.45430  0.49100  0.95340  Biso   1.000  H
  N58      1.0000 0.62420  0.23500  0.06713  Biso   1.000  N
  N59      1.0000 0.58800  0.33200  0.00055  Biso   1.000  N
  N60      1.0000 0.65870  0.37160  0.01716  Biso   1.000  N
  C81      1.0000 0.07200  0.43950  0.05720  Biso   1.000  C
  H121     1.0000 0.02590  0.43200  0.07700  Biso   1.000  H
  C82      1.0000 0.18100  0.49840  0.03044  Biso   1.000  C
  H122     1.0000 0.22650  0.53780  0.02640  Biso   1.000  H
  C83      1.0000 0.20840  0.36610  0.95874  Biso   1.000  C
  H123     1.0000 0.17340  0.32870  0.93470  Biso   1.000  H
  H124     1.0000 0.23620  0.41770  0.93750  Biso   1.000  H
  C84      1.0000 0.26690  0.29150  0.98270  Biso   1.000  C
  H125     1.0000 0.30430  0.33070  0.00410  Biso   1.000  H
  H126     1.0000 0.29570  0.25900  0.95340  Biso   1.000  H
  N61      1.0000 0.12580  0.51500  0.06713  Biso   1.000  N
  N62      1.0000 0.16200  0.41800  0.00055  Biso   1.000  N
  N63      1.0000 0.09130  0.37840  0.01716  Biso   1.000  N
  C85      1.0000 0.07200  0.93950  0.55720  Biso   1.000  C
  H127     1.0000 0.02590  0.93200  0.57700  Biso   1.000  H
  C86      1.0000 0.18100  0.99840  0.53044  Biso   1.000  C
  H128     1.0000 0.22650  0.03780  0.52640  Biso   1.000  H
  C87      1.0000 0.20840  0.86610  0.45874  Biso   1.000  C
  H129     1.0000 0.17340  0.82870  0.43470  Biso   1.000  H
  H130     1.0000 0.23620  0.91770  0.43750  Biso   1.000  H
  C88      1.0000 0.26690  0.79150  0.48270  Biso   1.000  C
  H131     1.0000 0.30430  0.83070  0.50410  Biso   1.000  H
  H132     1.0000 0.29570  0.75900  0.45340  Biso   1.000  H
  N64      1.0000 0.12580  0.01500  0.56713  Biso   1.000  N
  N65      1.0000 0.16200  0.91800  0.50055  Biso   1.000  N
  N66      1.0000 0.09130  0.87840  0.51716  Biso   1.000  N
  C89      1.0000 0.57200  0.43950  0.55720  Biso   1.000  C
  H133     1.0000 0.52590  0.43200  0.57700  Biso   1.000  H
  C90      1.0000 0.68100  0.49840  0.53044  Biso   1.000  C
  H134     1.0000 0.72650  0.53780  0.52640  Biso   1.000  H
  C91      1.0000 0.70840  0.36610  0.45874  Biso   1.000  C
  H135     1.0000 0.67340  0.32870  0.43470  Biso   1.000  H
  H136     1.0000 0.73620  0.41770  0.43750  Biso   1.000  H
  C92      1.0000 0.76690  0.29150  0.48270  Biso   1.000  C
  H137     1.0000 0.80430  0.33070  0.50410  Biso   1.000  H
  H138     1.0000 0.79570  0.25900  0.45340  Biso   1.000  H
  N67      1.0000 0.62580  0.51500  0.56713  Biso   1.000  N
  N68      1.0000 0.66200  0.41800  0.50055  Biso   1.000  N
  N69      1.0000 0.59130  0.37840  0.51716  Biso   1.000  N
  C93      1.0000 0.57200  0.93950  0.05720  Biso   1.000  C
  H139     1.0000 0.52590  0.93200  0.07700  Biso   1.000  H
  C94      1.0000 0.68100  0.99840  0.03044  Biso   1.000  C
  H140     1.0000 0.72650  0.03780  0.02640  Biso   1.000  H
  C95      1.0000 0.70840  0.86610  0.95874  Biso   1.000  C
  H141     1.0000 0.67340  0.82870  0.93470  Biso   1.000  H
  H142     1.0000 0.73620  0.91770  0.93750  Biso   1.000  H
  C96      1.0000 0.76690  0.79150  0.98270  Biso   1.000  C
  H143     1.0000 0.80430  0.83070  0.00410  Biso   1.000  H
  H144     1.0000 0.79570  0.75900  0.95340  Biso   1.000  H
  N70      1.0000 0.62580  0.01500  0.06713  Biso   1.000  N
  N71      1.0000 0.66200  0.91800  0.00055  Biso   1.000  N
  N72      1.0000 0.59130  0.87840  0.01716  Biso   1.000  N
  C97      1.0000 0.07200  0.81050  0.19280  Biso   1.000  C
  H145     1.0000 0.02590  0.81800  0.17300  Biso   1.000  H
  C98      1.0000 0.18100  0.75160  0.21956  Biso   1.000  C
  H146     1.0000 0.22650  0.71220  0.22360  Biso   1.000  H
  C99      1.0000 0.20840  0.88390  0.29126  Biso   1.000  C
  H147     1.0000 0.17340  0.92130  0.31530  Biso   1.000  H
  H148     1.0000 0.23620  0.83230  0.31250  Biso   1.000  H
  C100     1.0000 0.26690  0.95850  0.26730  Biso   1.000  C
  H149     1.0000 0.30430  0.91930  0.24590  Biso   1.000  H
  H150     1.0000 0.29570  0.99100  0.29660  Biso   1.000  H
  N73      1.0000 0.12580  0.73500  0.18287  Biso   1.000  N
  N74      1.0000 0.16200  0.83200  0.24945  Biso   1.000  N
  N75      1.0000 0.09130  0.87160  0.23284  Biso   1.000  N
  C101     1.0000 0.07200  0.31050  0.69280  Biso   1.000  C
  H151     1.0000 0.02590  0.31800  0.67300  Biso   1.000  H
  C102     1.0000 0.18100  0.25160  0.71956  Biso   1.000  C
  H152     1.0000 0.22650  0.21220  0.72360  Biso   1.000  H
  C103     1.0000 0.20840  0.38390  0.79126  Biso   1.000  C
  H153     1.0000 0.17340  0.42130  0.81530  Biso   1.000  H
  H154     1.0000 0.23620  0.33230  0.81250  Biso   1.000  H
  C104     1.0000 0.26690  0.45850  0.76730  Biso   1.000  C
  H155     1.0000 0.30430  0.41930  0.74590  Biso   1.000  H
  H156     1.0000 0.29570  0.49100  0.79660  Biso   1.000  H
  N76      1.0000 0.12580  0.23500  0.68287  Biso   1.000  N
  N77      1.0000 0.16200  0.33200  0.74945  Biso   1.000  N
  N78      1.0000 0.09130  0.37160  0.73284  Biso   1.000  N
  C105     1.0000 0.57200  0.81050  0.69280  Biso   1.000  C
  H157     1.0000 0.52590  0.81800  0.67300  Biso   1.000  H
  C106     1.0000 0.68100  0.75160  0.71956  Biso   1.000  C
  H158     1.0000 0.72650  0.71220  0.72360  Biso   1.000  H
  C107     1.0000 0.70840  0.88390  0.79126  Biso   1.000  C
  H159     1.0000 0.67340  0.92130  0.81530  Biso   1.000  H
  H160     1.0000 0.73620  0.83230  0.81250  Biso   1.000  H
  C108     1.0000 0.76690  0.95850  0.76730  Biso   1.000  C
  H161     1.0000 0.80430  0.91930  0.74590  Biso   1.000  H
  H162     1.0000 0.79570  0.99100  0.79660  Biso   1.000  H
  N79      1.0000 0.62580  0.73500  0.68287  Biso   1.000  N
  N80      1.0000 0.66200  0.83200  0.74945  Biso   1.000  N
  N81      1.0000 0.59130  0.87160  0.73284  Biso   1.000  N
  C109     1.0000 0.57200  0.31050  0.19280  Biso   1.000  C
  H163     1.0000 0.52590  0.31800  0.17300  Biso   1.000  H
  C110     1.0000 0.68100  0.25160  0.21956  Biso   1.000  C
  H164     1.0000 0.72650  0.21220  0.22360  Biso   1.000  H
  C111     1.0000 0.70840  0.38390  0.29126  Biso   1.000  C
  H165     1.0000 0.67340  0.42130  0.31530  Biso   1.000  H
  H166     1.0000 0.73620  0.33230  0.31250  Biso   1.000  H
  C112     1.0000 0.76690  0.45850  0.26730  Biso   1.000  C
  H167     1.0000 0.80430  0.41930  0.24590  Biso   1.000  H
  H168     1.0000 0.79570  0.49100  0.29660  Biso   1.000  H
  N82      1.0000 0.62580  0.23500  0.18287  Biso   1.000  N
  N83      1.0000 0.66200  0.33200  0.24945  Biso   1.000  N
  N84      1.0000 0.59130  0.37160  0.23284  Biso   1.000  N
  C113     1.0000 0.17800  0.43950  0.19280  Biso   1.000  C
  H169     1.0000 0.22410  0.43200  0.17300  Biso   1.000  H
  C114     1.0000 0.06900  0.49840  0.21956  Biso   1.000  C
  H170     1.0000 0.02350  0.53780  0.22360  Biso   1.000  H
  C115     1.0000 0.04160  0.36610  0.29126  Biso   1.000  C
  H171     1.0000 0.07660  0.32870  0.31530  Biso   1.000  H
  H172     1.0000 0.01380  0.41770  0.31250  Biso   1.000  H
  C116     1.0000 0.98310  0.29150  0.26730  Biso   1.000  C
  H173     1.0000 0.94570  0.33070  0.24590  Biso   1.000  H
  H174     1.0000 0.95430  0.25900  0.29660  Biso   1.000  H
  N85      1.0000 0.12420  0.51500  0.18287  Biso   1.000  N
  N86      1.0000 0.08800  0.41800  0.24945  Biso   1.000  N
  N87      1.0000 0.15870  0.37840  0.23284  Biso   1.000  N
  C117     1.0000 0.17800  0.93950  0.69280  Biso   1.000  C
  H175     1.0000 0.22410  0.93200  0.67300  Biso   1.000  H
  C118     1.0000 0.06900  0.99840  0.71956  Biso   1.000  C
  H176     1.0000 0.02350  0.03780  0.72360  Biso   1.000  H
  C119     1.0000 0.04160  0.86610  0.79126  Biso   1.000  C
  H177     1.0000 0.07660  0.82870  0.81530  Biso   1.000  H
  H178     1.0000 0.01380  0.91770  0.81250  Biso   1.000  H
  C120     1.0000 0.98310  0.79150  0.76730  Biso   1.000  C
  H179     1.0000 0.94570  0.83070  0.74590  Biso   1.000  H
  H180     1.0000 0.95430  0.75900  0.79660  Biso   1.000  H
  N88      1.0000 0.12420  0.01500  0.68287  Biso   1.000  N
  N89      1.0000 0.08800  0.91800  0.74945  Biso   1.000  N
  N90      1.0000 0.15870  0.87840  0.73284  Biso   1.000  N
  C121     1.0000 0.67800  0.43950  0.69280  Biso   1.000  C
  H181     1.0000 0.72410  0.43200  0.67300  Biso   1.000  H
  C122     1.0000 0.56900  0.49840  0.71956  Biso   1.000  C
  H182     1.0000 0.52350  0.53780  0.72360  Biso   1.000  H
  C123     1.0000 0.54160  0.36610  0.79126  Biso   1.000  C
  H183     1.0000 0.57660  0.32870  0.81530  Biso   1.000  H
  H184     1.0000 0.51380  0.41770  0.81250  Biso   1.000  H
  C124     1.0000 0.48310  0.29150  0.76730  Biso   1.000  C
  H185     1.0000 0.44570  0.33070  0.74590  Biso   1.000  H
  H186     1.0000 0.45430  0.25900  0.79660  Biso   1.000  H
  N91      1.0000 0.62420  0.51500  0.68287  Biso   1.000  N
  N92      1.0000 0.58800  0.41800  0.74945  Biso   1.000  N
  N93      1.0000 0.65870  0.37840  0.73284  Biso   1.000  N
  C125     1.0000 0.67800  0.93950  0.19280  Biso   1.000  C
  H187     1.0000 0.72410  0.93200  0.17300  Biso   1.000  H
  C126     1.0000 0.56900  0.99840  0.21956  Biso   1.000  C
  H188     1.0000 0.52350  0.03780  0.22360  Biso   1.000  H
  C127     1.0000 0.54160  0.86610  0.29126  Biso   1.000  C
  H189     1.0000 0.57660  0.82870  0.31530  Biso   1.000  H
  H190     1.0000 0.51380  0.91770  0.31250  Biso   1.000  H
  C128     1.0000 0.48310  0.79150  0.26730  Biso   1.000  C
  H191     1.0000 0.44570  0.83070  0.24590  Biso   1.000  H
  H192     1.0000 0.45430  0.75900  0.29660  Biso   1.000  H
  N94      1.0000 0.62420  0.01500  0.18287  Biso   1.000  N
  N95      1.0000 0.58800  0.91800  0.24945  Biso   1.000  N
  N96      1.0000 0.65870  0.87840  0.23284  Biso   1.000  N
  Cu1      1.0000 0.87500  0.37500  0.87500  Biso   1.000  Cu
  Cu2      1.0000 0.87500  0.87500  0.37500  Biso   1.000  Cu
  Cu3      1.0000 0.37500  0.37500  0.37500  Biso   1.000  Cu
  Cu4      1.0000 0.37500  0.87500  0.87500  Biso   1.000  Cu
  Cu5      1.0000 0.12500  0.62500  0.12500  Biso   1.000  Cu
  Cu6      1.0000 0.12500  0.12500  0.62500  Biso   1.000  Cu
  Cu7      1.0000 0.62500  0.62500  0.62500  Biso   1.000  Cu
  Cu8      1.0000 0.62500  0.12500  0.12500  Biso   1.000  Cu
