data_image0
_cell_length_a       21.4551
_cell_length_b       21.4551
_cell_length_c       34.1708
_cell_angle_alpha    90
_cell_angle_beta     90
_cell_angle_gamma    120

_symmetry_space_group_name_H-M    "P 1"
_symmetry_int_tables_number       1

loop_
  _symmetry_equiv_pos_as_xyz
  'x, y, z'

loop_
  _atom_site_label
  _atom_site_occupancy
  _atom_site_fract_x
  _atom_site_fract_y
  _atom_site_fract_z
  _atom_site_thermal_displace_type
  _atom_site_B_iso_or_equiv
  _atom_site_type_symbol
  W1       1.0000 0.29337  0.73113  0.06796  Biso   1.000  W
  W2       1.0000 0.15774  0.51820  0.97825  Biso   1.000  W
  W3       1.0000 0.29122  0.72878  0.77959  Biso   1.000  W
  W4       1.0000 0.15721  0.51871  0.86833  Biso   1.000  W
  W5       1.0000 0.17853  0.68362  0.97969  Biso   1.000  W
  W6       1.0000 0.17939  0.68447  0.86934  Biso   1.000  W
  N1       1.0000 0.27770  0.90780  0.71350  Biso   1.000  N
  N2       1.0000 0.20180  0.85120  0.78240  Biso   1.000  N
  O1       1.0000 0.14680  0.52270  0.92390  Biso   1.000  O
  O2       1.0000 0.12040  0.58130  0.98690  Biso   1.000  O
  O3       1.0000 0.12150  0.58340  0.86130  Biso   1.000  O
  O4       1.0000 0.22610  0.48950  0.87870  Biso   1.000  O
  O5       1.0000 0.25420  0.63570  0.87870  Biso   1.000  O
  O6       1.0000 0.16520  0.67190  0.92400  Biso   1.000  O
  O7       1.0000 0.25490  0.63530  0.96900  Biso   1.000  O
  O8       1.0000 0.21440  0.69320  0.03160  Biso   1.000  O
  O9       1.0000 0.25040  0.63260  0.75820  Biso   1.000  O
  O10      1.0000 0.22700  0.48880  0.96930  Biso   1.000  O
  O11      1.0000 0.21540  0.69380  0.81580  Biso   1.000  O
  O12      1.0000 0.34290  0.80540  0.03120  Biso   1.000  O
  O13      1.0000 0.25170  0.63490  0.09050  Biso   1.000  O
  O14      1.0000 0.11710  0.71150  0.85850  Biso   1.000  O
  O15      1.0000 0.19370  0.53730  0.81550  Biso   1.000  O
  C1       1.0000 0.30820  0.92560  0.74860  Biso   1.000  C
  H1       1.0000 0.35750  0.95740  0.75000  Biso   1.000  H
  C2       1.0000 0.20890  0.86290  0.71290  Biso   1.000  C
  H2       1.0000 0.18470  0.85000  0.68910  Biso   1.000  H
  C3       1.0000 0.27150  0.89980  0.78220  Biso   1.000  C
  H3       1.0000 0.29550  0.91650  0.80590  Biso   1.000  H
  C4       1.0000 0.17160  0.83430  0.74700  Biso   1.000  C
  H4       1.0000 0.12260  0.80120  0.74530  Biso   1.000  H
  W7       1.0000 0.96004  0.06446  0.40129  Biso   1.000  W
  W8       1.0000 0.82441  0.85153  0.31158  Biso   1.000  W
  W9       1.0000 0.95789  0.06211  0.11292  Biso   1.000  W
  W10      1.0000 0.82388  0.85204  0.20166  Biso   1.000  W
  W11      1.0000 0.84520  0.01695  0.31302  Biso   1.000  W
  W12      1.0000 0.84606  0.01780  0.20267  Biso   1.000  W
  N3       1.0000 0.94437  0.24113  0.04683  Biso   1.000  N
  N4       1.0000 0.86847  0.18453  0.11573  Biso   1.000  N
  O16      1.0000 0.81347  0.85603  0.25723  Biso   1.000  O
  O17      1.0000 0.78707  0.91463  0.32023  Biso   1.000  O
  O18      1.0000 0.78817  0.91673  0.19463  Biso   1.000  O
  O19      1.0000 0.89277  0.82283  0.21203  Biso   1.000  O
  O20      1.0000 0.92087  0.96903  0.21203  Biso   1.000  O
  O21      1.0000 0.83187  0.00523  0.25733  Biso   1.000  O
  O22      1.0000 0.92157  0.96863  0.30233  Biso   1.000  O
  O23      1.0000 0.88107  0.02653  0.36493  Biso   1.000  O
  O24      1.0000 0.91707  0.96593  0.09153  Biso   1.000  O
  O25      1.0000 0.89367  0.82213  0.30263  Biso   1.000  O
  O26      1.0000 0.88207  0.02713  0.14913  Biso   1.000  O
  O27      1.0000 0.00957  0.13873  0.36453  Biso   1.000  O
  O28      1.0000 0.91837  0.96823  0.42383  Biso   1.000  O
  O29      1.0000 0.78377  0.04483  0.19183  Biso   1.000  O
  O30      1.0000 0.86037  0.87063  0.14883  Biso   1.000  O
  C5       1.0000 0.97487  0.25893  0.08193  Biso   1.000  C
  H5       1.0000 0.02417  0.29073  0.08333  Biso   1.000  H
  C6       1.0000 0.87557  0.19623  0.04623  Biso   1.000  C
  H6       1.0000 0.85137  0.18333  0.02243  Biso   1.000  H
  C7       1.0000 0.93817  0.23313  0.11553  Biso   1.000  C
  H7       1.0000 0.96217  0.24983  0.13923  Biso   1.000  H
  C8       1.0000 0.83827  0.16763  0.08033  Biso   1.000  C
  H8       1.0000 0.78927  0.13453  0.07863  Biso   1.000  H
  W13      1.0000 0.62670  0.39780  0.73463  Biso   1.000  W
  W14      1.0000 0.49107  0.18487  0.64492  Biso   1.000  W
  W15      1.0000 0.62455  0.39545  0.44626  Biso   1.000  W
  W16      1.0000 0.49054  0.18538  0.53500  Biso   1.000  W
  W17      1.0000 0.51186  0.35029  0.64636  Biso   1.000  W
  W18      1.0000 0.51272  0.35114  0.53601  Biso   1.000  W
  N5       1.0000 0.61103  0.57447  0.38017  Biso   1.000  N
  N6       1.0000 0.53513  0.51787  0.44907  Biso   1.000  N
  O31      1.0000 0.48013  0.18937  0.59057  Biso   1.000  O
  O32      1.0000 0.45373  0.24797  0.65357  Biso   1.000  O
  O33      1.0000 0.45483  0.25007  0.52797  Biso   1.000  O
  O34      1.0000 0.55943  0.15617  0.54537  Biso   1.000  O
  O35      1.0000 0.58753  0.30237  0.54537  Biso   1.000  O
  O36      1.0000 0.49853  0.33857  0.59067  Biso   1.000  O
  O37      1.0000 0.58823  0.30197  0.63567  Biso   1.000  O
  O38      1.0000 0.54773  0.35987  0.69827  Biso   1.000  O
  O39      1.0000 0.58373  0.29927  0.42487  Biso   1.000  O
  O40      1.0000 0.56033  0.15547  0.63597  Biso   1.000  O
  O41      1.0000 0.54873  0.36047  0.48247  Biso   1.000  O
  O42      1.0000 0.67623  0.47207  0.69787  Biso   1.000  O
  O43      1.0000 0.58503  0.30157  0.75717  Biso   1.000  O
  O44      1.0000 0.45043  0.37817  0.52517  Biso   1.000  O
  O45      1.0000 0.52703  0.20397  0.48217  Biso   1.000  O
  C9       1.0000 0.64153  0.59227  0.41527  Biso   1.000  C
  H9       1.0000 0.69083  0.62407  0.41667  Biso   1.000  H
  C10      1.0000 0.54223  0.52957  0.37957  Biso   1.000  C
  H10      1.0000 0.51803  0.51667  0.35577  Biso   1.000  H
  C11      1.0000 0.60483  0.56647  0.44887  Biso   1.000  C
  H11      1.0000 0.62883  0.58317  0.47257  Biso   1.000  H
  C12      1.0000 0.50493  0.50097  0.41367  Biso   1.000  C
  H12      1.0000 0.45593  0.46787  0.41197  Biso   1.000  H
  W19      1.0000 0.26887  0.56224  0.06796  Biso   1.000  W
  W20      1.0000 0.48180  0.63954  0.97825  Biso   1.000  W
  W21      1.0000 0.27122  0.56244  0.77959  Biso   1.000  W
  W22      1.0000 0.48129  0.63850  0.86833  Biso   1.000  W
  W23      1.0000 0.31638  0.49491  0.97969  Biso   1.000  W
  W24      1.0000 0.31553  0.49492  0.86934  Biso   1.000  W
  N7       1.0000 0.09220  0.36990  0.71350  Biso   1.000  N
  N8       1.0000 0.14880  0.35060  0.78240  Biso   1.000  N
  O46      1.0000 0.47730  0.62410  0.92390  Biso   1.000  O
  O47      1.0000 0.41870  0.53910  0.98690  Biso   1.000  O
  O48      1.0000 0.41660  0.53810  0.86130  Biso   1.000  O
  O49      1.0000 0.51050  0.73660  0.87870  Biso   1.000  O
  O50      1.0000 0.36430  0.61850  0.87870  Biso   1.000  O
  O51      1.0000 0.32810  0.49330  0.92400  Biso   1.000  O
  O52      1.0000 0.36470  0.61960  0.96900  Biso   1.000  O
  O53      1.0000 0.30680  0.52120  0.03160  Biso   1.000  O
  O54      1.0000 0.36740  0.61780  0.75820  Biso   1.000  O
  O55      1.0000 0.51120  0.73820  0.96930  Biso   1.000  O
  O56      1.0000 0.30620  0.52160  0.81580  Biso   1.000  O
  O57      1.0000 0.19460  0.53750  0.03120  Biso   1.000  O
  O58      1.0000 0.36510  0.61680  0.09050  Biso   1.000  O
  O59      1.0000 0.28850  0.40560  0.85850  Biso   1.000  O
  O60      1.0000 0.46270  0.65640  0.81550  Biso   1.000  O
  C13      1.0000 0.07440  0.38260  0.74860  Biso   1.000  C
  H13      1.0000 0.04260  0.40010  0.75000  Biso   1.000  H
  C14      1.0000 0.13710  0.34600  0.71290  Biso   1.000  C
  H14      1.0000 0.15000  0.33470  0.68910  Biso   1.000  H
  C15      1.0000 0.10020  0.37170  0.78220  Biso   1.000  C
  H15      1.0000 0.08350  0.37900  0.80590  Biso   1.000  H
  C16      1.0000 0.16570  0.33730  0.74700  Biso   1.000  C
  H16      1.0000 0.19880  0.32140  0.74530  Biso   1.000  H
  W25      1.0000 0.93554  0.89557  0.40129  Biso   1.000  W
  W26      1.0000 0.14847  0.97287  0.31158  Biso   1.000  W
  W27      1.0000 0.93789  0.89577  0.11292  Biso   1.000  W
  W28      1.0000 0.14796  0.97183  0.20166  Biso   1.000  W
  W29      1.0000 0.98305  0.82824  0.31302  Biso   1.000  W
  W30      1.0000 0.98220  0.82825  0.20267  Biso   1.000  W
  N9       1.0000 0.75887  0.70323  0.04683  Biso   1.000  N
  N10      1.0000 0.81547  0.68393  0.11573  Biso   1.000  N
  O61      1.0000 0.14397  0.95743  0.25723  Biso   1.000  O
  O62      1.0000 0.08537  0.87243  0.32023  Biso   1.000  O
  O63      1.0000 0.08327  0.87143  0.19463  Biso   1.000  O
  O64      1.0000 0.17717  0.06993  0.21203  Biso   1.000  O
  O65      1.0000 0.03097  0.95183  0.21203  Biso   1.000  O
  O66      1.0000 0.99477  0.82663  0.25733  Biso   1.000  O
  O67      1.0000 0.03137  0.95293  0.30233  Biso   1.000  O
  O68      1.0000 0.97347  0.85453  0.36493  Biso   1.000  O
  O69      1.0000 0.03407  0.95113  0.09153  Biso   1.000  O
  O70      1.0000 0.17787  0.07153  0.30263  Biso   1.000  O
  O71      1.0000 0.97287  0.85493  0.14913  Biso   1.000  O
  O72      1.0000 0.86127  0.87083  0.36453  Biso   1.000  O
  O73      1.0000 0.03177  0.95013  0.42383  Biso   1.000  O
  O74      1.0000 0.95517  0.73893  0.19183  Biso   1.000  O
  O75      1.0000 0.12937  0.98973  0.14883  Biso   1.000  O
  C17      1.0000 0.74107  0.71593  0.08193  Biso   1.000  C
  H17      1.0000 0.70927  0.73343  0.08333  Biso   1.000  H
  C18      1.0000 0.80377  0.67933  0.04623  Biso   1.000  C
  H18      1.0000 0.81667  0.66803  0.02243  Biso   1.000  H
  C19      1.0000 0.76687  0.70503  0.11553  Biso   1.000  C
  H19      1.0000 0.75017  0.71233  0.13923  Biso   1.000  H
  C20      1.0000 0.83237  0.67063  0.08033  Biso   1.000  C
  H20      1.0000 0.86547  0.65473  0.07863  Biso   1.000  H
  W31      1.0000 0.60220  0.22891  0.73463  Biso   1.000  W
  W32      1.0000 0.81513  0.30621  0.64492  Biso   1.000  W
  W33      1.0000 0.60455  0.22911  0.44626  Biso   1.000  W
  W34      1.0000 0.81462  0.30517  0.53500  Biso   1.000  W
  W35      1.0000 0.64971  0.16158  0.64636  Biso   1.000  W
  W36      1.0000 0.64886  0.16159  0.53601  Biso   1.000  W
  N11      1.0000 0.42553  0.03657  0.38017  Biso   1.000  N
  N12      1.0000 0.48213  0.01727  0.44907  Biso   1.000  N
  O76      1.0000 0.81063  0.29077  0.59057  Biso   1.000  O
  O77      1.0000 0.75203  0.20577  0.65357  Biso   1.000  O
  O78      1.0000 0.74993  0.20477  0.52797  Biso   1.000  O
  O79      1.0000 0.84383  0.40327  0.54537  Biso   1.000  O
  O80      1.0000 0.69763  0.28517  0.54537  Biso   1.000  O
  O81      1.0000 0.66143  0.15997  0.59067  Biso   1.000  O
  O82      1.0000 0.69803  0.28627  0.63567  Biso   1.000  O
  O83      1.0000 0.64013  0.18787  0.69827  Biso   1.000  O
  O84      1.0000 0.70073  0.28447  0.42487  Biso   1.000  O
  O85      1.0000 0.84453  0.40487  0.63597  Biso   1.000  O
  O86      1.0000 0.63953  0.18827  0.48247  Biso   1.000  O
  O87      1.0000 0.52793  0.20417  0.69787  Biso   1.000  O
  O88      1.0000 0.69843  0.28347  0.75717  Biso   1.000  O
  O89      1.0000 0.62183  0.07227  0.52517  Biso   1.000  O
  O90      1.0000 0.79603  0.32307  0.48217  Biso   1.000  O
  C21      1.0000 0.40773  0.04927  0.41527  Biso   1.000  C
  H21      1.0000 0.37593  0.06677  0.41667  Biso   1.000  H
  C22      1.0000 0.47043  0.01267  0.37957  Biso   1.000  C
  H22      1.0000 0.48333  0.00137  0.35577  Biso   1.000  H
  C23      1.0000 0.43353  0.03837  0.44887  Biso   1.000  C
  H23      1.0000 0.41683  0.04567  0.47257  Biso   1.000  H
  C24      1.0000 0.49903  0.00397  0.41367  Biso   1.000  C
  H24      1.0000 0.53213  0.98807  0.41197  Biso   1.000  H
  W37      1.0000 0.43776  0.70663  0.06796  Biso   1.000  W
  W38      1.0000 0.36046  0.84226  0.97825  Biso   1.000  W
  W39      1.0000 0.43756  0.70878  0.77959  Biso   1.000  W
  W40      1.0000 0.36150  0.84279  0.86833  Biso   1.000  W
  W41      1.0000 0.50509  0.82147  0.97969  Biso   1.000  W
  W42      1.0000 0.50508  0.82061  0.86934  Biso   1.000  W
  N13      1.0000 0.63010  0.72230  0.71350  Biso   1.000  N
  N14      1.0000 0.64940  0.79820  0.78240  Biso   1.000  N
  O91      1.0000 0.37590  0.85320  0.92390  Biso   1.000  O
  O92      1.0000 0.46090  0.87960  0.98690  Biso   1.000  O
  O93      1.0000 0.46190  0.87850  0.86130  Biso   1.000  O
  O94      1.0000 0.26340  0.77390  0.87870  Biso   1.000  O
  O95      1.0000 0.38150  0.74580  0.87870  Biso   1.000  O
  O96      1.0000 0.50670  0.83480  0.92400  Biso   1.000  O
  O97      1.0000 0.38040  0.74510  0.96900  Biso   1.000  O
  O98      1.0000 0.47880  0.78560  0.03160  Biso   1.000  O
  O99      1.0000 0.38220  0.74960  0.75820  Biso   1.000  O
  O100     1.0000 0.26180  0.77300  0.96930  Biso   1.000  O
  O101     1.0000 0.47840  0.78460  0.81580  Biso   1.000  O
  O102     1.0000 0.46250  0.65710  0.03120  Biso   1.000  O
  O103     1.0000 0.38320  0.74830  0.09050  Biso   1.000  O
  O104     1.0000 0.59440  0.88290  0.85850  Biso   1.000  O
  O105     1.0000 0.34360  0.80630  0.81550  Biso   1.000  O
  C25      1.0000 0.61740  0.69180  0.74860  Biso   1.000  C
  H25      1.0000 0.59990  0.64250  0.75000  Biso   1.000  H
  C26      1.0000 0.65400  0.79110  0.71290  Biso   1.000  C
  H26      1.0000 0.66530  0.81530  0.68910  Biso   1.000  H
  C27      1.0000 0.62830  0.72850  0.78220  Biso   1.000  C
  H27      1.0000 0.62100  0.70450  0.80590  Biso   1.000  H
  C28      1.0000 0.66270  0.82840  0.74700  Biso   1.000  C
  H28      1.0000 0.67860  0.87740  0.74530  Biso   1.000  H
  W43      1.0000 0.10443  0.03996  0.40129  Biso   1.000  W
  W44      1.0000 0.02713  0.17559  0.31158  Biso   1.000  W
  W45      1.0000 0.10423  0.04211  0.11292  Biso   1.000  W
  W46      1.0000 0.02817  0.17612  0.20166  Biso   1.000  W
  W47      1.0000 0.17176  0.15480  0.31302  Biso   1.000  W
  W48      1.0000 0.17175  0.15394  0.20267  Biso   1.000  W
  N15      1.0000 0.29677  0.05563  0.04683  Biso   1.000  N
  N16      1.0000 0.31607  0.13153  0.11573  Biso   1.000  N
  O106     1.0000 0.04257  0.18653  0.25723  Biso   1.000  O
  O107     1.0000 0.12757  0.21293  0.32023  Biso   1.000  O
  O108     1.0000 0.12857  0.21183  0.19463  Biso   1.000  O
  O109     1.0000 0.93007  0.10723  0.21203  Biso   1.000  O
  O110     1.0000 0.04817  0.07913  0.21203  Biso   1.000  O
  O111     1.0000 0.17337  0.16813  0.25733  Biso   1.000  O
  O112     1.0000 0.04707  0.07843  0.30233  Biso   1.000  O
  O113     1.0000 0.14547  0.11893  0.36493  Biso   1.000  O
  O114     1.0000 0.04887  0.08293  0.09153  Biso   1.000  O
  O115     1.0000 0.92847  0.10633  0.30263  Biso   1.000  O
  O116     1.0000 0.14507  0.11793  0.14913  Biso   1.000  O
  O117     1.0000 0.12917  0.99043  0.36453  Biso   1.000  O
  O118     1.0000 0.04987  0.08163  0.42383  Biso   1.000  O
  O119     1.0000 0.26107  0.21623  0.19183  Biso   1.000  O
  O120     1.0000 0.01027  0.13963  0.14883  Biso   1.000  O
  C29      1.0000 0.28407  0.02513  0.08193  Biso   1.000  C
  H29      1.0000 0.26657  0.97583  0.08333  Biso   1.000  H
  C30      1.0000 0.32067  0.12443  0.04623  Biso   1.000  C
  H30      1.0000 0.33197  0.14863  0.02243  Biso   1.000  H
  C31      1.0000 0.29497  0.06183  0.11553  Biso   1.000  C
  H31      1.0000 0.28767  0.03783  0.13923  Biso   1.000  H
  C32      1.0000 0.32937  0.16173  0.08033  Biso   1.000  C
  H32      1.0000 0.34527  0.21073  0.07863  Biso   1.000  H
  W49      1.0000 0.77109  0.37330  0.73463  Biso   1.000  W
  W50      1.0000 0.69379  0.50893  0.64492  Biso   1.000  W
  W51      1.0000 0.77089  0.37545  0.44626  Biso   1.000  W
  W52      1.0000 0.69483  0.50946  0.53500  Biso   1.000  W
  W53      1.0000 0.83842  0.48814  0.64636  Biso   1.000  W
  W54      1.0000 0.83841  0.48728  0.53601  Biso   1.000  W
  N17      1.0000 0.96343  0.38897  0.38017  Biso   1.000  N
  N18      1.0000 0.98273  0.46487  0.44907  Biso   1.000  N
  O121     1.0000 0.70923  0.51987  0.59057  Biso   1.000  O
  O122     1.0000 0.79423  0.54627  0.65357  Biso   1.000  O
  O123     1.0000 0.79523  0.54517  0.52797  Biso   1.000  O
  O124     1.0000 0.59673  0.44057  0.54537  Biso   1.000  O
  O125     1.0000 0.71483  0.41247  0.54537  Biso   1.000  O
  O126     1.0000 0.84003  0.50147  0.59067  Biso   1.000  O
  O127     1.0000 0.71373  0.41177  0.63567  Biso   1.000  O
  O128     1.0000 0.81213  0.45227  0.69827  Biso   1.000  O
  O129     1.0000 0.71553  0.41627  0.42487  Biso   1.000  O
  O130     1.0000 0.59513  0.43967  0.63597  Biso   1.000  O
  O131     1.0000 0.81173  0.45127  0.48247  Biso   1.000  O
  O132     1.0000 0.79583  0.32377  0.69787  Biso   1.000  O
  O133     1.0000 0.71653  0.41497  0.75717  Biso   1.000  O
  O134     1.0000 0.92773  0.54957  0.52517  Biso   1.000  O
  O135     1.0000 0.67693  0.47297  0.48217  Biso   1.000  O
  C33      1.0000 0.95073  0.35847  0.41527  Biso   1.000  C
  H33      1.0000 0.93323  0.30917  0.41667  Biso   1.000  H
  C34      1.0000 0.98733  0.45777  0.37957  Biso   1.000  C
  H34      1.0000 0.99863  0.48197  0.35577  Biso   1.000  H
  C35      1.0000 0.96163  0.39517  0.44887  Biso   1.000  C
  H35      1.0000 0.95433  0.37117  0.47257  Biso   1.000  H
  C36      1.0000 0.99603  0.49507  0.41367  Biso   1.000  C
  H36      1.0000 0.01193  0.54407  0.41197  Biso   1.000  H
  W55      1.0000 0.73113  0.29337  0.93204  Biso   1.000  W
  W56      1.0000 0.51820  0.15774  0.02175  Biso   1.000  W
  W57      1.0000 0.72878  0.29122  0.22041  Biso   1.000  W
  W58      1.0000 0.51871  0.15721  0.13167  Biso   1.000  W
  W59      1.0000 0.68362  0.17853  0.02031  Biso   1.000  W
  W60      1.0000 0.68447  0.17939  0.13066  Biso   1.000  W
  N19      1.0000 0.90780  0.27770  0.28650  Biso   1.000  N
  N20      1.0000 0.85120  0.20180  0.21760  Biso   1.000  N
  O136     1.0000 0.52270  0.14680  0.07610  Biso   1.000  O
  O137     1.0000 0.58130  0.12040  0.01310  Biso   1.000  O
  O138     1.0000 0.58340  0.12150  0.13870  Biso   1.000  O
  O139     1.0000 0.48950  0.22610  0.12130  Biso   1.000  O
  O140     1.0000 0.63570  0.25420  0.12130  Biso   1.000  O
  O141     1.0000 0.67190  0.16520  0.07600  Biso   1.000  O
  O142     1.0000 0.63530  0.25490  0.03100  Biso   1.000  O
  O143     1.0000 0.69320  0.21440  0.96840  Biso   1.000  O
  O144     1.0000 0.63260  0.25040  0.24180  Biso   1.000  O
  O145     1.0000 0.48880  0.22700  0.03070  Biso   1.000  O
  O146     1.0000 0.69380  0.21540  0.18420  Biso   1.000  O
  O147     1.0000 0.80540  0.34290  0.96880  Biso   1.000  O
  O148     1.0000 0.63490  0.25170  0.90950  Biso   1.000  O
  O149     1.0000 0.71150  0.11710  0.14150  Biso   1.000  O
  O150     1.0000 0.53730  0.19370  0.18450  Biso   1.000  O
  C37      1.0000 0.92560  0.30820  0.25140  Biso   1.000  C
  H37      1.0000 0.95740  0.35750  0.25000  Biso   1.000  H
  C38      1.0000 0.86290  0.20890  0.28710  Biso   1.000  C
  H38      1.0000 0.85000  0.18470  0.31090  Biso   1.000  H
  C39      1.0000 0.89980  0.27150  0.21780  Biso   1.000  C
  H39      1.0000 0.91650  0.29550  0.19410  Biso   1.000  H
  C40      1.0000 0.83430  0.17160  0.25300  Biso   1.000  C
  H40      1.0000 0.80120  0.12260  0.25470  Biso   1.000  H
  W61      1.0000 0.39780  0.62670  0.26537  Biso   1.000  W
  W62      1.0000 0.18487  0.49107  0.35508  Biso   1.000  W
  W63      1.0000 0.39545  0.62455  0.55374  Biso   1.000  W
  W64      1.0000 0.18538  0.49054  0.46500  Biso   1.000  W
  W65      1.0000 0.35029  0.51186  0.35364  Biso   1.000  W
  W66      1.0000 0.35114  0.51272  0.46399  Biso   1.000  W
  N21      1.0000 0.57447  0.61103  0.61983  Biso   1.000  N
  N22      1.0000 0.51787  0.53513  0.55093  Biso   1.000  N
  O151     1.0000 0.18937  0.48013  0.40943  Biso   1.000  O
  O152     1.0000 0.24797  0.45373  0.34643  Biso   1.000  O
  O153     1.0000 0.25007  0.45483  0.47203  Biso   1.000  O
  O154     1.0000 0.15617  0.55943  0.45463  Biso   1.000  O
  O155     1.0000 0.30237  0.58753  0.45463  Biso   1.000  O
  O156     1.0000 0.33857  0.49853  0.40933  Biso   1.000  O
  O157     1.0000 0.30197  0.58823  0.36433  Biso   1.000  O
  O158     1.0000 0.35987  0.54773  0.30173  Biso   1.000  O
  O159     1.0000 0.29927  0.58373  0.57513  Biso   1.000  O
  O160     1.0000 0.15547  0.56033  0.36403  Biso   1.000  O
  O161     1.0000 0.36047  0.54873  0.51753  Biso   1.000  O
  O162     1.0000 0.47207  0.67623  0.30213  Biso   1.000  O
  O163     1.0000 0.30157  0.58503  0.24283  Biso   1.000  O
  O164     1.0000 0.37817  0.45043  0.47483  Biso   1.000  O
  O165     1.0000 0.20397  0.52703  0.51783  Biso   1.000  O
  C41      1.0000 0.59227  0.64153  0.58473  Biso   1.000  C
  H41      1.0000 0.62407  0.69083  0.58333  Biso   1.000  H
  C42      1.0000 0.52957  0.54223  0.62043  Biso   1.000  C
  H42      1.0000 0.51667  0.51803  0.64423  Biso   1.000  H
  C43      1.0000 0.56647  0.60483  0.55113  Biso   1.000  C
  H43      1.0000 0.58317  0.62883  0.52743  Biso   1.000  H
  C44      1.0000 0.50097  0.50493  0.58633  Biso   1.000  C
  H44      1.0000 0.46787  0.45593  0.58803  Biso   1.000  H
  W67      1.0000 0.06446  0.96004  0.59871  Biso   1.000  W
  W68      1.0000 0.85153  0.82441  0.68842  Biso   1.000  W
  W69      1.0000 0.06211  0.95789  0.88708  Biso   1.000  W
  W70      1.0000 0.85204  0.82388  0.79834  Biso   1.000  W
  W71      1.0000 0.01695  0.84520  0.68698  Biso   1.000  W
  W72      1.0000 0.01780  0.84606  0.79733  Biso   1.000  W
  N23      1.0000 0.24113  0.94437  0.95317  Biso   1.000  N
  N24      1.0000 0.18453  0.86847  0.88427  Biso   1.000  N
  O166     1.0000 0.85603  0.81347  0.74277  Biso   1.000  O
  O167     1.0000 0.91463  0.78707  0.67977  Biso   1.000  O
  O168     1.0000 0.91673  0.78817  0.80537  Biso   1.000  O
  O169     1.0000 0.82283  0.89277  0.78797  Biso   1.000  O
  O170     1.0000 0.96903  0.92087  0.78797  Biso   1.000  O
  O171     1.0000 0.00523  0.83187  0.74267  Biso   1.000  O
  O172     1.0000 0.96863  0.92157  0.69767  Biso   1.000  O
  O173     1.0000 0.02653  0.88107  0.63507  Biso   1.000  O
  O174     1.0000 0.96593  0.91707  0.90847  Biso   1.000  O
  O175     1.0000 0.82213  0.89367  0.69737  Biso   1.000  O
  O176     1.0000 0.02713  0.88207  0.85087  Biso   1.000  O
  O177     1.0000 0.13873  0.00957  0.63547  Biso   1.000  O
  O178     1.0000 0.96823  0.91837  0.57617  Biso   1.000  O
  O179     1.0000 0.04483  0.78377  0.80817  Biso   1.000  O
  O180     1.0000 0.87063  0.86037  0.85117  Biso   1.000  O
  C45      1.0000 0.25893  0.97487  0.91807  Biso   1.000  C
  H45      1.0000 0.29073  0.02417  0.91667  Biso   1.000  H
  C46      1.0000 0.19623  0.87557  0.95377  Biso   1.000  C
  H46      1.0000 0.18333  0.85137  0.97757  Biso   1.000  H
  C47      1.0000 0.23313  0.93817  0.88447  Biso   1.000  C
  H47      1.0000 0.24983  0.96217  0.86077  Biso   1.000  H
  C48      1.0000 0.16763  0.83827  0.91967  Biso   1.000  C
  H48      1.0000 0.13453  0.78927  0.92137  Biso   1.000  H
  W73      1.0000 0.56224  0.26887  0.93204  Biso   1.000  W
  W74      1.0000 0.63954  0.48180  0.02175  Biso   1.000  W
  W75      1.0000 0.56244  0.27122  0.22041  Biso   1.000  W
  W76      1.0000 0.63850  0.48129  0.13167  Biso   1.000  W
  W77      1.0000 0.49491  0.31638  0.02031  Biso   1.000  W
  W78      1.0000 0.49492  0.31553  0.13066  Biso   1.000  W
  N25      1.0000 0.36990  0.09220  0.28650  Biso   1.000  N
  N26      1.0000 0.35060  0.14880  0.21760  Biso   1.000  N
  O181     1.0000 0.62410  0.47730  0.07610  Biso   1.000  O
  O182     1.0000 0.53910  0.41870  0.01310  Biso   1.000  O
  O183     1.0000 0.53810  0.41660  0.13870  Biso   1.000  O
  O184     1.0000 0.73660  0.51050  0.12130  Biso   1.000  O
  O185     1.0000 0.61850  0.36430  0.12130  Biso   1.000  O
  O186     1.0000 0.49330  0.32810  0.07600  Biso   1.000  O
  O187     1.0000 0.61960  0.36470  0.03100  Biso   1.000  O
  O188     1.0000 0.52120  0.30680  0.96840  Biso   1.000  O
  O189     1.0000 0.61780  0.36740  0.24180  Biso   1.000  O
  O190     1.0000 0.73820  0.51120  0.03070  Biso   1.000  O
  O191     1.0000 0.52160  0.30620  0.18420  Biso   1.000  O
  O192     1.0000 0.53750  0.19460  0.96880  Biso   1.000  O
  O193     1.0000 0.61680  0.36510  0.90950  Biso   1.000  O
  O194     1.0000 0.40560  0.28850  0.14150  Biso   1.000  O
  O195     1.0000 0.65640  0.46270  0.18450  Biso   1.000  O
  C49      1.0000 0.38260  0.07440  0.25140  Biso   1.000  C
  H49      1.0000 0.40010  0.04260  0.25000  Biso   1.000  H
  C50      1.0000 0.34600  0.13710  0.28710  Biso   1.000  C
  H50      1.0000 0.33470  0.15000  0.31090  Biso   1.000  H
  C51      1.0000 0.37170  0.10020  0.21780  Biso   1.000  C
  H51      1.0000 0.37900  0.08350  0.19410  Biso   1.000  H
  C52      1.0000 0.33730  0.16570  0.25300  Biso   1.000  C
  H52      1.0000 0.32140  0.19880  0.25470  Biso   1.000  H
  W79      1.0000 0.22891  0.60220  0.26537  Biso   1.000  W
  W80      1.0000 0.30621  0.81513  0.35508  Biso   1.000  W
  W81      1.0000 0.22911  0.60455  0.55374  Biso   1.000  W
  W82      1.0000 0.30517  0.81462  0.46500  Biso   1.000  W
  W83      1.0000 0.16158  0.64971  0.35364  Biso   1.000  W
  W84      1.0000 0.16159  0.64886  0.46399  Biso   1.000  W
  N27      1.0000 0.03657  0.42553  0.61983  Biso   1.000  N
  N28      1.0000 0.01727  0.48213  0.55093  Biso   1.000  N
  O196     1.0000 0.29077  0.81063  0.40943  Biso   1.000  O
  O197     1.0000 0.20577  0.75203  0.34643  Biso   1.000  O
  O198     1.0000 0.20477  0.74993  0.47203  Biso   1.000  O
  O199     1.0000 0.40327  0.84383  0.45463  Biso   1.000  O
  O200     1.0000 0.28517  0.69763  0.45463  Biso   1.000  O
  O201     1.0000 0.15997  0.66143  0.40933  Biso   1.000  O
  O202     1.0000 0.28627  0.69803  0.36433  Biso   1.000  O
  O203     1.0000 0.18787  0.64013  0.30173  Biso   1.000  O
  O204     1.0000 0.28447  0.70073  0.57513  Biso   1.000  O
  O205     1.0000 0.40487  0.84453  0.36403  Biso   1.000  O
  O206     1.0000 0.18827  0.63953  0.51753  Biso   1.000  O
  O207     1.0000 0.20417  0.52793  0.30213  Biso   1.000  O
  O208     1.0000 0.28347  0.69843  0.24283  Biso   1.000  O
  O209     1.0000 0.07227  0.62183  0.47483  Biso   1.000  O
  O210     1.0000 0.32307  0.79603  0.51783  Biso   1.000  O
  C53      1.0000 0.04927  0.40773  0.58473  Biso   1.000  C
  H53      1.0000 0.06677  0.37593  0.58333  Biso   1.000  H
  C54      1.0000 0.01267  0.47043  0.62043  Biso   1.000  C
  H54      1.0000 0.00137  0.48333  0.64423  Biso   1.000  H
  C55      1.0000 0.03837  0.43353  0.55113  Biso   1.000  C
  H55      1.0000 0.04567  0.41683  0.52743  Biso   1.000  H
  C56      1.0000 0.00397  0.49903  0.58633  Biso   1.000  C
  H56      1.0000 0.98807  0.53213  0.58803  Biso   1.000  H
  W85      1.0000 0.89557  0.93554  0.59871  Biso   1.000  W
  W86      1.0000 0.97287  0.14847  0.68842  Biso   1.000  W
  W87      1.0000 0.89577  0.93789  0.88708  Biso   1.000  W
  W88      1.0000 0.97183  0.14796  0.79834  Biso   1.000  W
  W89      1.0000 0.82824  0.98305  0.68698  Biso   1.000  W
  W90      1.0000 0.82825  0.98220  0.79733  Biso   1.000  W
  N29      1.0000 0.70323  0.75887  0.95317  Biso   1.000  N
  N30      1.0000 0.68393  0.81547  0.88427  Biso   1.000  N
  O211     1.0000 0.95743  0.14397  0.74277  Biso   1.000  O
  O212     1.0000 0.87243  0.08537  0.67977  Biso   1.000  O
  O213     1.0000 0.87143  0.08327  0.80537  Biso   1.000  O
  O214     1.0000 0.06993  0.17717  0.78797  Biso   1.000  O
  O215     1.0000 0.95183  0.03097  0.78797  Biso   1.000  O
  O216     1.0000 0.82663  0.99477  0.74267  Biso   1.000  O
  O217     1.0000 0.95293  0.03137  0.69767  Biso   1.000  O
  O218     1.0000 0.85453  0.97347  0.63507  Biso   1.000  O
  O219     1.0000 0.95113  0.03407  0.90847  Biso   1.000  O
  O220     1.0000 0.07153  0.17787  0.69737  Biso   1.000  O
  O221     1.0000 0.85493  0.97287  0.85087  Biso   1.000  O
  O222     1.0000 0.87083  0.86127  0.63547  Biso   1.000  O
  O223     1.0000 0.95013  0.03177  0.57617  Biso   1.000  O
  O224     1.0000 0.73893  0.95517  0.80817  Biso   1.000  O
  O225     1.0000 0.98973  0.12937  0.85117  Biso   1.000  O
  C57      1.0000 0.71593  0.74107  0.91807  Biso   1.000  C
  H57      1.0000 0.73343  0.70927  0.91667  Biso   1.000  H
  C58      1.0000 0.67933  0.80377  0.95377  Biso   1.000  C
  H58      1.0000 0.66803  0.81667  0.97757  Biso   1.000  H
  C59      1.0000 0.70503  0.76687  0.88447  Biso   1.000  C
  H59      1.0000 0.71233  0.75017  0.86077  Biso   1.000  H
  C60      1.0000 0.67063  0.83237  0.91967  Biso   1.000  C
  H60      1.0000 0.65473  0.86547  0.92137  Biso   1.000  H
  W91      1.0000 0.70663  0.43776  0.93204  Biso   1.000  W
  W92      1.0000 0.84226  0.36046  0.02175  Biso   1.000  W
  W93      1.0000 0.70878  0.43756  0.22041  Biso   1.000  W
  W94      1.0000 0.84279  0.36150  0.13167  Biso   1.000  W
  W95      1.0000 0.82147  0.50509  0.02031  Biso   1.000  W
  W96      1.0000 0.82061  0.50508  0.13066  Biso   1.000  W
  N31      1.0000 0.72230  0.63010  0.28650  Biso   1.000  N
  N32      1.0000 0.79820  0.64940  0.21760  Biso   1.000  N
  O226     1.0000 0.85320  0.37590  0.07610  Biso   1.000  O
  O227     1.0000 0.87960  0.46090  0.01310  Biso   1.000  O
  O228     1.0000 0.87850  0.46190  0.13870  Biso   1.000  O
  O229     1.0000 0.77390  0.26340  0.12130  Biso   1.000  O
  O230     1.0000 0.74580  0.38150  0.12130  Biso   1.000  O
  O231     1.0000 0.83480  0.50670  0.07600  Biso   1.000  O
  O232     1.0000 0.74510  0.38040  0.03100  Biso   1.000  O
  O233     1.0000 0.78560  0.47880  0.96840  Biso   1.000  O
  O234     1.0000 0.74960  0.38220  0.24180  Biso   1.000  O
  O235     1.0000 0.77300  0.26180  0.03070  Biso   1.000  O
  O236     1.0000 0.78460  0.47840  0.18420  Biso   1.000  O
  O237     1.0000 0.65710  0.46250  0.96880  Biso   1.000  O
  O238     1.0000 0.74830  0.38320  0.90950  Biso   1.000  O
  O239     1.0000 0.88290  0.59440  0.14150  Biso   1.000  O
  O240     1.0000 0.80630  0.34360  0.18450  Biso   1.000  O
  C61      1.0000 0.69180  0.61740  0.25140  Biso   1.000  C
  H61      1.0000 0.64250  0.59990  0.25000  Biso   1.000  H
  C62      1.0000 0.79110  0.65400  0.28710  Biso   1.000  C
  H62      1.0000 0.81530  0.66530  0.31090  Biso   1.000  H
  C63      1.0000 0.72850  0.62830  0.21780  Biso   1.000  C
  H63      1.0000 0.70450  0.62100  0.19410  Biso   1.000  H
  C64      1.0000 0.82840  0.66270  0.25300  Biso   1.000  C
  H64      1.0000 0.87740  0.67860  0.25470  Biso   1.000  H
  W97      1.0000 0.37330  0.77109  0.26537  Biso   1.000  W
  W98      1.0000 0.50893  0.69379  0.35508  Biso   1.000  W
  W99      1.0000 0.37545  0.77089  0.55374  Biso   1.000  W
  W100     1.0000 0.50946  0.69483  0.46500  Biso   1.000  W
  W101     1.0000 0.48814  0.83842  0.35364  Biso   1.000  W
  W102     1.0000 0.48728  0.83841  0.46399  Biso   1.000  W
  N33      1.0000 0.38897  0.96343  0.61983  Biso   1.000  N
  N34      1.0000 0.46487  0.98273  0.55093  Biso   1.000  N
  O241     1.0000 0.51987  0.70923  0.40943  Biso   1.000  O
  O242     1.0000 0.54627  0.79423  0.34643  Biso   1.000  O
  O243     1.0000 0.54517  0.79523  0.47203  Biso   1.000  O
  O244     1.0000 0.44057  0.59673  0.45463  Biso   1.000  O
  O245     1.0000 0.41247  0.71483  0.45463  Biso   1.000  O
  O246     1.0000 0.50147  0.84003  0.40933  Biso   1.000  O
  O247     1.0000 0.41177  0.71373  0.36433  Biso   1.000  O
  O248     1.0000 0.45227  0.81213  0.30173  Biso   1.000  O
  O249     1.0000 0.41627  0.71553  0.57513  Biso   1.000  O
  O250     1.0000 0.43967  0.59513  0.36403  Biso   1.000  O
  O251     1.0000 0.45127  0.81173  0.51753  Biso   1.000  O
  O252     1.0000 0.32377  0.79583  0.30213  Biso   1.000  O
  O253     1.0000 0.41497  0.71653  0.24283  Biso   1.000  O
  O254     1.0000 0.54957  0.92773  0.47483  Biso   1.000  O
  O255     1.0000 0.47297  0.67693  0.51783  Biso   1.000  O
  C65      1.0000 0.35847  0.95073  0.58473  Biso   1.000  C
  H65      1.0000 0.30917  0.93323  0.58333  Biso   1.000  H
  C66      1.0000 0.45777  0.98733  0.62043  Biso   1.000  C
  H66      1.0000 0.48197  0.99863  0.64423  Biso   1.000  H
  C67      1.0000 0.39517  0.96163  0.55113  Biso   1.000  C
  H67      1.0000 0.37117  0.95433  0.52743  Biso   1.000  H
  C68      1.0000 0.49507  0.99603  0.58633  Biso   1.000  C
  H68      1.0000 0.54407  0.01193  0.58803  Biso   1.000  H
  W103     1.0000 0.03996  0.10443  0.59871  Biso   1.000  W
  W104     1.0000 0.17559  0.02713  0.68842  Biso   1.000  W
  W105     1.0000 0.04211  0.10423  0.88708  Biso   1.000  W
  W106     1.0000 0.17612  0.02817  0.79834  Biso   1.000  W
  W107     1.0000 0.15480  0.17176  0.68698  Biso   1.000  W
  W108     1.0000 0.15394  0.17175  0.79733  Biso   1.000  W
  N35      1.0000 0.05563  0.29677  0.95317  Biso   1.000  N
  N36      1.0000 0.13153  0.31607  0.88427  Biso   1.000  N
  O256     1.0000 0.18653  0.04257  0.74277  Biso   1.000  O
  O257     1.0000 0.21293  0.12757  0.67977  Biso   1.000  O
  O258     1.0000 0.21183  0.12857  0.80537  Biso   1.000  O
  O259     1.0000 0.10723  0.93007  0.78797  Biso   1.000  O
  O260     1.0000 0.07913  0.04817  0.78797  Biso   1.000  O
  O261     1.0000 0.16813  0.17337  0.74267  Biso   1.000  O
  O262     1.0000 0.07843  0.04707  0.69767  Biso   1.000  O
  O263     1.0000 0.11893  0.14547  0.63507  Biso   1.000  O
  O264     1.0000 0.08293  0.04887  0.90847  Biso   1.000  O
  O265     1.0000 0.10633  0.92847  0.69737  Biso   1.000  O
  O266     1.0000 0.11793  0.14507  0.85087  Biso   1.000  O
  O267     1.0000 0.99043  0.12917  0.63547  Biso   1.000  O
  O268     1.0000 0.08163  0.04987  0.57617  Biso   1.000  O
  O269     1.0000 0.21623  0.26107  0.80817  Biso   1.000  O
  O270     1.0000 0.13963  0.01027  0.85117  Biso   1.000  O
  C69      1.0000 0.02513  0.28407  0.91807  Biso   1.000  C
  H69      1.0000 0.97583  0.26657  0.91667  Biso   1.000  H
  C70      1.0000 0.12443  0.32067  0.95377  Biso   1.000  C
  H70      1.0000 0.14863  0.33197  0.97757  Biso   1.000  H
  C71      1.0000 0.06183  0.29497  0.88447  Biso   1.000  C
  H71      1.0000 0.03783  0.28767  0.86077  Biso   1.000  H
  C72      1.0000 0.16173  0.32937  0.91967  Biso   1.000  C
  H72      1.0000 0.21073  0.34527  0.92137  Biso   1.000  H
  Cu1      1.0000 0.33333  0.94162  0.66667  Biso   1.000  Cu
  Cu2      1.0000 0.00000  0.27495  0.00000  Biso   1.000  Cu
  Cu3      1.0000 0.05838  0.39172  0.66667  Biso   1.000  Cu
  Cu4      1.0000 0.72505  0.72505  0.00000  Biso   1.000  Cu
  Cu5      1.0000 0.60828  0.66667  0.66667  Biso   1.000  Cu
  Cu6      1.0000 0.27495  0.00000  0.00000  Biso   1.000  Cu
  Cu7      1.0000 0.94162  0.33333  0.33333  Biso   1.000  Cu
  Cu8      1.0000 0.39172  0.05838  0.33333  Biso   1.000  Cu
  Cu9      1.0000 0.66667  0.60828  0.33333  Biso   1.000  Cu
  Cu10     1.0000 0.15019  0.81686  0.83333  Biso   1.000  Cu
  Cu11     1.0000 0.18314  0.33333  0.83333  Biso   1.000  Cu
  Cu12     1.0000 0.66667  0.84981  0.83333  Biso   1.000  Cu
  Cu13     1.0000 0.81686  0.15019  0.16667  Biso   1.000  Cu
  Cu14     1.0000 0.48353  0.48353  0.50000  Biso   1.000  Cu
  Cu15     1.0000 0.33333  0.18314  0.16667  Biso   1.000  Cu
  Cu16     1.0000 0.00000  0.51647  0.50000  Biso   1.000  Cu
  Cu17     1.0000 0.84981  0.66667  0.16667  Biso   1.000  Cu
  Cu18     1.0000 0.51647  0.00000  0.50000  Biso   1.000  Cu
  P1       1.0000 0.33333  0.66667  0.98228  Biso   1.000  P
  P2       1.0000 0.33333  0.66667  0.86552  Biso   1.000  P
  O271     1.0000 0.33333  0.66667  0.02820  Biso   1.000  O
  O272     1.0000 0.33333  0.66667  0.81970  Biso   1.000  O
  P3       1.0000 0.00000  0.00000  0.31561  Biso   1.000  P
  P4       1.0000 0.00000  0.00000  0.19885  Biso   1.000  P
  O273     1.0000 0.00000  0.00000  0.36153  Biso   1.000  O
  O274     1.0000 0.00000  0.00000  0.15303  Biso   1.000  O
  P5       1.0000 0.66667  0.33333  0.64895  Biso   1.000  P
  P6       1.0000 0.66667  0.33333  0.53219  Biso   1.000  P
  O275     1.0000 0.66667  0.33333  0.69487  Biso   1.000  O
  O276     1.0000 0.66667  0.33333  0.48637  Biso   1.000  O
  P7       1.0000 0.66667  0.33333  0.01772  Biso   1.000  P
  P8       1.0000 0.66667  0.33333  0.13448  Biso   1.000  P
  O277     1.0000 0.66667  0.33333  0.97180  Biso   1.000  O
  O278     1.0000 0.66667  0.33333  0.18030  Biso   1.000  O
  P9       1.0000 0.33333  0.66667  0.35105  Biso   1.000  P
  P10      1.0000 0.33333  0.66667  0.46781  Biso   1.000  P
  O279     1.0000 0.33333  0.66667  0.30513  Biso   1.000  O
  O280     1.0000 0.33333  0.66667  0.51363  Biso   1.000  O
  P11      1.0000 0.00000  0.00000  0.68439  Biso   1.000  P
  P12      1.0000 0.00000  0.00000  0.80115  Biso   1.000  P
  O281     1.0000 0.00000  0.00000  0.63847  Biso   1.000  O
  O282     1.0000 0.00000  0.00000  0.84697  Biso   1.000  O
