data_image0
_cell_length_a       11.091
_cell_length_b       11.091
_cell_length_c       19.364
_cell_angle_alpha    90
_cell_angle_beta     90
_cell_angle_gamma    120

_symmetry_space_group_name_H-M    "P 1"
_symmetry_int_tables_number       1

loop_
  _symmetry_equiv_pos_as_xyz
  'x, y, z'

loop_
  _atom_site_label
  _atom_site_occupancy
  _atom_site_fract_x
  _atom_site_fract_y
  _atom_site_fract_z
  _atom_site_thermal_displace_type
  _atom_site_B_iso_or_equiv
  _atom_site_type_symbol
  O1       1.0000 0.65180  0.55040  0.17280  Biso   1.000  O
  C1       1.0000 0.61400  0.59700  0.03550  Biso   1.000  C
  O2       1.0000 0.72300  0.71600  0.06920  Biso   1.000  O
  H1       1.0000 0.71700  0.70290  0.11110  Biso   1.000  H
  O3       1.0000 0.44960  0.10140  0.17280  Biso   1.000  O
  C2       1.0000 0.40300  0.01700  0.03550  Biso   1.000  C
  O4       1.0000 0.28400  0.00700  0.06920  Biso   1.000  O
  H2       1.0000 0.29710  0.01410  0.11110  Biso   1.000  H
  O5       1.0000 0.89860  0.34820  0.17280  Biso   1.000  O
  C3       1.0000 0.98300  0.38600  0.03550  Biso   1.000  C
  O6       1.0000 0.99300  0.27700  0.06920  Biso   1.000  O
  H3       1.0000 0.98590  0.28300  0.11110  Biso   1.000  H
  O7       1.0000 0.34820  0.44960  0.67280  Biso   1.000  O
  C4       1.0000 0.38600  0.40300  0.53550  Biso   1.000  C
  O8       1.0000 0.27700  0.28400  0.56920  Biso   1.000  O
  H4       1.0000 0.28300  0.29710  0.61110  Biso   1.000  H
  O9       1.0000 0.55040  0.89860  0.67280  Biso   1.000  O
  C5       1.0000 0.59700  0.98300  0.53550  Biso   1.000  C
  O10      1.0000 0.71600  0.99300  0.56920  Biso   1.000  O
  H5       1.0000 0.70290  0.98590  0.61110  Biso   1.000  H
  O11      1.0000 0.10140  0.65180  0.67280  Biso   1.000  O
  C6       1.0000 0.01700  0.61400  0.53550  Biso   1.000  C
  O12      1.0000 0.00700  0.72300  0.56920  Biso   1.000  O
  H6       1.0000 0.01410  0.71700  0.61110  Biso   1.000  H
  O13      1.0000 0.55040  0.65180  0.82720  Biso   1.000  O
  C7       1.0000 0.59700  0.61400  0.96450  Biso   1.000  C
  O14      1.0000 0.71600  0.72300  0.93080  Biso   1.000  O
  H7       1.0000 0.70290  0.71700  0.88890  Biso   1.000  H
  O15      1.0000 0.10140  0.44960  0.82720  Biso   1.000  O
  C8       1.0000 0.01700  0.40300  0.96450  Biso   1.000  C
  O16      1.0000 0.00700  0.28400  0.93080  Biso   1.000  O
  H8       1.0000 0.01410  0.29710  0.88890  Biso   1.000  H
  O17      1.0000 0.34820  0.89860  0.82720  Biso   1.000  O
  C9       1.0000 0.38600  0.98300  0.96450  Biso   1.000  C
  O18      1.0000 0.27700  0.99300  0.93080  Biso   1.000  O
  H9       1.0000 0.28300  0.98590  0.88890  Biso   1.000  H
  O19      1.0000 0.44960  0.34820  0.32720  Biso   1.000  O
  C10      1.0000 0.40300  0.38600  0.46450  Biso   1.000  C
  O20      1.0000 0.28400  0.27700  0.43080  Biso   1.000  O
  H10      1.0000 0.29710  0.28300  0.38890  Biso   1.000  H
  O21      1.0000 0.89860  0.55040  0.32720  Biso   1.000  O
  C11      1.0000 0.98300  0.59700  0.46450  Biso   1.000  C
  O22      1.0000 0.99300  0.71600  0.43080  Biso   1.000  O
  H11      1.0000 0.98590  0.70290  0.38890  Biso   1.000  H
  O23      1.0000 0.65180  0.10140  0.32720  Biso   1.000  O
  C12      1.0000 0.61400  0.01700  0.46450  Biso   1.000  C
  O24      1.0000 0.72300  0.00700  0.43080  Biso   1.000  O
  H12      1.0000 0.71700  0.01410  0.38890  Biso   1.000  H
  O25      1.0000 0.34820  0.44960  0.82720  Biso   1.000  O
  C13      1.0000 0.38600  0.40300  0.96450  Biso   1.000  C
  O26      1.0000 0.27700  0.28400  0.93080  Biso   1.000  O
  H13      1.0000 0.28300  0.29710  0.88890  Biso   1.000  H
  O27      1.0000 0.55040  0.89860  0.82720  Biso   1.000  O
  C14      1.0000 0.59700  0.98300  0.96450  Biso   1.000  C
  O28      1.0000 0.71600  0.99300  0.93080  Biso   1.000  O
  H14      1.0000 0.70290  0.98590  0.88890  Biso   1.000  H
  O29      1.0000 0.10140  0.65180  0.82720  Biso   1.000  O
  C15      1.0000 0.01700  0.61400  0.96450  Biso   1.000  C
  O30      1.0000 0.00700  0.72300  0.93080  Biso   1.000  O
  H15      1.0000 0.01410  0.71700  0.88890  Biso   1.000  H
  O31      1.0000 0.65180  0.55040  0.32720  Biso   1.000  O
  C16      1.0000 0.61400  0.59700  0.46450  Biso   1.000  C
  O32      1.0000 0.72300  0.71600  0.43080  Biso   1.000  O
  H16      1.0000 0.71700  0.70290  0.38890  Biso   1.000  H
  O33      1.0000 0.44960  0.10140  0.32720  Biso   1.000  O
  C17      1.0000 0.40300  0.01700  0.46450  Biso   1.000  C
  O34      1.0000 0.28400  0.00700  0.43080  Biso   1.000  O
  H17      1.0000 0.29710  0.01410  0.38890  Biso   1.000  H
  O35      1.0000 0.89860  0.34820  0.32720  Biso   1.000  O
  C18      1.0000 0.98300  0.38600  0.46450  Biso   1.000  C
  O36      1.0000 0.99300  0.27700  0.43080  Biso   1.000  O
  H18      1.0000 0.98590  0.28300  0.38890  Biso   1.000  H
  O37      1.0000 0.44960  0.34820  0.17280  Biso   1.000  O
  C19      1.0000 0.40300  0.38600  0.03550  Biso   1.000  C
  O38      1.0000 0.28400  0.27700  0.06920  Biso   1.000  O
  H19      1.0000 0.29710  0.28300  0.11110  Biso   1.000  H
  O39      1.0000 0.89860  0.55040  0.17280  Biso   1.000  O
  C20      1.0000 0.98300  0.59700  0.03550  Biso   1.000  C
  O40      1.0000 0.99300  0.71600  0.06920  Biso   1.000  O
  H20      1.0000 0.98590  0.70290  0.11110  Biso   1.000  H
  O41      1.0000 0.65180  0.10140  0.17280  Biso   1.000  O
  C21      1.0000 0.61400  0.01700  0.03550  Biso   1.000  C
  O42      1.0000 0.72300  0.00700  0.06920  Biso   1.000  O
  H21      1.0000 0.71700  0.01410  0.11110  Biso   1.000  H
  O43      1.0000 0.55040  0.65180  0.67280  Biso   1.000  O
  C22      1.0000 0.59700  0.61400  0.53550  Biso   1.000  C
  O44      1.0000 0.71600  0.72300  0.56920  Biso   1.000  O
  H22      1.0000 0.70290  0.71700  0.61110  Biso   1.000  H
  O45      1.0000 0.10140  0.44960  0.67280  Biso   1.000  O
  C23      1.0000 0.01700  0.40300  0.53550  Biso   1.000  C
  O46      1.0000 0.00700  0.28400  0.56920  Biso   1.000  O
  H23      1.0000 0.01410  0.29710  0.61110  Biso   1.000  H
  O47      1.0000 0.34820  0.89860  0.67280  Biso   1.000  O
  C24      1.0000 0.38600  0.98300  0.53550  Biso   1.000  C
  O48      1.0000 0.27700  0.99300  0.56920  Biso   1.000  O
  H24      1.0000 0.28300  0.98590  0.61110  Biso   1.000  H
  Fe1      1.0000 0.76655  0.53310  0.25000  Biso   1.000  Fe
  Fe2      1.0000 0.46690  0.23345  0.25000  Biso   1.000  Fe
  Fe3      1.0000 0.76655  0.23345  0.25000  Biso   1.000  Fe
  Fe4      1.0000 0.23345  0.46690  0.75000  Biso   1.000  Fe
  Fe5      1.0000 0.53310  0.76655  0.75000  Biso   1.000  Fe
  Fe6      1.0000 0.23345  0.76655  0.75000  Biso   1.000  Fe
  O49      1.0000 0.66667  0.33333  0.25000  Biso   1.000  O
  O50      1.0000 0.33333  0.66667  0.75000  Biso   1.000  O
  C25      1.0000 0.54280  0.45720  0.14370  Biso   1.000  C
  C26      1.0000 0.52160  0.47840  0.06970  Biso   1.000  C
  C27      1.0000 0.54280  0.08560  0.14370  Biso   1.000  C
  C28      1.0000 0.52160  0.04320  0.06970  Biso   1.000  C
  C29      1.0000 0.91440  0.45720  0.14370  Biso   1.000  C
  C30      1.0000 0.95680  0.47840  0.06970  Biso   1.000  C
  C31      1.0000 0.45720  0.54280  0.64370  Biso   1.000  C
  C32      1.0000 0.47840  0.52160  0.56970  Biso   1.000  C
  C33      1.0000 0.45720  0.91440  0.64370  Biso   1.000  C
  C34      1.0000 0.47840  0.95680  0.56970  Biso   1.000  C
  C35      1.0000 0.08560  0.54280  0.64370  Biso   1.000  C
  C36      1.0000 0.04320  0.52160  0.56970  Biso   1.000  C
  C37      1.0000 0.45720  0.54280  0.85630  Biso   1.000  C
  C38      1.0000 0.47840  0.52160  0.93030  Biso   1.000  C
  C39      1.0000 0.08560  0.54280  0.85630  Biso   1.000  C
  C40      1.0000 0.04320  0.52160  0.93030  Biso   1.000  C
  C41      1.0000 0.45720  0.91440  0.85630  Biso   1.000  C
  C42      1.0000 0.47840  0.95680  0.93030  Biso   1.000  C
  C43      1.0000 0.54280  0.45720  0.35630  Biso   1.000  C
  C44      1.0000 0.52160  0.47840  0.43030  Biso   1.000  C
  C45      1.0000 0.91440  0.45720  0.35630  Biso   1.000  C
  C46      1.0000 0.95680  0.47840  0.43030  Biso   1.000  C
  C47      1.0000 0.54280  0.08560  0.35630  Biso   1.000  C
  C48      1.0000 0.52160  0.04320  0.43030  Biso   1.000  C
