data_image0
_cell_length_a       12.236
_cell_length_b       27.179
_cell_length_c       12.467
_cell_angle_alpha    90
_cell_angle_beta     109.754
_cell_angle_gamma    90

_symmetry_space_group_name_H-M    "P 1"
_symmetry_int_tables_number       1

loop_
  _symmetry_equiv_pos_as_xyz
  'x, y, z'

loop_
  _atom_site_label
  _atom_site_occupancy
  _atom_site_fract_x
  _atom_site_fract_y
  _atom_site_fract_z
  _atom_site_thermal_displace_type
  _atom_site_B_iso_or_equiv
  _atom_site_type_symbol
  Cd1      1.0000 0.90407  0.10873  0.09917  Biso   1.000  Cd
  C1       1.0000 0.91750  0.20640  0.10380  Biso   1.000  C
  C2       1.0000 0.94560  0.26050  0.11390  Biso   1.000  C
  C3       1.0000 0.01640  0.27960  0.21610  Biso   1.000  C
  H1       1.0000 0.04200  0.25880  0.27890  Biso   1.000  H
  C4       1.0000 0.05180  0.32920  0.22950  Biso   1.000  C
  H2       1.0000 0.09870  0.34130  0.29980  Biso   1.000  H
  C5       1.0000 0.01490  0.35880  0.13620  Biso   1.000  C
  H3       1.0000 0.03850  0.39150  0.14170  Biso   1.000  H
  C6       1.0000 0.94300  0.34060  0.03370  Biso   1.000  C
  H4       1.0000 0.91720  0.36170  0.97140  Biso   1.000  H
  C7       1.0000 0.90740  0.29150  0.02020  Biso   1.000  C
  C8       1.0000 0.66240  0.40960  0.61120  Biso   1.000  C
  C9       1.0000 0.78060  0.38790  0.64170  Biso   1.000  C
  C10      1.0000 0.82170  0.35140  0.72530  Biso   1.000  C
  C11      1.0000 0.93590  0.33300  0.74850  Biso   1.000  C
  H5       1.0000 0.96270  0.30830  0.80250  Biso   1.000  H
  C12      1.0000 0.00780  0.35070  0.69380  Biso   1.000  C
  H6       1.0000 0.08250  0.33820  0.71070  Biso   1.000  H
  C13      1.0000 0.96770  0.38740  0.61310  Biso   1.000  C
  H7       1.0000 0.01520  0.40000  0.57510  Biso   1.000  H
  C14      1.0000 0.85630  0.40510  0.58970  Biso   1.000  C
  H8       1.0000 0.83090  0.43000  0.53580  Biso   1.000  H
  C15      1.0000 0.74520  0.56320  0.59240  Biso   1.000  C
  C16      1.0000 0.81350  0.53310  0.69430  Biso   1.000  C
  C17      1.0000 0.75640  0.51380  0.76220  Biso   1.000  C
  H9       1.0000 0.67790  0.52100  0.74470  Biso   1.000  H
  C18      1.0000 0.80890  0.48480  0.85380  Biso   1.000  C
  H10      1.0000 0.76810  0.47280  0.89910  Biso   1.000  H
  C19      1.0000 0.92470  0.47360  0.87750  Biso   1.000  C
  H11      1.0000 0.96250  0.45380  0.93990  Biso   1.000  H
  C20      1.0000 0.98420  0.49110  0.81130  Biso   1.000  C
  H12      1.0000 0.06220  0.48300  0.82870  Biso   1.000  H
  C21      1.0000 0.92910  0.52110  0.71690  Biso   1.000  C
  C22      1.0000 0.25790  0.53090  0.78250  Biso   1.000  C
  C23      1.0000 0.23410  0.56510  0.85530  Biso   1.000  C
  H13      1.0000 0.15720  0.57310  0.84480  Biso   1.000  H
  C24      1.0000 0.32110  0.58720  0.94180  Biso   1.000  C
  H14      1.0000 0.30320  0.60980  0.98940  Biso   1.000  H
  C25      1.0000 0.43420  0.57570  0.95760  Biso   1.000  C
  H15      1.0000 0.49340  0.59050  0.01640  Biso   1.000  H
  C26      1.0000 0.46120  0.54300  0.88840  Biso   1.000  C
  H16      1.0000 0.53860  0.53570  0.89990  Biso   1.000  H
  C27      1.0000 0.37410  0.52020  0.80030  Biso   1.000  C
  C28      1.0000 0.40650  0.48380  0.72490  Biso   1.000  C
  O1       1.0000 0.91050  0.18440  0.18950  Biso   1.000  O
  O2       1.0000 0.91110  0.18560  0.01430  Biso   1.000  O
  O3       1.0000 0.79680  0.58960  0.54400  Biso   1.000  O
  O4       1.0000 0.63470  0.56090  0.55920  Biso   1.000  O
  O5       1.0000 0.47470  0.49710  0.67650  Biso   1.000  O
  O6       1.0000 0.36320  0.44160  0.71760  Biso   1.000  O
  O7       1.0000 0.59770  0.39220  0.66100  Biso   1.000  O
  O8       1.0000 0.63610  0.44310  0.53620  Biso   1.000  O
  S1       1.0000 0.15140  0.50155  0.66700  Biso   1.000  S
  S2       1.0000 0.00670  0.54436  0.62990  Biso   1.000  S
  S3       1.0000 0.72840  0.32799  0.79700  Biso   1.000  S
  S4       1.0000 0.81500  0.26829  0.88650  Biso   1.000  S
  Cd2      1.0000 0.59593  0.60873  0.40083  Biso   1.000  Cd
  C29      1.0000 0.58250  0.70640  0.39620  Biso   1.000  C
  C30      1.0000 0.55440  0.76050  0.38610  Biso   1.000  C
  C31      1.0000 0.48360  0.77960  0.28390  Biso   1.000  C
  H17      1.0000 0.45800  0.75880  0.22110  Biso   1.000  H
  C32      1.0000 0.44820  0.82920  0.27050  Biso   1.000  C
  H18      1.0000 0.40130  0.84130  0.20020  Biso   1.000  H
  C33      1.0000 0.48510  0.85880  0.36380  Biso   1.000  C
  H19      1.0000 0.46150  0.89150  0.35830  Biso   1.000  H
  C34      1.0000 0.55700  0.84060  0.46630  Biso   1.000  C
  H20      1.0000 0.58280  0.86170  0.52860  Biso   1.000  H
  C35      1.0000 0.59260  0.79150  0.47980  Biso   1.000  C
  C36      1.0000 0.83760  0.90960  0.88880  Biso   1.000  C
  C37      1.0000 0.71940  0.88790  0.85830  Biso   1.000  C
  C38      1.0000 0.67830  0.85140  0.77470  Biso   1.000  C
  C39      1.0000 0.56410  0.83300  0.75150  Biso   1.000  C
  H21      1.0000 0.53730  0.80830  0.69750  Biso   1.000  H
  C40      1.0000 0.49220  0.85070  0.80620  Biso   1.000  C
  H22      1.0000 0.41750  0.83820  0.78930  Biso   1.000  H
  C41      1.0000 0.53230  0.88740  0.88690  Biso   1.000  C
  H23      1.0000 0.48480  0.90000  0.92490  Biso   1.000  H
  C42      1.0000 0.64370  0.90510  0.91030  Biso   1.000  C
  H24      1.0000 0.66910  0.93000  0.96420  Biso   1.000  H
  C43      1.0000 0.75480  0.06320  0.90760  Biso   1.000  C
  C44      1.0000 0.68650  0.03310  0.80570  Biso   1.000  C
  C45      1.0000 0.74360  0.01380  0.73780  Biso   1.000  C
  H25      1.0000 0.82210  0.02100  0.75530  Biso   1.000  H
  C46      1.0000 0.69110  0.98480  0.64620  Biso   1.000  C
  H26      1.0000 0.73190  0.97280  0.60090  Biso   1.000  H
  C47      1.0000 0.57530  0.97360  0.62250  Biso   1.000  C
  H27      1.0000 0.53750  0.95380  0.56010  Biso   1.000  H
  C48      1.0000 0.51580  0.99110  0.68870  Biso   1.000  C
  H28      1.0000 0.43780  0.98300  0.67130  Biso   1.000  H
  C49      1.0000 0.57090  0.02110  0.78310  Biso   1.000  C
  C50      1.0000 0.24210  0.03090  0.71750  Biso   1.000  C
  C51      1.0000 0.26590  0.06510  0.64470  Biso   1.000  C
  H29      1.0000 0.34280  0.07310  0.65520  Biso   1.000  H
  C52      1.0000 0.17890  0.08720  0.55820  Biso   1.000  C
  H30      1.0000 0.19680  0.10980  0.51060  Biso   1.000  H
  C53      1.0000 0.06580  0.07570  0.54240  Biso   1.000  C
  H31      1.0000 0.00660  0.09050  0.48360  Biso   1.000  H
  C54      1.0000 0.03880  0.04300  0.61160  Biso   1.000  C
  H32      1.0000 0.96140  0.03570  0.60010  Biso   1.000  H
  C55      1.0000 0.12590  0.02020  0.69970  Biso   1.000  C
  C56      1.0000 0.09350  0.98380  0.77510  Biso   1.000  C
  O9       1.0000 0.58950  0.68440  0.31050  Biso   1.000  O
  O10      1.0000 0.58890  0.68560  0.48570  Biso   1.000  O
  O11      1.0000 0.70320  0.08960  0.95600  Biso   1.000  O
  O12      1.0000 0.86530  0.06090  0.94080  Biso   1.000  O
  O13      1.0000 0.02530  0.99710  0.82350  Biso   1.000  O
  O14      1.0000 0.13680  0.94160  0.78240  Biso   1.000  O
  O15      1.0000 0.90230  0.89220  0.83900  Biso   1.000  O
  O16      1.0000 0.86390  0.94310  0.96380  Biso   1.000  O
  S5       1.0000 0.34860  0.00155  0.83300  Biso   1.000  S
  S6       1.0000 0.49330  0.04436  0.87010  Biso   1.000  S
  S7       1.0000 0.77160  0.82799  0.70300  Biso   1.000  S
  S8       1.0000 0.68500  0.76829  0.61350  Biso   1.000  S
  Cd3      1.0000 0.09593  0.89127  0.90083  Biso   1.000  Cd
  C57      1.0000 0.08250  0.79360  0.89620  Biso   1.000  C
  C58      1.0000 0.05440  0.73950  0.88610  Biso   1.000  C
  C59      1.0000 0.98360  0.72040  0.78390  Biso   1.000  C
  H33      1.0000 0.95800  0.74120  0.72110  Biso   1.000  H
  C60      1.0000 0.94820  0.67080  0.77050  Biso   1.000  C
  H34      1.0000 0.90130  0.65870  0.70020  Biso   1.000  H
  C61      1.0000 0.98510  0.64120  0.86380  Biso   1.000  C
  H35      1.0000 0.96150  0.60850  0.85830  Biso   1.000  H
  C62      1.0000 0.05700  0.65940  0.96630  Biso   1.000  C
  H36      1.0000 0.08280  0.63830  0.02860  Biso   1.000  H
  C63      1.0000 0.09260  0.70850  0.97980  Biso   1.000  C
  C64      1.0000 0.33760  0.59040  0.38880  Biso   1.000  C
  C65      1.0000 0.21940  0.61210  0.35830  Biso   1.000  C
  C66      1.0000 0.17830  0.64860  0.27470  Biso   1.000  C
  C67      1.0000 0.06410  0.66700  0.25150  Biso   1.000  C
  H37      1.0000 0.03730  0.69170  0.19750  Biso   1.000  H
  C68      1.0000 0.99220  0.64930  0.30620  Biso   1.000  C
  H38      1.0000 0.91750  0.66180  0.28930  Biso   1.000  H
  C69      1.0000 0.03230  0.61260  0.38690  Biso   1.000  C
  H39      1.0000 0.98480  0.60000  0.42490  Biso   1.000  H
  C70      1.0000 0.14370  0.59490  0.41030  Biso   1.000  C
  H40      1.0000 0.16910  0.57000  0.46420  Biso   1.000  H
  C71      1.0000 0.25480  0.43680  0.40760  Biso   1.000  C
  C72      1.0000 0.18650  0.46690  0.30570  Biso   1.000  C
  C73      1.0000 0.24360  0.48620  0.23780  Biso   1.000  C
  H41      1.0000 0.32210  0.47900  0.25530  Biso   1.000  H
  C74      1.0000 0.19110  0.51520  0.14620  Biso   1.000  C
  H42      1.0000 0.23190  0.52720  0.10090  Biso   1.000  H
  C75      1.0000 0.07530  0.52640  0.12250  Biso   1.000  C
  H43      1.0000 0.03750  0.54620  0.06010  Biso   1.000  H
  C76      1.0000 0.01580  0.50890  0.18870  Biso   1.000  C
  H44      1.0000 0.93780  0.51700  0.17130  Biso   1.000  H
  C77      1.0000 0.07090  0.47890  0.28310  Biso   1.000  C
  C78      1.0000 0.74210  0.46910  0.21750  Biso   1.000  C
  C79      1.0000 0.76590  0.43490  0.14470  Biso   1.000  C
  H45      1.0000 0.84280  0.42690  0.15520  Biso   1.000  H
  C80      1.0000 0.67890  0.41280  0.05820  Biso   1.000  C
  H46      1.0000 0.69680  0.39020  0.01060  Biso   1.000  H
  C81      1.0000 0.56580  0.42430  0.04240  Biso   1.000  C
  H47      1.0000 0.50660  0.40950  0.98360  Biso   1.000  H
  C82      1.0000 0.53880  0.45700  0.11160  Biso   1.000  C
  H48      1.0000 0.46140  0.46430  0.10010  Biso   1.000  H
  C83      1.0000 0.62590  0.47980  0.19970  Biso   1.000  C
  C84      1.0000 0.59350  0.51620  0.27510  Biso   1.000  C
  O17      1.0000 0.08950  0.81560  0.81050  Biso   1.000  O
  O18      1.0000 0.08890  0.81440  0.98570  Biso   1.000  O
  O19      1.0000 0.20320  0.41040  0.45600  Biso   1.000  O
  O20      1.0000 0.36530  0.43910  0.44080  Biso   1.000  O
  O21      1.0000 0.52530  0.50290  0.32350  Biso   1.000  O
  O22      1.0000 0.63680  0.55840  0.28240  Biso   1.000  O
  O23      1.0000 0.40230  0.60780  0.33900  Biso   1.000  O
  O24      1.0000 0.36390  0.55690  0.46380  Biso   1.000  O
  S9       1.0000 0.84860  0.49845  0.33300  Biso   1.000  S
  S10      1.0000 0.99330  0.45564  0.37010  Biso   1.000  S
  S11      1.0000 0.27160  0.67201  0.20300  Biso   1.000  S
  S12      1.0000 0.18500  0.73171  0.11350  Biso   1.000  S
  Cd4      1.0000 0.40407  0.39127  0.59917  Biso   1.000  Cd
  C85      1.0000 0.41750  0.29360  0.60380  Biso   1.000  C
  C86      1.0000 0.44560  0.23950  0.61390  Biso   1.000  C
  C87      1.0000 0.51640  0.22040  0.71610  Biso   1.000  C
  H49      1.0000 0.54200  0.24120  0.77890  Biso   1.000  H
  C88      1.0000 0.55180  0.17080  0.72950  Biso   1.000  C
  H50      1.0000 0.59870  0.15870  0.79980  Biso   1.000  H
  C89      1.0000 0.51490  0.14120  0.63620  Biso   1.000  C
  H51      1.0000 0.53850  0.10850  0.64170  Biso   1.000  H
  C90      1.0000 0.44300  0.15940  0.53370  Biso   1.000  C
  H52      1.0000 0.41720  0.13830  0.47140  Biso   1.000  H
  C91      1.0000 0.40740  0.20850  0.52020  Biso   1.000  C
  C92      1.0000 0.16240  0.09040  0.11120  Biso   1.000  C
  C93      1.0000 0.28060  0.11210  0.14170  Biso   1.000  C
  C94      1.0000 0.32170  0.14860  0.22530  Biso   1.000  C
  C95      1.0000 0.43590  0.16700  0.24850  Biso   1.000  C
  H53      1.0000 0.46270  0.19170  0.30250  Biso   1.000  H
  C96      1.0000 0.50780  0.14930  0.19380  Biso   1.000  C
  H54      1.0000 0.58250  0.16180  0.21070  Biso   1.000  H
  C97      1.0000 0.46770  0.11260  0.11310  Biso   1.000  C
  H55      1.0000 0.51520  0.10000  0.07510  Biso   1.000  H
  C98      1.0000 0.35630  0.09490  0.08970  Biso   1.000  C
  H56      1.0000 0.33090  0.07000  0.03580  Biso   1.000  H
  C99      1.0000 0.24520  0.93680  0.09240  Biso   1.000  C
  C100     1.0000 0.31350  0.96690  0.19430  Biso   1.000  C
  C101     1.0000 0.25640  0.98620  0.26220  Biso   1.000  C
  H57      1.0000 0.17790  0.97900  0.24470  Biso   1.000  H
  C102     1.0000 0.30890  0.01520  0.35380  Biso   1.000  C
  H58      1.0000 0.26810  0.02720  0.39910  Biso   1.000  H
  C103     1.0000 0.42470  0.02640  0.37750  Biso   1.000  C
  H59      1.0000 0.46250  0.04620  0.43990  Biso   1.000  H
  C104     1.0000 0.48420  0.00890  0.31130  Biso   1.000  C
  H60      1.0000 0.56220  0.01700  0.32870  Biso   1.000  H
  C105     1.0000 0.42910  0.97890  0.21690  Biso   1.000  C
  C106     1.0000 0.75790  0.96910  0.28250  Biso   1.000  C
  C107     1.0000 0.73410  0.93490  0.35530  Biso   1.000  C
  H61      1.0000 0.65720  0.92690  0.34480  Biso   1.000  H
  C108     1.0000 0.82110  0.91280  0.44180  Biso   1.000  C
  H62      1.0000 0.80320  0.89020  0.48940  Biso   1.000  H
  C109     1.0000 0.93420  0.92430  0.45760  Biso   1.000  C
  H63      1.0000 0.99340  0.90950  0.51640  Biso   1.000  H
  C110     1.0000 0.96120  0.95700  0.38840  Biso   1.000  C
  H64      1.0000 0.03860  0.96430  0.39990  Biso   1.000  H
  C111     1.0000 0.87410  0.97980  0.30030  Biso   1.000  C
  C112     1.0000 0.90650  0.01620  0.22490  Biso   1.000  C
  O25      1.0000 0.41050  0.31560  0.68950  Biso   1.000  O
  O26      1.0000 0.41110  0.31440  0.51430  Biso   1.000  O
  O27      1.0000 0.29680  0.91040  0.04400  Biso   1.000  O
  O28      1.0000 0.13470  0.93910  0.05920  Biso   1.000  O
  O29      1.0000 0.97470  0.00290  0.17650  Biso   1.000  O
  O30      1.0000 0.86320  0.05840  0.21760  Biso   1.000  O
  O31      1.0000 0.09770  0.10780  0.16100  Biso   1.000  O
  O32      1.0000 0.13610  0.05690  0.03620  Biso   1.000  O
  S13      1.0000 0.65140  0.99845  0.16700  Biso   1.000  S
  S14      1.0000 0.50670  0.95564  0.12990  Biso   1.000  S
  S15      1.0000 0.22840  0.17201  0.29700  Biso   1.000  S
  S16      1.0000 0.31500  0.23171  0.38650  Biso   1.000  S
  Cd5      1.0000 0.50000  0.50000  0.50000  Biso   1.000  Cd
  Cd6      1.0000 0.00000  0.00000  0.00000  Biso   1.000  Cd
