data_image0
_cell_length_a       25.865
_cell_length_b       25.865
_cell_length_c       6.911
_cell_angle_alpha    90
_cell_angle_beta     90
_cell_angle_gamma    120

_symmetry_space_group_name_H-M    "P 1"
_symmetry_int_tables_number       1

loop_
  _symmetry_equiv_pos_as_xyz
  'x, y, z'

loop_
  _atom_site_label
  _atom_site_occupancy
  _atom_site_fract_x
  _atom_site_fract_y
  _atom_site_fract_z
  _atom_site_thermal_displace_type
  _atom_site_B_iso_or_equiv
  _atom_site_type_symbol
  Mg1      1.0000 0.36753  0.05163  0.02431  Biso   1.000  Mg
  O1       1.0000 0.36014  0.98994  0.81530  Biso   1.000  O
  O2       1.0000 0.58446  0.97800  0.82950  Biso   1.000  O
  O3       1.0000 0.40422  0.96886  0.57820  Biso   1.000  O
  C1       1.0000 0.40271  0.98371  0.75000  Biso   1.000  C
  C2       1.0000 0.45271  0.99399  0.88460  Biso   1.000  C
  C3       1.0000 0.49744  0.98501  0.80970  Biso   1.000  C
  H1       1.0000 0.49540  0.97510  0.67650  Biso   1.000  H
  C4       1.0000 0.54503  0.98953  0.91730  Biso   1.000  C
  Mg2      1.0000 0.03420  0.38496  0.35764  Biso   1.000  Mg
  O4       1.0000 0.02681  0.32327  0.14863  Biso   1.000  O
  O5       1.0000 0.25113  0.31133  0.16283  Biso   1.000  O
  O6       1.0000 0.07089  0.30219  0.91153  Biso   1.000  O
  C5       1.0000 0.06938  0.31704  0.08333  Biso   1.000  C
  C6       1.0000 0.11938  0.32732  0.21793  Biso   1.000  C
  C7       1.0000 0.16411  0.31834  0.14303  Biso   1.000  C
  H2       1.0000 0.16207  0.30843  0.00983  Biso   1.000  H
  C8       1.0000 0.21170  0.32286  0.25063  Biso   1.000  C
  Mg3      1.0000 0.70086  0.71830  0.69098  Biso   1.000  Mg
  O7       1.0000 0.69347  0.65661  0.48197  Biso   1.000  O
  O8       1.0000 0.91779  0.64467  0.49617  Biso   1.000  O
  O9       1.0000 0.73755  0.63553  0.24487  Biso   1.000  O
  C9       1.0000 0.73604  0.65038  0.41667  Biso   1.000  C
  C10      1.0000 0.78604  0.66066  0.55127  Biso   1.000  C
  C11      1.0000 0.83077  0.65168  0.47637  Biso   1.000  C
  H3       1.0000 0.82873  0.64177  0.34317  Biso   1.000  H
  C12      1.0000 0.87836  0.65620  0.58397  Biso   1.000  C
  Mg4      1.0000 0.94837  0.31590  0.02431  Biso   1.000  Mg
  O10      1.0000 0.01006  0.37020  0.81530  Biso   1.000  O
  O11      1.0000 0.02200  0.60646  0.82950  Biso   1.000  O
  O12      1.0000 0.03114  0.43536  0.57820  Biso   1.000  O
  C13      1.0000 0.01629  0.41900  0.75000  Biso   1.000  C
  C14      1.0000 0.00601  0.45872  0.88460  Biso   1.000  C
  C15      1.0000 0.01499  0.51243  0.80970  Biso   1.000  C
  H4       1.0000 0.02490  0.52030  0.67650  Biso   1.000  H
  C16      1.0000 0.01047  0.55550  0.91730  Biso   1.000  C
  Mg5      1.0000 0.61504  0.64923  0.35764  Biso   1.000  Mg
  O13      1.0000 0.67673  0.70353  0.14863  Biso   1.000  O
  O14      1.0000 0.68867  0.93979  0.16283  Biso   1.000  O
  O15      1.0000 0.69781  0.76869  0.91153  Biso   1.000  O
  C17      1.0000 0.68296  0.75233  0.08333  Biso   1.000  C
  C18      1.0000 0.67268  0.79205  0.21793  Biso   1.000  C
  C19      1.0000 0.68166  0.84576  0.14303  Biso   1.000  C
  H5       1.0000 0.69157  0.85363  0.00983  Biso   1.000  H
  C20      1.0000 0.67714  0.88883  0.25063  Biso   1.000  C
  Mg6      1.0000 0.28170  0.98257  0.69098  Biso   1.000  Mg
  O16      1.0000 0.34339  0.03687  0.48197  Biso   1.000  O
  O17      1.0000 0.35533  0.27313  0.49617  Biso   1.000  O
  O18      1.0000 0.36447  0.10203  0.24487  Biso   1.000  O
  C21      1.0000 0.34962  0.08567  0.41667  Biso   1.000  C
  C22      1.0000 0.33934  0.12539  0.55127  Biso   1.000  C
  C23      1.0000 0.34832  0.17910  0.47637  Biso   1.000  C
  H6       1.0000 0.35823  0.18697  0.34317  Biso   1.000  H
  C24      1.0000 0.34380  0.22217  0.58397  Biso   1.000  C
  Mg7      1.0000 0.68410  0.63247  0.02431  Biso   1.000  Mg
  O19      1.0000 0.62980  0.63986  0.81530  Biso   1.000  O
  O20      1.0000 0.39354  0.41554  0.82950  Biso   1.000  O
  O21      1.0000 0.56464  0.59578  0.57820  Biso   1.000  O
  C25      1.0000 0.58100  0.59729  0.75000  Biso   1.000  C
  C26      1.0000 0.54128  0.54729  0.88460  Biso   1.000  C
  C27      1.0000 0.48757  0.50256  0.80970  Biso   1.000  C
  H7       1.0000 0.47970  0.50460  0.67650  Biso   1.000  H
  C28      1.0000 0.44450  0.45497  0.91730  Biso   1.000  C
  Mg8      1.0000 0.35077  0.96580  0.35764  Biso   1.000  Mg
  O22      1.0000 0.29647  0.97319  0.14863  Biso   1.000  O
  O23      1.0000 0.06021  0.74887  0.16283  Biso   1.000  O
  O24      1.0000 0.23131  0.92911  0.91153  Biso   1.000  O
  C29      1.0000 0.24767  0.93062  0.08333  Biso   1.000  C
  C30      1.0000 0.20795  0.88062  0.21793  Biso   1.000  C
  C31      1.0000 0.15424  0.83589  0.14303  Biso   1.000  C
  H8       1.0000 0.14637  0.83793  0.00983  Biso   1.000  H
  C32      1.0000 0.11117  0.78830  0.25063  Biso   1.000  C
  Mg9      1.0000 0.01743  0.29914  0.69098  Biso   1.000  Mg
  O25      1.0000 0.96313  0.30653  0.48197  Biso   1.000  O
  O26      1.0000 0.72687  0.08221  0.49617  Biso   1.000  O
  O27      1.0000 0.89797  0.26245  0.24487  Biso   1.000  O
  C33      1.0000 0.91433  0.26396  0.41667  Biso   1.000  C
  C34      1.0000 0.87461  0.21396  0.55127  Biso   1.000  C
  C35      1.0000 0.82090  0.16923  0.47637  Biso   1.000  C
  H9       1.0000 0.81303  0.17127  0.34317  Biso   1.000  H
  C36      1.0000 0.77783  0.12164  0.58397  Biso   1.000  C
  Mg10     1.0000 0.63247  0.94837  0.97569  Biso   1.000  Mg
  O28      1.0000 0.63986  0.01006  0.18470  Biso   1.000  O
  O29      1.0000 0.41554  0.02200  0.17050  Biso   1.000  O
  O30      1.0000 0.59578  0.03114  0.42180  Biso   1.000  O
  C37      1.0000 0.59729  0.01629  0.25000  Biso   1.000  C
  C38      1.0000 0.54729  0.00601  0.11540  Biso   1.000  C
  C39      1.0000 0.50256  0.01499  0.19030  Biso   1.000  C
  H10      1.0000 0.50460  0.02490  0.32350  Biso   1.000  H
  C40      1.0000 0.45497  0.01047  0.08270  Biso   1.000  C
  Mg11     1.0000 0.29914  0.28170  0.30902  Biso   1.000  Mg
  O31      1.0000 0.30653  0.34339  0.51803  Biso   1.000  O
  O32      1.0000 0.08221  0.35533  0.50383  Biso   1.000  O
  O33      1.0000 0.26245  0.36447  0.75513  Biso   1.000  O
  C41      1.0000 0.26396  0.34962  0.58333  Biso   1.000  C
  C42      1.0000 0.21396  0.33934  0.44873  Biso   1.000  C
  C43      1.0000 0.16923  0.34832  0.52363  Biso   1.000  C
  H11      1.0000 0.17127  0.35823  0.65683  Biso   1.000  H
  C44      1.0000 0.12164  0.34380  0.41603  Biso   1.000  C
  Mg12     1.0000 0.96580  0.61504  0.64236  Biso   1.000  Mg
  O34      1.0000 0.97319  0.67673  0.85137  Biso   1.000  O
  O35      1.0000 0.74887  0.68867  0.83717  Biso   1.000  O
  O36      1.0000 0.92911  0.69781  0.08847  Biso   1.000  O
  C45      1.0000 0.93062  0.68296  0.91667  Biso   1.000  C
  C46      1.0000 0.88062  0.67268  0.78207  Biso   1.000  C
  C47      1.0000 0.83589  0.68166  0.85697  Biso   1.000  C
  H12      1.0000 0.83793  0.69157  0.99017  Biso   1.000  H
  C48      1.0000 0.78830  0.67714  0.74937  Biso   1.000  C
  Mg13     1.0000 0.05163  0.68410  0.97569  Biso   1.000  Mg
  O37      1.0000 0.98994  0.62980  0.18470  Biso   1.000  O
  O38      1.0000 0.97800  0.39354  0.17050  Biso   1.000  O
  O39      1.0000 0.96886  0.56464  0.42180  Biso   1.000  O
  C49      1.0000 0.98371  0.58100  0.25000  Biso   1.000  C
  C50      1.0000 0.99399  0.54128  0.11540  Biso   1.000  C
  C51      1.0000 0.98501  0.48757  0.19030  Biso   1.000  C
  H13      1.0000 0.97510  0.47970  0.32350  Biso   1.000  H
  C52      1.0000 0.98953  0.44450  0.08270  Biso   1.000  C
  Mg14     1.0000 0.71830  0.01743  0.30902  Biso   1.000  Mg
  O40      1.0000 0.65661  0.96313  0.51803  Biso   1.000  O
  O41      1.0000 0.64467  0.72687  0.50383  Biso   1.000  O
  O42      1.0000 0.63553  0.89797  0.75513  Biso   1.000  O
  C53      1.0000 0.65038  0.91433  0.58333  Biso   1.000  C
  C54      1.0000 0.66066  0.87461  0.44873  Biso   1.000  C
  C55      1.0000 0.65168  0.82090  0.52363  Biso   1.000  C
  H14      1.0000 0.64177  0.81303  0.65683  Biso   1.000  H
  C56      1.0000 0.65620  0.77783  0.41603  Biso   1.000  C
  Mg15     1.0000 0.38496  0.35077  0.64236  Biso   1.000  Mg
  O43      1.0000 0.32327  0.29647  0.85137  Biso   1.000  O
  O44      1.0000 0.31133  0.06021  0.83717  Biso   1.000  O
  O45      1.0000 0.30219  0.23131  0.08847  Biso   1.000  O
  C57      1.0000 0.31704  0.24767  0.91667  Biso   1.000  C
  C58      1.0000 0.32732  0.20795  0.78207  Biso   1.000  C
  C59      1.0000 0.31834  0.15424  0.85697  Biso   1.000  C
  H15      1.0000 0.30843  0.14637  0.99017  Biso   1.000  H
  C60      1.0000 0.32286  0.11117  0.74937  Biso   1.000  C
  Mg16     1.0000 0.31590  0.36753  0.97569  Biso   1.000  Mg
  O46      1.0000 0.37020  0.36014  0.18470  Biso   1.000  O
  O47      1.0000 0.60646  0.58446  0.17050  Biso   1.000  O
  O48      1.0000 0.43536  0.40422  0.42180  Biso   1.000  O
  C61      1.0000 0.41900  0.40271  0.25000  Biso   1.000  C
  C62      1.0000 0.45872  0.45271  0.11540  Biso   1.000  C
  C63      1.0000 0.51243  0.49744  0.19030  Biso   1.000  C
  H16      1.0000 0.52030  0.49540  0.32350  Biso   1.000  H
  C64      1.0000 0.55550  0.54503  0.08270  Biso   1.000  C
  Mg17     1.0000 0.98257  0.70086  0.30902  Biso   1.000  Mg
  O49      1.0000 0.03687  0.69347  0.51803  Biso   1.000  O
  O50      1.0000 0.27313  0.91779  0.50383  Biso   1.000  O
  O51      1.0000 0.10203  0.73755  0.75513  Biso   1.000  O
  C65      1.0000 0.08567  0.73604  0.58333  Biso   1.000  C
  C66      1.0000 0.12539  0.78604  0.44873  Biso   1.000  C
  C67      1.0000 0.17910  0.83077  0.52363  Biso   1.000  C
  H17      1.0000 0.18697  0.82873  0.65683  Biso   1.000  H
  C68      1.0000 0.22217  0.87836  0.41603  Biso   1.000  C
  Mg18     1.0000 0.64923  0.03420  0.64236  Biso   1.000  Mg
  O52      1.0000 0.70353  0.02681  0.85137  Biso   1.000  O
  O53      1.0000 0.93979  0.25113  0.83717  Biso   1.000  O
  O54      1.0000 0.76869  0.07089  0.08847  Biso   1.000  O
  C69      1.0000 0.75233  0.06938  0.91667  Biso   1.000  C
  C70      1.0000 0.79205  0.11938  0.78207  Biso   1.000  C
  C71      1.0000 0.84576  0.16411  0.85697  Biso   1.000  C
  H18      1.0000 0.85363  0.16207  0.99017  Biso   1.000  H
  C72      1.0000 0.88883  0.21170  0.74937  Biso   1.000  C
