data_image0
_cell_length_a       7.0661
_cell_length_b       9.6778
_cell_length_c       11.6217
_cell_angle_alpha    106.326
_cell_angle_beta     97.843
_cell_angle_gamma    107.707

_symmetry_space_group_name_H-M    "P 1"
_symmetry_int_tables_number       1

loop_
  _symmetry_equiv_pos_as_xyz
  'x, y, z'

loop_
  _atom_site_label
  _atom_site_occupancy
  _atom_site_fract_x
  _atom_site_fract_y
  _atom_site_fract_z
  _atom_site_thermal_displace_type
  _atom_site_B_iso_or_equiv
  _atom_site_type_symbol
  V1       1.0000 0.17095  0.13046  0.27722  Biso   1.000  V
  P1       1.0000 0.22447  0.32769  0.15194  Biso   1.000  P
  P2       1.0000 0.08136  0.23030  0.79726  Biso   1.000  P
  O1       1.0000 0.30480  0.30770  0.87110  Biso   1.000  O
  O2       1.0000 0.42850  0.41700  0.13354  Biso   1.000  O
  O3       1.0000 0.22750  0.35170  0.29090  Biso   1.000  O
  O4       1.0000 0.06170  0.19690  0.65881  Biso   1.000  O
  O5       1.0000 0.17090  0.15050  0.10570  Biso   1.000  O
  O6       1.0000 0.04900  0.36780  0.09460  Biso   1.000  O
  O7       1.0000 0.96190  0.33690  0.84143  Biso   1.000  O
  O8       1.0000 0.04310  0.13570  0.38690  Biso   1.000  O
  O9       1.0000 0.98500  0.07880  0.82362  Biso   1.000  O
  O10      1.0000 0.28650  0.58280  0.00855  Biso   1.000  O
  V2       1.0000 0.82905  0.86954  0.72278  Biso   1.000  V
  P3       1.0000 0.77553  0.67231  0.84806  Biso   1.000  P
  P4       1.0000 0.91864  0.76970  0.20274  Biso   1.000  P
  O11      1.0000 0.69520  0.69230  0.12890  Biso   1.000  O
  O12      1.0000 0.57150  0.58300  0.86646  Biso   1.000  O
  O13      1.0000 0.77250  0.64830  0.70910  Biso   1.000  O
  O14      1.0000 0.93830  0.80310  0.34119  Biso   1.000  O
  O15      1.0000 0.82910  0.84950  0.89430  Biso   1.000  O
  O16      1.0000 0.95100  0.63220  0.90540  Biso   1.000  O
  O17      1.0000 0.03810  0.66310  0.15857  Biso   1.000  O
  O18      1.0000 0.95690  0.86430  0.61310  Biso   1.000  O
  O19      1.0000 0.01500  0.92120  0.17638  Biso   1.000  O
  O20      1.0000 0.71350  0.41720  0.99145  Biso   1.000  O
  Co1      1.0000 0.00000  0.00000  0.50000  Biso   1.000  Co
  V3       1.0000 0.00000  0.50000  0.00000  Biso   1.000  V
  V4       1.0000 0.50000  0.50000  0.00000  Biso   1.000  V
