data_OPAPIF_clean
_audit_creation_date              2014-07-02
_audit_creation_method            'Materials Studio'
_symmetry_space_group_name_H-M    'P1'
_symmetry_Int_Tables_number       1
_symmetry_cell_setting            triclinic
loop_
_symmetry_equiv_pos_as_xyz
  x,y,z
_cell_length_a                    9.4829
_cell_length_b                    11.5050
_cell_length_c                    14.5820
_cell_angle_alpha                 69.4800
_cell_angle_beta                  85.3600
_cell_angle_gamma                 86.3200
loop_
_atom_site_label
_atom_site_type_symbol
_atom_site_fract_x
_atom_site_fract_y
_atom_site_fract_z
_atom_site_U_iso_or_equiv
_atom_site_adp_type
_atom_site_occupancy
Eu1    Eu    0.79662   0.95506   0.00239   0.01267  Uiso   1.00
Eu2    Eu    0.20338   0.04494   0.99761   0.01267  Uiso   1.00
H1     H     0.86500   0.36850   0.83990   0.01267  Uiso   1.00
H2     H     0.97000   0.37170   0.75060   0.01267  Uiso   1.00
H3     H     0.33200   0.38600   0.89000   0.01267  Uiso   1.00
H4     H     0.26400   0.48200   0.80200   0.01267  Uiso   1.00
H5     H     0.87810   0.94340   0.55610   0.01267  Uiso   1.00
H6     H     0.87330   0.06570   0.46400   0.01267  Uiso   1.00
H7     H     0.27490   0.34590   0.39450   0.01267  Uiso   1.00
H8     H     0.26040   0.28240   0.32270   0.01267  Uiso   1.00
H9     H     0.85190   0.10210   0.28220   0.01267  Uiso   1.00
H10    H     0.81570   0.22720   0.19730   0.01267  Uiso   1.00
H11    H     0.12070   0.53150   0.43500   0.01267  Uiso   1.00
H12    H     0.11000   0.40890   0.52660   0.01267  Uiso   1.00
H13    H     0.66960   0.04810   0.60590   0.01267  Uiso   1.00
H14    H     0.62750   0.12020   0.67160   0.01267  Uiso   1.00
H15    H     0.48270   0.83660   0.80650   0.01267  Uiso   1.00
H16    H     0.63350   0.83140   0.75620   0.01267  Uiso   1.00
H17    H     0.03040   0.48080   0.90880   0.01267  Uiso   1.00
H18    H     0.07950   0.38730   0.00950   0.01267  Uiso   1.00
H19    H     0.13500   0.63150   0.16010   0.01267  Uiso   1.00
H20    H     0.03000   0.62830   0.24940   0.01267  Uiso   1.00
H21    H     0.66800   0.61400   0.11000   0.01267  Uiso   1.00
H22    H     0.73600   0.51800   0.19800   0.01267  Uiso   1.00
H23    H     0.12190   0.05660   0.44390   0.01267  Uiso   1.00
H24    H     0.12670   0.93430   0.53600   0.01267  Uiso   1.00
H25    H     0.72510   0.65410   0.60550   0.01267  Uiso   1.00
H26    H     0.73960   0.71760   0.67730   0.01267  Uiso   1.00
H27    H     0.14810   0.89790   0.71780   0.01267  Uiso   1.00
H28    H     0.18430   0.77280   0.80270   0.01267  Uiso   1.00
H29    H     0.87930   0.46850   0.56500   0.01267  Uiso   1.00
H30    H     0.89000   0.59110   0.47340   0.01267  Uiso   1.00
H31    H     0.33040   0.95190   0.39410   0.01267  Uiso   1.00
H32    H     0.37250   0.87980   0.32840   0.01267  Uiso   1.00
H33    H     0.51730   0.16340   0.19350   0.01267  Uiso   1.00
H34    H     0.36650   0.16860   0.24380   0.01267  Uiso   1.00
H35    H     0.96960   0.51920   0.09120   0.01267  Uiso   1.00
H36    H     0.92050   0.61270   0.99050   0.01267  Uiso   1.00
C1     C     0.92360   0.09860   0.14560   0.01267  Uiso   1.00
C2     C     0.88640   0.19470   0.68120   0.01267  Uiso   1.00
C3     C     0.00380   0.21860   0.87190   0.01267  Uiso   1.00
C4     C     0.91050   0.31810   0.80390   0.01267  Uiso   1.00
C5     C     0.92840   0.01790   0.51900   0.01267  Uiso   1.00
C6     C     0.98400   0.30360   0.31590   0.01267  Uiso   1.00
C7     C     0.88760   0.16170   0.22060   0.01267  Uiso   1.00
C8     C     0.94290   0.09290   0.58290   0.01267  Uiso   1.00
C9     C     0.99670   0.40600   0.41520   0.01267  Uiso   1.00
C10    C     0.05620   0.46940   0.47620   0.01267  Uiso   1.00
C11    C     0.57760   0.80020   0.81800   0.01267  Uiso   1.00
C12    C     0.63950   0.84770   0.89090   0.01267  Uiso   1.00
C13    C     0.40100   0.61550   0.91140   0.01267  Uiso   1.00
C14    C     0.18970   0.54580   0.96060   0.01267  Uiso   1.00
C15    C     0.05970   0.47430   0.97270   0.01267  Uiso   1.00
C16    C     0.07640   0.90140   0.85440   0.01267  Uiso   1.00
C17    C     0.11360   0.80530   0.31880   0.01267  Uiso   1.00
C18    C     0.99620   0.78140   0.12810   0.01267  Uiso   1.00
C19    C     0.08950   0.68190   0.19610   0.01267  Uiso   1.00
C20    C     0.07160   0.98210   0.48100   0.01267  Uiso   1.00
C21    C     0.01600   0.69640   0.68410   0.01267  Uiso   1.00
C22    C     0.11240   0.83830   0.77940   0.01267  Uiso   1.00
C23    C     0.05710   0.90710   0.41710   0.01267  Uiso   1.00
C24    C     0.00330   0.59400   0.58480   0.01267  Uiso   1.00
C25    C     0.94380   0.53060   0.52380   0.01267  Uiso   1.00
C26    C     0.42240   0.19980   0.18200   0.01267  Uiso   1.00
C27    C     0.36050   0.15230   0.10910   0.01267  Uiso   1.00
C28    C     0.59900   0.38450   0.08860   0.01267  Uiso   1.00
C29    C     0.81030   0.45420   0.03940   0.01267  Uiso   1.00
C30    C     0.94030   0.52570   0.02730   0.01267  Uiso   1.00
S1     S     0.04813   0.22556   0.23759   0.01267  Uiso   1.00
S2     S     0.56767   0.63423   0.85020   0.01267  Uiso   1.00
S3     S     0.77655   0.26068   0.75283   0.01267  Uiso   1.00
S4     S     0.95187   0.77444   0.76241   0.01267  Uiso   1.00
S5     S     0.43233   0.36577   0.14980   0.01267  Uiso   1.00
S6     S     0.22345   0.73932   0.24717   0.01267  Uiso   1.00
N1     N     0.30900   0.53200   0.90570   0.01267  Uiso   1.00
N2     N     0.20690   0.63000   0.99880   0.01267  Uiso   1.00
N3     N     0.07550   0.34640   0.36280   0.01267  Uiso   1.00
N4     N     0.02250   0.20320   0.66160   0.01267  Uiso   1.00
N5     N     0.34300   0.67410   0.96750   0.01267  Uiso   1.00
N6     N     0.83160   0.12700   0.63350   0.01267  Uiso   1.00
N7     N     0.33700   0.45350   0.84990   0.01267  Uiso   1.00
N8     N     0.22270   0.32170   0.35960   0.01267  Uiso   1.00
N9     N     0.05870   0.13630   0.59790   0.01267  Uiso   1.00
N10    N     0.86400   0.40060   0.40290   0.01267  Uiso   1.00
N11    N     0.85450   0.33350   0.33790   0.01267  Uiso   1.00
N12    N     0.69170   0.09420   0.63750   0.01267  Uiso   1.00
N13    N     0.69100   0.46800   0.09430   0.01267  Uiso   1.00
N14    N     0.79310   0.37000   0.00120   0.01267  Uiso   1.00
N15    N     0.92450   0.65360   0.63720   0.01267  Uiso   1.00
N16    N     0.97750   0.79680   0.33840   0.01267  Uiso   1.00
N17    N     0.65700   0.32590   0.03250   0.01267  Uiso   1.00
N18    N     0.16840   0.87300   0.36650   0.01267  Uiso   1.00
N19    N     0.66300   0.54650   0.15010   0.01267  Uiso   1.00
N20    N     0.77730   0.67830   0.64040   0.01267  Uiso   1.00
N21    N     0.94130   0.86370   0.40210   0.01267  Uiso   1.00
N22    N     0.13600   0.59940   0.59710   0.01267  Uiso   1.00
N23    N     0.14550   0.66650   0.66210   0.01267  Uiso   1.00
N24    N     0.30830   0.90580   0.36250   0.01267  Uiso   1.00
O1     O     0.82650   0.04370   0.12670   0.01267  Uiso   1.00
O2     O     0.95330   0.11720   0.92540   0.01267  Uiso   1.00
O3     O     0.12960   0.24290   0.87350   0.01267  Uiso   1.00
O4     O     0.05020   0.10440   0.11120   0.01267  Uiso   1.00
O5     O     0.68590   0.77750   0.96910   0.01267  Uiso   1.00
O6     O     0.64410   0.96520   0.86500   0.01267  Uiso   1.00
O7     O     0.17350   0.95630   0.87330   0.01267  Uiso   1.00
O8     O     0.04670   0.88280   0.07460   0.01267  Uiso   1.00
O9     O     0.87040   0.75710   0.12650   0.01267  Uiso   1.00
O10    O     0.94980   0.89560   0.88880   0.01267  Uiso   1.00
O11    O     0.31410   0.22250   0.03090   0.01267  Uiso   1.00
O12    O     0.35590   0.03480   0.13500   0.01267  Uiso   1.00
