data_OPAPUR_clean
_audit_creation_date              2014-07-02
_audit_creation_method            'Materials Studio'
_symmetry_space_group_name_H-M    'P1'
_symmetry_Int_Tables_number       1
_symmetry_cell_setting            triclinic
loop_
_symmetry_equiv_pos_as_xyz
  x,y,z
_cell_length_a                    9.4504
_cell_length_b                    11.4580
_cell_length_c                    14.5790
_cell_angle_alpha                 69.8600
_cell_angle_beta                  85.4600
_cell_angle_gamma                 86.3000
loop_
_atom_site_label
_atom_site_type_symbol
_atom_site_fract_x
_atom_site_fract_y
_atom_site_fract_z
_atom_site_U_iso_or_equiv
_atom_site_adp_type
_atom_site_occupancy
Dy1    Dy    0.79722   0.95468   0.00260   0.01267  Uiso   1.00
Dy2    Dy    0.20278   0.04532   0.99740   0.01267  Uiso   1.00
H1     H     0.86460   0.36890   0.84110   0.01267  Uiso   1.00
H2     H     0.97060   0.37150   0.75230   0.01267  Uiso   1.00
H3     H     0.33400   0.38400   0.88900   0.01267  Uiso   1.00
H4     H     0.27400   0.47200   0.80600   0.01267  Uiso   1.00
H5     H     0.87750   0.94330   0.55630   0.01267  Uiso   1.00
H6     H     0.87170   0.06540   0.46440   0.01267  Uiso   1.00
H7     H     0.27590   0.34540   0.39410   0.01267  Uiso   1.00
H8     H     0.26100   0.28270   0.32140   0.01267  Uiso   1.00
H9     H     0.85370   0.09940   0.28090   0.01267  Uiso   1.00
H10    H     0.81480   0.22480   0.19730   0.01267  Uiso   1.00
H11    H     0.12050   0.53300   0.43430   0.01267  Uiso   1.00
H12    H     0.11230   0.40970   0.52500   0.01267  Uiso   1.00
H13    H     0.66850   0.04480   0.60770   0.01267  Uiso   1.00
H14    H     0.62500   0.11900   0.67220   0.01267  Uiso   1.00
H15    H     0.48280   0.83770   0.80860   0.01267  Uiso   1.00
H16    H     0.63360   0.83310   0.75750   0.01267  Uiso   1.00
H17    H     0.02930   0.48150   0.90880   0.01267  Uiso   1.00
H18    H     0.07940   0.38750   0.00860   0.01267  Uiso   1.00
H19    H     0.13540   0.63110   0.15890   0.01267  Uiso   1.00
H20    H     0.02940   0.62850   0.24770   0.01267  Uiso   1.00
H21    H     0.66600   0.61600   0.11100   0.01267  Uiso   1.00
H22    H     0.72600   0.52800   0.19400   0.01267  Uiso   1.00
H23    H     0.12250   0.05670   0.44370   0.01267  Uiso   1.00
H24    H     0.12830   0.93460   0.53560   0.01267  Uiso   1.00
H25    H     0.72410   0.65460   0.60590   0.01267  Uiso   1.00
H26    H     0.73900   0.71730   0.67860   0.01267  Uiso   1.00
H27    H     0.14630   0.90060   0.71910   0.01267  Uiso   1.00
H28    H     0.18520   0.77520   0.80270   0.01267  Uiso   1.00
H29    H     0.87950   0.46700   0.56570   0.01267  Uiso   1.00
H30    H     0.88770   0.59030   0.47500   0.01267  Uiso   1.00
H31    H     0.33150   0.95520   0.39230   0.01267  Uiso   1.00
H32    H     0.37500   0.88100   0.32780   0.01267  Uiso   1.00
H33    H     0.51720   0.16230   0.19140   0.01267  Uiso   1.00
H34    H     0.36640   0.16690   0.24250   0.01267  Uiso   1.00
H35    H     0.97070   0.51850   0.09120   0.01267  Uiso   1.00
H36    H     0.92060   0.61250   0.99140   0.01267  Uiso   1.00
C1     C     0.92520   0.09780   0.14320   0.01267  Uiso   1.00
C2     C     0.88560   0.19720   0.68060   0.01267  Uiso   1.00
C3     C     0.00140   0.21730   0.87240   0.01267  Uiso   1.00
C4     C     0.90980   0.31830   0.80480   0.01267  Uiso   1.00
C5     C     0.92750   0.01800   0.51920   0.01267  Uiso   1.00
C6     C     0.98370   0.30360   0.31520   0.01267  Uiso   1.00
C7     C     0.88810   0.16000   0.21970   0.01267  Uiso   1.00
C8     C     0.94220   0.09370   0.58280   0.01267  Uiso   1.00
C9     C     0.99540   0.40660   0.41450   0.01267  Uiso   1.00
C10    C     0.05700   0.47000   0.47550   0.01267  Uiso   1.00
C11    C     0.57830   0.80140   0.81930   0.01267  Uiso   1.00
C12    C     0.64110   0.84820   0.89220   0.01267  Uiso   1.00
C13    C     0.40210   0.61480   0.91180   0.01267  Uiso   1.00
C14    C     0.19030   0.54550   0.96040   0.01267  Uiso   1.00
C15    C     0.05940   0.47470   0.97260   0.01267  Uiso   1.00
C16    C     0.07480   0.90220   0.85680   0.01267  Uiso   1.00
C17    C     0.11440   0.80280   0.31940   0.01267  Uiso   1.00
C18    C     0.99860   0.78270   0.12760   0.01267  Uiso   1.00
C19    C     0.09020   0.68170   0.19520   0.01267  Uiso   1.00
C20    C     0.07250   0.98200   0.48080   0.01267  Uiso   1.00
C21    C     0.01630   0.69640   0.68480   0.01267  Uiso   1.00
C22    C     0.11190   0.84000   0.78030   0.01267  Uiso   1.00
C23    C     0.05780   0.90630   0.41720   0.01267  Uiso   1.00
C24    C     0.00460   0.59340   0.58550   0.01267  Uiso   1.00
C25    C     0.94300   0.53000   0.52450   0.01267  Uiso   1.00
C26    C     0.42170   0.19860   0.18070   0.01267  Uiso   1.00
C27    C     0.35890   0.15180   0.10780   0.01267  Uiso   1.00
C28    C     0.59790   0.38520   0.08820   0.01267  Uiso   1.00
C29    C     0.80970   0.45450   0.03960   0.01267  Uiso   1.00
C30    C     0.94060   0.52530   0.02740   0.01267  Uiso   1.00
S1     S     0.04883   0.22563   0.23646   0.01267  Uiso   1.00
S2     S     0.56874   0.63521   0.84993   0.01267  Uiso   1.00
S3     S     0.77505   0.26350   0.75191   0.01267  Uiso   1.00
S4     S     0.95117   0.77437   0.76354   0.01267  Uiso   1.00
S5     S     0.43126   0.36479   0.15007   0.01267  Uiso   1.00
S6     S     0.22495   0.73650   0.24809   0.01267  Uiso   1.00
N1     N     0.30970   0.53240   0.90542   0.01267  Uiso   1.00
N2     N     0.20740   0.63190   0.99770   0.01267  Uiso   1.00
N3     N     0.07600   0.34720   0.36184   0.01267  Uiso   1.00
N4     N     0.02200   0.20460   0.66160   0.01267  Uiso   1.00
N5     N     0.34380   0.67480   0.96750   0.01267  Uiso   1.00
N6     N     0.83010   0.12810   0.63317   0.01267  Uiso   1.00
N7     N     0.33810   0.45260   0.85030   0.01267  Uiso   1.00
N8     N     0.22330   0.32180   0.35870   0.01267  Uiso   1.00
N9     N     0.05830   0.13720   0.59820   0.01267  Uiso   1.00
N10    N     0.86280   0.39940   0.40270   0.01267  Uiso   1.00
N11    N     0.85430   0.33340   0.33730   0.01267  Uiso   1.00
N12    N     0.68980   0.09280   0.63840   0.01267  Uiso   1.00
N13    N     0.69030   0.46760   0.09458   0.01267  Uiso   1.00
N14    N     0.79260   0.36810   0.00230   0.01267  Uiso   1.00
N15    N     0.92400   0.65280   0.63816   0.01267  Uiso   1.00
N16    N     0.97800   0.79540   0.33840   0.01267  Uiso   1.00
N17    N     0.65620   0.32520   0.03250   0.01267  Uiso   1.00
N18    N     0.16990   0.87190   0.36683   0.01267  Uiso   1.00
N19    N     0.66190   0.54740   0.14970   0.01267  Uiso   1.00
N20    N     0.77670   0.67820   0.64130   0.01267  Uiso   1.00
N21    N     0.94170   0.86280   0.40180   0.01267  Uiso   1.00
N22    N     0.13720   0.60060   0.59730   0.01267  Uiso   1.00
N23    N     0.14570   0.66660   0.66270   0.01267  Uiso   1.00
N24    N     0.31020   0.90720   0.36160   0.01267  Uiso   1.00
O1     O     0.82800   0.04240   0.12470   0.01267  Uiso   1.00
O2     O     0.94890   0.11549   0.92467   0.01267  Uiso   1.00
O3     O     0.12760   0.23856   0.87672   0.01267  Uiso   1.00
O4     O     0.05060   0.10770   0.10690   0.01267  Uiso   1.00
O5     O     0.68670   0.77790   0.97049   0.01267  Uiso   1.00
O6     O     0.64730   0.96567   0.86653   0.01267  Uiso   1.00
O7     O     0.17200   0.95760   0.87530   0.01267  Uiso   1.00
O8     O     0.05110   0.88451   0.07533   0.01267  Uiso   1.00
O9     O     0.87240   0.76144   0.12328   0.01267  Uiso   1.00
O10    O     0.94940   0.89230   0.89310   0.01267  Uiso   1.00
O11    O     0.31330   0.22210   0.02951   0.01267  Uiso   1.00
O12    O     0.35270   0.03433   0.13347   0.01267  Uiso   1.00
