data_OPAPEB_clean
_audit_creation_date              2014-07-02
_audit_creation_method            'Materials Studio'
_symmetry_space_group_name_H-M    'P1'
_symmetry_Int_Tables_number       1
_symmetry_cell_setting            triclinic
loop_
_symmetry_equiv_pos_as_xyz
  x,y,z
_cell_length_a                    9.5104
_cell_length_b                    11.5150
_cell_length_c                    14.5750
_cell_angle_alpha                 69.4700
_cell_angle_beta                  85.2900
_cell_angle_gamma                 86.3900
loop_
_atom_site_label
_atom_site_type_symbol
_atom_site_fract_x
_atom_site_fract_y
_atom_site_fract_z
_atom_site_U_iso_or_equiv
_atom_site_adp_type
_atom_site_occupancy
Sm1    Sm    0.79618   0.95525   0.00224   0.01267  Uiso   1.00
Sm2    Sm    0.20382   0.04475   0.99776   0.01267  Uiso   1.00
H1     H     0.86660   0.36970   0.83920   0.01267  Uiso   1.00
H2     H     0.97090   0.37270   0.74960   0.01267  Uiso   1.00
H3     H     0.33600   0.39300   0.88300   0.01267  Uiso   1.00
H4     H     0.27100   0.47500   0.80200   0.01267  Uiso   1.00
H5     H     0.87730   0.94360   0.55660   0.01267  Uiso   1.00
H6     H     0.87250   0.06510   0.46370   0.01267  Uiso   1.00
H7     H     0.27480   0.35030   0.39130   0.01267  Uiso   1.00
H8     H     0.25970   0.28620   0.32010   0.01267  Uiso   1.00
H9     H     0.85210   0.10160   0.28340   0.01267  Uiso   1.00
H10    H     0.81530   0.22620   0.19810   0.01267  Uiso   1.00
H11    H     0.11890   0.53340   0.43370   0.01267  Uiso   1.00
H12    H     0.11120   0.41050   0.52520   0.01267  Uiso   1.00
H13    H     0.67020   0.04810   0.60570   0.01267  Uiso   1.00
H14    H     0.62840   0.11780   0.67320   0.01267  Uiso   1.00
H15    H     0.48420   0.83660   0.80630   0.01267  Uiso   1.00
H16    H     0.63490   0.83070   0.75660   0.01267  Uiso   1.00
H17    H     0.02870   0.48460   0.90770   0.01267  Uiso   1.00
H18    H     0.07780   0.38810   0.00710   0.01267  Uiso   1.00
H19    H     0.13340   0.63030   0.16080   0.01267  Uiso   1.00
H20    H     0.02910   0.62730   0.25040   0.01267  Uiso   1.00
H21    H     0.66400   0.60700   0.11700   0.01267  Uiso   1.00
H22    H     0.72900   0.52500   0.19800   0.01267  Uiso   1.00
H23    H     0.12270   0.05640   0.44340   0.01267  Uiso   1.00
H24    H     0.12750   0.93490   0.53630   0.01267  Uiso   1.00
H25    H     0.72520   0.64970   0.60870   0.01267  Uiso   1.00
H26    H     0.74030   0.71380   0.67990   0.01267  Uiso   1.00
H27    H     0.14790   0.89840   0.71660   0.01267  Uiso   1.00
H28    H     0.18470   0.77380   0.80190   0.01267  Uiso   1.00
H29    H     0.88110   0.46660   0.56630   0.01267  Uiso   1.00
H30    H     0.88880   0.58950   0.47480   0.01267  Uiso   1.00
H31    H     0.32980   0.95190   0.39430   0.01267  Uiso   1.00
H32    H     0.37160   0.88220   0.32680   0.01267  Uiso   1.00
H33    H     0.51580   0.16340   0.19370   0.01267  Uiso   1.00
H34    H     0.36510   0.16930   0.24340   0.01267  Uiso   1.00
H35    H     0.97130   0.51540   0.09230   0.01267  Uiso   1.00
H36    H     0.92220   0.61190   0.99290   0.01267  Uiso   1.00
C1     C     0.92380   0.09810   0.14710   0.01267  Uiso   1.00
C2     C     0.88660   0.19580   0.68010   0.01267  Uiso   1.00
C3     C     0.00450   0.22110   0.87060   0.01267  Uiso   1.00
C4     C     0.91200   0.31920   0.80340   0.01267  Uiso   1.00
C5     C     0.92740   0.01800   0.51890   0.01267  Uiso   1.00
C6     C     0.98250   0.30370   0.31600   0.01267  Uiso   1.00
C7     C     0.88730   0.16110   0.22150   0.01267  Uiso   1.00
C8     C     0.94290   0.09450   0.58210   0.01267  Uiso   1.00
C9     C     0.99630   0.40660   0.41530   0.01267  Uiso   1.00
C10    C     0.05600   0.47030   0.47550   0.01267  Uiso   1.00
C11    C     0.57850   0.79980   0.81820   0.01267  Uiso   1.00
C12    C     0.63910   0.84690   0.89050   0.01267  Uiso   1.00
C13    C     0.40130   0.61400   0.91200   0.01267  Uiso   1.00
C14    C     0.18920   0.54460   0.96040   0.01267  Uiso   1.00
C15    C     0.05880   0.47560   0.97190   0.01267  Uiso   1.00
C16    C     0.07620   0.90190   0.85290   0.01267  Uiso   1.00
C17    C     0.11340   0.80420   0.31990   0.01267  Uiso   1.00
C18    C     0.99550   0.77890   0.12940   0.01267  Uiso   1.00
C19    C     0.08800   0.68080   0.19660   0.01267  Uiso   1.00
C20    C     0.07260   0.98200   0.48110   0.01267  Uiso   1.00
C21    C     0.01750   0.69630   0.68400   0.01267  Uiso   1.00
C22    C     0.11270   0.83890   0.77850   0.01267  Uiso   1.00
C23    C     0.05710   0.90550   0.41790   0.01267  Uiso   1.00
C24    C     0.00370   0.59340   0.58470   0.01267  Uiso   1.00
C25    C     0.94400   0.52970   0.52450   0.01267  Uiso   1.00
C26    C     0.42150   0.20020   0.18180   0.01267  Uiso   1.00
C27    C     0.36090   0.15310   0.10950   0.01267  Uiso   1.00
C28    C     0.59870   0.38600   0.08800   0.01267  Uiso   1.00
C29    C     0.81080   0.45540   0.03960   0.01267  Uiso   1.00
C30    C     0.94120   0.52440   0.02810   0.01267  Uiso   1.00
S1     S     0.04804   0.22620   0.23741   0.01267  Uiso   1.00
S2     S     0.56726   0.63370   0.85044   0.01267  Uiso   1.00
S3     S     0.77807   0.25957   0.75341   0.01267  Uiso   1.00
S4     S     0.95196   0.77380   0.76259   0.01267  Uiso   1.00
S5     S     0.43274   0.36630   0.14956   0.01267  Uiso   1.00
S6     S     0.22193   0.74043   0.24659   0.01267  Uiso   1.00
N1     N     0.30770   0.53310   0.90510   0.01267  Uiso   1.00
N2     N     0.20650   0.63040   0.99820   0.01267  Uiso   1.00
N3     N     0.07570   0.34770   0.36220   0.01267  Uiso   1.00
N4     N     0.02340   0.20350   0.66200   0.01267  Uiso   1.00
N5     N     0.34330   0.67380   0.96780   0.01267  Uiso   1.00
N6     N     0.83150   0.12630   0.63390   0.01267  Uiso   1.00
N7     N     0.33650   0.45430   0.84910   0.01267  Uiso   1.00
N8     N     0.22230   0.32520   0.35720   0.01267  Uiso   1.00
N9     N     0.05820   0.13670   0.59710   0.01267  Uiso   1.00
N10    N     0.86380   0.39950   0.40300   0.01267  Uiso   1.00
N11    N     0.85480   0.33200   0.33960   0.01267  Uiso   1.00
N12    N     0.69230   0.09320   0.63810   0.01267  Uiso   1.00
N13    N     0.69230   0.46690   0.09490   0.01267  Uiso   1.00
N14    N     0.79350   0.36960   0.00180   0.01267  Uiso   1.00
N15    N     0.92430   0.65230   0.63780   0.01267  Uiso   1.00
N16    N     0.97660   0.79650   0.33800   0.01267  Uiso   1.00
N17    N     0.65670   0.32620   0.03220   0.01267  Uiso   1.00
N18    N     0.16850   0.87370   0.36610   0.01267  Uiso   1.00
N19    N     0.66350   0.54570   0.15090   0.01267  Uiso   1.00
N20    N     0.77770   0.67480   0.64280   0.01267  Uiso   1.00
N21    N     0.94180   0.86330   0.40290   0.01267  Uiso   1.00
N22    N     0.13620   0.60050   0.59700   0.01267  Uiso   1.00
N23    N     0.14520   0.66800   0.66040   0.01267  Uiso   1.00
N24    N     0.30770   0.90680   0.36190   0.01267  Uiso   1.00
O1     O     0.82700   0.04440   0.12700   0.01267  Uiso   1.00
O2     O     0.95570   0.11800   0.92550   0.01267  Uiso   1.00
O3     O     0.13070   0.24380   0.87280   0.01267  Uiso   1.00
O4     O     0.05040   0.10320   0.11210   0.01267  Uiso   1.00
O5     O     0.68590   0.77710   0.96910   0.01267  Uiso   1.00
O6     O     0.64340   0.96380   0.86500   0.01267  Uiso   1.00
O7     O     0.17300   0.95560   0.87300   0.01267  Uiso   1.00
O8     O     0.04430   0.88200   0.07450   0.01267  Uiso   1.00
O9     O     0.86930   0.75620   0.12720   0.01267  Uiso   1.00
O10    O     0.94960   0.89680   0.88790   0.01267  Uiso   1.00
O11    O     0.31410   0.22290   0.03090   0.01267  Uiso   1.00
O12    O     0.35660   0.03620   0.13500   0.01267  Uiso   1.00
