data_image0
_cell_length_a       18.675
_cell_length_b       10.22
_cell_length_c       13.419
_cell_angle_alpha    90
_cell_angle_beta     98.29
_cell_angle_gamma    90

_symmetry_space_group_name_H-M    "P 1"
_symmetry_int_tables_number       1

loop_
  _symmetry_equiv_pos_as_xyz
  'x, y, z'

loop_
  _atom_site_label
  _atom_site_occupancy
  _atom_site_fract_x
  _atom_site_fract_y
  _atom_site_fract_z
  _atom_site_thermal_displace_type
  _atom_site_B_iso_or_equiv
  _atom_site_type_symbol
  In1      1.0000 0.77422  0.50366  0.97135  Biso   1.000  In
  O1       1.0000 0.99870  0.98290  0.15810  Biso   1.000  O
  O2       1.0000 0.85111  0.65810  0.96540  Biso   1.000  O
  O3       1.0000 0.18633  0.86860  0.95440  Biso   1.000  O
  O4       1.0000 0.80404  0.84270  0.06540  Biso   1.000  O
  O5       1.0000 0.90310  0.07980  0.21740  Biso   1.000  O
  H1       1.0000 0.90760  0.11630  0.16430  Biso   1.000  H
  O6       1.0000 0.75120  0.28160  0.72090  Biso   1.000  O
  H2       1.0000 0.73360  0.25150  0.66620  Biso   1.000  H
  O7       1.0000 0.78190  0.48750  0.81470  Biso   1.000  O
  O8       1.0000 0.90718  0.87860  0.96480  Biso   1.000  O
  O9       1.0000 0.14554  0.64210  0.99690  Biso   1.000  O
  O10      1.0000 0.06360  0.82880  0.00310  Biso   1.000  O
  O11      1.0000 0.78740  0.47830  0.63130  Biso   1.000  O
  P1       1.0000 0.86904  0.78306  0.02594  Biso   1.000  P
  P2       1.0000 0.14217  0.78718  0.01941  Biso   1.000  P
  P3       1.0000 0.96408  0.97380  0.24192  Biso   1.000  P
  P4       1.0000 0.75009  0.43187  0.71576  Biso   1.000  P
  H3       1.0000 0.68000  0.43700  0.71700  Biso   1.000  H
  H4       1.0000 0.17000  0.80600  0.11700  Biso   1.000  H
  H5       1.0000 0.91200  0.75100  0.11000  Biso   1.000  H
  H6       1.0000 0.92800  0.85900  0.25000  Biso   1.000  H
  In2      1.0000 0.27422  0.00366  0.97135  Biso   1.000  In
  O12      1.0000 0.49870  0.48290  0.15810  Biso   1.000  O
  O13      1.0000 0.35111  0.15810  0.96540  Biso   1.000  O
  O14      1.0000 0.68633  0.36860  0.95440  Biso   1.000  O
  O15      1.0000 0.30404  0.34270  0.06540  Biso   1.000  O
  O16      1.0000 0.40310  0.57980  0.21740  Biso   1.000  O
  H7       1.0000 0.40760  0.61630  0.16430  Biso   1.000  H
  O17      1.0000 0.25120  0.78160  0.72090  Biso   1.000  O
  H8       1.0000 0.23360  0.75150  0.66620  Biso   1.000  H
  O18      1.0000 0.28190  0.98750  0.81470  Biso   1.000  O
  O19      1.0000 0.40718  0.37860  0.96480  Biso   1.000  O
  O20      1.0000 0.64554  0.14210  0.99690  Biso   1.000  O
  O21      1.0000 0.56360  0.32880  0.00310  Biso   1.000  O
  O22      1.0000 0.28740  0.97830  0.63130  Biso   1.000  O
  P5       1.0000 0.36904  0.28306  0.02594  Biso   1.000  P
  P6       1.0000 0.64217  0.28718  0.01941  Biso   1.000  P
  P7       1.0000 0.46408  0.47380  0.24192  Biso   1.000  P
  P8       1.0000 0.25009  0.93187  0.71576  Biso   1.000  P
  H9       1.0000 0.18000  0.93700  0.71700  Biso   1.000  H
  H10      1.0000 0.67000  0.30600  0.11700  Biso   1.000  H
  H11      1.0000 0.41200  0.25100  0.11000  Biso   1.000  H
  H12      1.0000 0.42800  0.35900  0.25000  Biso   1.000  H
  In3      1.0000 0.22578  0.50366  0.52865  Biso   1.000  In
  O23      1.0000 0.00130  0.98290  0.34190  Biso   1.000  O
  O24      1.0000 0.14889  0.65810  0.53460  Biso   1.000  O
  O25      1.0000 0.81367  0.86860  0.54560  Biso   1.000  O
  O26      1.0000 0.19596  0.84270  0.43460  Biso   1.000  O
  O27      1.0000 0.09690  0.07980  0.28260  Biso   1.000  O
  H13      1.0000 0.09240  0.11630  0.33570  Biso   1.000  H
  O28      1.0000 0.24880  0.28160  0.77910  Biso   1.000  O
  H14      1.0000 0.26640  0.25150  0.83380  Biso   1.000  H
  O29      1.0000 0.21810  0.48750  0.68530  Biso   1.000  O
  O30      1.0000 0.09282  0.87860  0.53520  Biso   1.000  O
  O31      1.0000 0.85446  0.64210  0.50310  Biso   1.000  O
  O32      1.0000 0.93640  0.82880  0.49690  Biso   1.000  O
  O33      1.0000 0.21260  0.47830  0.86870  Biso   1.000  O
  P9       1.0000 0.13096  0.78306  0.47406  Biso   1.000  P
  P10      1.0000 0.85783  0.78718  0.48059  Biso   1.000  P
  P11      1.0000 0.03592  0.97380  0.25808  Biso   1.000  P
  P12      1.0000 0.24991  0.43187  0.78424  Biso   1.000  P
  H15      1.0000 0.32000  0.43700  0.78300  Biso   1.000  H
  H16      1.0000 0.83000  0.80600  0.38300  Biso   1.000  H
  H17      1.0000 0.08800  0.75100  0.39000  Biso   1.000  H
  H18      1.0000 0.07200  0.85900  0.25000  Biso   1.000  H
  In4      1.0000 0.72578  0.00366  0.52865  Biso   1.000  In
  O34      1.0000 0.50130  0.48290  0.34190  Biso   1.000  O
  O35      1.0000 0.64889  0.15810  0.53460  Biso   1.000  O
  O36      1.0000 0.31367  0.36860  0.54560  Biso   1.000  O
  O37      1.0000 0.69596  0.34270  0.43460  Biso   1.000  O
  O38      1.0000 0.59690  0.57980  0.28260  Biso   1.000  O
  H19      1.0000 0.59240  0.61630  0.33570  Biso   1.000  H
  O39      1.0000 0.74880  0.78160  0.77910  Biso   1.000  O
  H20      1.0000 0.76640  0.75150  0.83380  Biso   1.000  H
  O40      1.0000 0.71810  0.98750  0.68530  Biso   1.000  O
  O41      1.0000 0.59282  0.37860  0.53520  Biso   1.000  O
  O42      1.0000 0.35446  0.14210  0.50310  Biso   1.000  O
  O43      1.0000 0.43640  0.32880  0.49690  Biso   1.000  O
  O44      1.0000 0.71260  0.97830  0.86870  Biso   1.000  O
  P13      1.0000 0.63096  0.28306  0.47406  Biso   1.000  P
  P14      1.0000 0.35783  0.28718  0.48059  Biso   1.000  P
  P15      1.0000 0.53592  0.47380  0.25808  Biso   1.000  P
  P16      1.0000 0.74991  0.93187  0.78424  Biso   1.000  P
  H21      1.0000 0.82000  0.93700  0.78300  Biso   1.000  H
  H22      1.0000 0.33000  0.30600  0.38300  Biso   1.000  H
  H23      1.0000 0.58800  0.25100  0.39000  Biso   1.000  H
  H24      1.0000 0.57200  0.35900  0.25000  Biso   1.000  H
  In5      1.0000 0.22578  0.49634  0.02865  Biso   1.000  In
  O45      1.0000 0.00130  0.01710  0.84190  Biso   1.000  O
  O46      1.0000 0.14889  0.34190  0.03460  Biso   1.000  O
  O47      1.0000 0.81367  0.13140  0.04560  Biso   1.000  O
  O48      1.0000 0.19596  0.15730  0.93460  Biso   1.000  O
  O49      1.0000 0.09690  0.92020  0.78260  Biso   1.000  O
  H25      1.0000 0.09240  0.88370  0.83570  Biso   1.000  H
  O50      1.0000 0.24880  0.71840  0.27910  Biso   1.000  O
  H26      1.0000 0.26640  0.74850  0.33380  Biso   1.000  H
  O51      1.0000 0.21810  0.51250  0.18530  Biso   1.000  O
  O52      1.0000 0.09282  0.12140  0.03520  Biso   1.000  O
  O53      1.0000 0.85446  0.35790  0.00310  Biso   1.000  O
  O54      1.0000 0.93640  0.17120  0.99690  Biso   1.000  O
  O55      1.0000 0.21260  0.52170  0.36870  Biso   1.000  O
  P17      1.0000 0.13096  0.21694  0.97406  Biso   1.000  P
  P18      1.0000 0.85783  0.21282  0.98059  Biso   1.000  P
  P19      1.0000 0.03592  0.02620  0.75808  Biso   1.000  P
  P20      1.0000 0.24991  0.56813  0.28424  Biso   1.000  P
  H27      1.0000 0.32000  0.56300  0.28300  Biso   1.000  H
  H28      1.0000 0.83000  0.19400  0.88300  Biso   1.000  H
  H29      1.0000 0.08800  0.24900  0.89000  Biso   1.000  H
  H30      1.0000 0.07200  0.14100  0.75000  Biso   1.000  H
  In6      1.0000 0.72578  0.99634  0.02865  Biso   1.000  In
  O56      1.0000 0.50130  0.51710  0.84190  Biso   1.000  O
  O57      1.0000 0.64889  0.84190  0.03460  Biso   1.000  O
  O58      1.0000 0.31367  0.63140  0.04560  Biso   1.000  O
  O59      1.0000 0.69596  0.65730  0.93460  Biso   1.000  O
  O60      1.0000 0.59690  0.42020  0.78260  Biso   1.000  O
  H31      1.0000 0.59240  0.38370  0.83570  Biso   1.000  H
  O61      1.0000 0.74880  0.21840  0.27910  Biso   1.000  O
  H32      1.0000 0.76640  0.24850  0.33380  Biso   1.000  H
  O62      1.0000 0.71810  0.01250  0.18530  Biso   1.000  O
  O63      1.0000 0.59282  0.62140  0.03520  Biso   1.000  O
  O64      1.0000 0.35446  0.85790  0.00310  Biso   1.000  O
  O65      1.0000 0.43640  0.67120  0.99690  Biso   1.000  O
  O66      1.0000 0.71260  0.02170  0.36870  Biso   1.000  O
  P21      1.0000 0.63096  0.71694  0.97406  Biso   1.000  P
  P22      1.0000 0.35783  0.71282  0.98059  Biso   1.000  P
  P23      1.0000 0.53592  0.52620  0.75808  Biso   1.000  P
  P24      1.0000 0.74991  0.06813  0.28424  Biso   1.000  P
  H33      1.0000 0.82000  0.06300  0.28300  Biso   1.000  H
  H34      1.0000 0.33000  0.69400  0.88300  Biso   1.000  H
  H35      1.0000 0.58800  0.74900  0.89000  Biso   1.000  H
  H36      1.0000 0.57200  0.64100  0.75000  Biso   1.000  H
  In7      1.0000 0.77422  0.49634  0.47135  Biso   1.000  In
  O67      1.0000 0.99870  0.01710  0.65810  Biso   1.000  O
  O68      1.0000 0.85111  0.34190  0.46540  Biso   1.000  O
  O69      1.0000 0.18633  0.13140  0.45440  Biso   1.000  O
  O70      1.0000 0.80404  0.15730  0.56540  Biso   1.000  O
  O71      1.0000 0.90310  0.92020  0.71740  Biso   1.000  O
  H37      1.0000 0.90760  0.88370  0.66430  Biso   1.000  H
  O72      1.0000 0.75120  0.71840  0.22090  Biso   1.000  O
  H38      1.0000 0.73360  0.74850  0.16620  Biso   1.000  H
  O73      1.0000 0.78190  0.51250  0.31470  Biso   1.000  O
  O74      1.0000 0.90718  0.12140  0.46480  Biso   1.000  O
  O75      1.0000 0.14554  0.35790  0.49690  Biso   1.000  O
  O76      1.0000 0.06360  0.17120  0.50310  Biso   1.000  O
  O77      1.0000 0.78740  0.52170  0.13130  Biso   1.000  O
  P25      1.0000 0.86904  0.21694  0.52594  Biso   1.000  P
  P26      1.0000 0.14217  0.21282  0.51941  Biso   1.000  P
  P27      1.0000 0.96408  0.02620  0.74192  Biso   1.000  P
  P28      1.0000 0.75009  0.56813  0.21576  Biso   1.000  P
  H39      1.0000 0.68000  0.56300  0.21700  Biso   1.000  H
  H40      1.0000 0.17000  0.19400  0.61700  Biso   1.000  H
  H41      1.0000 0.91200  0.24900  0.61000  Biso   1.000  H
  H42      1.0000 0.92800  0.14100  0.75000  Biso   1.000  H
  In8      1.0000 0.27422  0.99634  0.47135  Biso   1.000  In
  O78      1.0000 0.49870  0.51710  0.65810  Biso   1.000  O
  O79      1.0000 0.35111  0.84190  0.46540  Biso   1.000  O
  O80      1.0000 0.68633  0.63140  0.45440  Biso   1.000  O
  O81      1.0000 0.30404  0.65730  0.56540  Biso   1.000  O
  O82      1.0000 0.40310  0.42020  0.71740  Biso   1.000  O
  H43      1.0000 0.40760  0.38370  0.66430  Biso   1.000  H
  O83      1.0000 0.25120  0.21840  0.22090  Biso   1.000  O
  H44      1.0000 0.23360  0.24850  0.16620  Biso   1.000  H
  O84      1.0000 0.28190  0.01250  0.31470  Biso   1.000  O
  O85      1.0000 0.40718  0.62140  0.46480  Biso   1.000  O
  O86      1.0000 0.64554  0.85790  0.49690  Biso   1.000  O
  O87      1.0000 0.56360  0.67120  0.50310  Biso   1.000  O
  O88      1.0000 0.28740  0.02170  0.13130  Biso   1.000  O
  P29      1.0000 0.36904  0.71694  0.52594  Biso   1.000  P
  P30      1.0000 0.64217  0.71282  0.51941  Biso   1.000  P
  P31      1.0000 0.46408  0.52620  0.74192  Biso   1.000  P
  P32      1.0000 0.25009  0.06813  0.21576  Biso   1.000  P
  H45      1.0000 0.18000  0.06300  0.21700  Biso   1.000  H
  H46      1.0000 0.67000  0.69400  0.61700  Biso   1.000  H
  H47      1.0000 0.41200  0.74900  0.61000  Biso   1.000  H
  H48      1.0000 0.42800  0.64100  0.75000  Biso   1.000  H
  In9      1.0000 0.00000  0.00000  0.00000  Biso   1.000  In
  In10     1.0000 0.50000  0.50000  0.00000  Biso   1.000  In
  In11     1.0000 0.00000  0.00000  0.50000  Biso   1.000  In
  In12     1.0000 0.50000  0.50000  0.50000  Biso   1.000  In
