data_image0
_cell_length_a       26.7974
_cell_length_b       9.8459
_cell_length_c       18.5441
_cell_angle_alpha    90
_cell_angle_beta     90
_cell_angle_gamma    90

_symmetry_space_group_name_H-M    "P 1"
_symmetry_int_tables_number       1

loop_
  _symmetry_equiv_pos_as_xyz
  'x, y, z'

loop_
  _atom_site_label
  _atom_site_occupancy
  _atom_site_fract_x
  _atom_site_fract_y
  _atom_site_fract_z
  _atom_site_thermal_displace_type
  _atom_site_B_iso_or_equiv
  _atom_site_type_symbol
  H1       1.0000 0.43700  0.07300  0.64800  Biso   1.000  H
  H2       1.0000 0.42200  0.41200  0.96000  Biso   1.000  H
  H3       1.0000 0.35500  0.50800  0.72900  Biso   1.000  H
  H4       1.0000 0.68800  0.08000  0.64600  Biso   1.000  H
  H5       1.0000 0.40800  0.44500  0.39000  Biso   1.000  H
  H6       1.0000 0.58400  0.52900  0.71700  Biso   1.000  H
  H7       1.0000 0.31300  0.92300  0.49200  Biso   1.000  H
  H8       1.0000 0.27200  0.62300  0.49600  Biso   1.000  H
  H9       1.0000 0.49200  0.37300  0.60700  Biso   1.000  H
  In1      1.0000 0.40038  0.23682  0.80539  Biso   1.000  In
  In2      1.0000 0.40107  0.73078  0.56957  Biso   1.000  In
  In3      1.0000 0.65009  0.24873  0.80811  Biso   1.000  In
  In4      1.0000 0.34876  0.25515  0.07099  Biso   1.000  In
  In5      1.0000 0.35529  0.24232  0.54460  Biso   1.000  In
  In6      1.0000 0.39443  0.75311  0.03502  Biso   1.000  In
  O1       1.0000 0.57190  0.26730  0.82610  Biso   1.000  O
  O2       1.0000 0.27260  0.31300  0.90010  Biso   1.000  O
  H10      1.0000 0.29940  0.34140  0.91530  Biso   1.000  H
  O3       1.0000 0.41600  0.35640  0.71360  Biso   1.000  O
  O4       1.0000 0.38870  0.89390  0.94990  Biso   1.000  O
  O5       1.0000 0.33880  0.08440  0.00480  Biso   1.000  O
  O6       1.0000 0.39370  0.88520  0.49230  Biso   1.000  O
  O7       1.0000 0.32350  0.71830  0.58710  Biso   1.000  O
  O8       1.0000 0.36070  0.08480  0.62400  Biso   1.000  O
  O9       1.0000 0.23100  0.76330  0.58250  Biso   1.000  O
  O10      1.0000 0.40210  0.57720  0.48740  Biso   1.000  O
  O11      1.0000 0.34823  0.38680  0.97720  Biso   1.000  O
  O12      1.0000 0.40550  0.86750  0.65980  Biso   1.000  O
  O13      1.0000 0.34880  0.40180  0.62070  Biso   1.000  O
  O14      1.0000 0.64310  0.87590  0.66260  Biso   1.000  O
  O15      1.0000 0.43340  0.25640  0.53090  Biso   1.000  O
  O16      1.0000 0.60120  0.09320  0.61830  Biso   1.000  O
  O17      1.0000 0.47960  0.22430  0.82460  Biso   1.000  O
  O18      1.0000 0.27638  0.21500  0.56110  Biso   1.000  O
  O19      1.0000 0.22930  0.24820  0.78490  Biso   1.000  O
  O20      1.0000 0.32130  0.23740  0.78900  Biso   1.000  O
  O21      1.0000 0.33920  0.39020  0.46250  Biso   1.000  O
  O22      1.0000 0.52559  0.22360  0.52240  Biso   1.000  O
  O23      1.0000 0.33740  0.59780  0.38570  Biso   1.000  O
  O24      1.0000 0.47930  0.74730  0.55030  Biso   1.000  O
  O25      1.0000 0.39980  0.05170  0.74700  Biso   1.000  O
  O26      1.0000 0.65630  0.57460  0.63800  Biso   1.000  O
  O27      1.0000 0.63720  0.07430  0.74400  Biso   1.000  O
  O28      1.0000 0.41640  0.57670  0.64790  Biso   1.000  O
  O29      1.0000 0.39200  0.42910  0.85900  Biso   1.000  O
  O30      1.0000 0.57250  0.73600  0.56840  Biso   1.000  O
  O31      1.0000 0.39840  0.12960  0.90300  Biso   1.000  O
  O32      1.0000 0.33540  0.90390  0.38440  Biso   1.000  O
  O33      1.0000 0.18310  0.23620  0.55210  Biso   1.000  O
  O34      1.0000 0.35210  0.10680  0.45730  Biso   1.000  O
  O35      1.0000 0.64800  0.38150  0.72070  Biso   1.000  O
  O36      1.0000 0.39000  0.61230  0.94940  Biso   1.000  O
  O37      1.0000 0.58990  0.39700  0.61300  Biso   1.000  O
  O38      1.0000 0.26210  0.53400  0.60890  Biso   1.000  O
  H11      1.0000 0.28430  0.47860  0.60100  Biso   1.000  H
  O39      1.0000 0.49030  0.44750  0.49620  Biso   1.000  O
  H12      1.0000 0.46920  0.50370  0.50780  Biso   1.000  H
  O40      1.0000 0.24210  0.32090  0.45190  Biso   1.000  O
  H13      1.0000 0.26750  0.29850  0.43040  Biso   1.000  H
  O41      1.0000 0.52170  0.93920  0.60110  Biso   1.000  O
  H14      1.0000 0.54520  0.96580  0.62570  Biso   1.000  H
  O42      1.0000 0.52490  0.17930  0.71490  Biso   1.000  O
  H15      1.0000 0.54780  0.20240  0.68830  Biso   1.000  H
  O43      1.0000 0.27940  0.44610  0.82510  Biso   1.000  O
  H16      1.0000 0.30610  0.46500  0.84440  Biso   1.000  H
  P1       1.0000 0.36312  0.02944  0.93787  Biso   1.000  P
  H17      1.0000 0.32890  0.01050  0.90500  Biso   1.000  H
  P2       1.0000 0.40311  0.02140  0.66696  Biso   1.000  P
  P3       1.0000 0.39188  0.45910  0.93986  Biso   1.000  P
  P4       1.0000 0.52317  0.78200  0.59599  Biso   1.000  P
  P5       1.0000 0.38394  0.46329  0.67702  Biso   1.000  P
  P6       1.0000 0.52407  0.27380  0.78372  Biso   1.000  P
  H18      1.0000 0.51020  0.42350  0.76020  Biso   1.000  H
  P7       1.0000 0.64311  0.03250  0.66544  Biso   1.000  P
  P8       1.0000 0.37085  0.50587  0.43069  Biso   1.000  P
  P9       1.0000 0.61959  0.47230  0.66932  Biso   1.000  P
  P10      1.0000 0.27516  0.30000  0.81801  Biso   1.000  P
  P11      1.0000 0.23161  0.21910  0.51228  Biso   1.000  P
  H19      1.0000 0.22900  0.10270  0.46340  Biso   1.000  H
  P12      1.0000 0.34749  0.95280  0.45988  Biso   1.000  P
  P13      1.0000 0.27258  0.66610  0.56601  Biso   1.000  P
  P14      1.0000 0.48378  0.31820  0.54195  Biso   1.000  P
  H20      1.0000 0.56300  0.92700  0.14800  Biso   1.000  H
  H21      1.0000 0.57800  0.58800  0.46000  Biso   1.000  H
  H22      1.0000 0.64500  0.49200  0.22900  Biso   1.000  H
  H23      1.0000 0.31200  0.92000  0.14600  Biso   1.000  H
  H24      1.0000 0.59200  0.55500  0.89000  Biso   1.000  H
  H25      1.0000 0.41600  0.47100  0.21700  Biso   1.000  H
  H26      1.0000 0.68700  0.07700  0.99200  Biso   1.000  H
  H27      1.0000 0.72800  0.37700  0.99600  Biso   1.000  H
  H28      1.0000 0.50800  0.62700  0.10700  Biso   1.000  H
  In7      1.0000 0.59962  0.76318  0.30539  Biso   1.000  In
  In8      1.0000 0.59893  0.26922  0.06957  Biso   1.000  In
  In9      1.0000 0.34991  0.75127  0.30811  Biso   1.000  In
  In10     1.0000 0.65124  0.74485  0.57099  Biso   1.000  In
  In11     1.0000 0.64471  0.75768  0.04460  Biso   1.000  In
  In12     1.0000 0.60557  0.24689  0.53502  Biso   1.000  In
  O44      1.0000 0.42810  0.73270  0.32610  Biso   1.000  O
  O45      1.0000 0.72740  0.68700  0.40010  Biso   1.000  O
  H29      1.0000 0.70060  0.65860  0.41530  Biso   1.000  H
  O46      1.0000 0.58400  0.64360  0.21360  Biso   1.000  O
  O47      1.0000 0.61130  0.10610  0.44990  Biso   1.000  O
  O48      1.0000 0.66120  0.91560  0.50480  Biso   1.000  O
  O49      1.0000 0.60630  0.11480  0.99230  Biso   1.000  O
  O50      1.0000 0.67650  0.28170  0.08710  Biso   1.000  O
  O51      1.0000 0.63930  0.91520  0.12400  Biso   1.000  O
  O52      1.0000 0.76900  0.23670  0.08250  Biso   1.000  O
  O53      1.0000 0.59790  0.42280  0.98740  Biso   1.000  O
  O54      1.0000 0.65177  0.61320  0.47720  Biso   1.000  O
  O55      1.0000 0.59450  0.13250  0.15980  Biso   1.000  O
  O56      1.0000 0.65120  0.59820  0.12070  Biso   1.000  O
  O57      1.0000 0.35690  0.12410  0.16260  Biso   1.000  O
  O58      1.0000 0.56660  0.74360  0.03090  Biso   1.000  O
  O59      1.0000 0.39880  0.90680  0.11830  Biso   1.000  O
  O60      1.0000 0.52040  0.77570  0.32460  Biso   1.000  O
  O61      1.0000 0.72362  0.78500  0.06110  Biso   1.000  O
  O62      1.0000 0.77070  0.75180  0.28490  Biso   1.000  O
  O63      1.0000 0.67870  0.76260  0.28900  Biso   1.000  O
  O64      1.0000 0.66080  0.60980  0.96250  Biso   1.000  O
  O65      1.0000 0.47441  0.77640  0.02240  Biso   1.000  O
  O66      1.0000 0.66260  0.40220  0.88570  Biso   1.000  O
  O67      1.0000 0.52070  0.25270  0.05030  Biso   1.000  O
  O68      1.0000 0.60020  0.94830  0.24700  Biso   1.000  O
  O69      1.0000 0.34370  0.42540  0.13800  Biso   1.000  O
  O70      1.0000 0.36280  0.92570  0.24400  Biso   1.000  O
  O71      1.0000 0.58360  0.42330  0.14790  Biso   1.000  O
  O72      1.0000 0.60800  0.57090  0.35900  Biso   1.000  O
  O73      1.0000 0.42750  0.26400  0.06840  Biso   1.000  O
  O74      1.0000 0.60160  0.87040  0.40300  Biso   1.000  O
  O75      1.0000 0.66460  0.09610  0.88440  Biso   1.000  O
  O76      1.0000 0.81690  0.76380  0.05210  Biso   1.000  O
  O77      1.0000 0.64790  0.89320  0.95730  Biso   1.000  O
  O78      1.0000 0.35200  0.61850  0.22070  Biso   1.000  O
  O79      1.0000 0.61000  0.38770  0.44940  Biso   1.000  O
  O80      1.0000 0.41010  0.60300  0.11300  Biso   1.000  O
  O81      1.0000 0.73790  0.46600  0.10890  Biso   1.000  O
  H30      1.0000 0.71570  0.52140  0.10100  Biso   1.000  H
  O82      1.0000 0.50970  0.55250  0.99620  Biso   1.000  O
  H31      1.0000 0.53080  0.49630  0.00780  Biso   1.000  H
  O83      1.0000 0.75790  0.67910  0.95190  Biso   1.000  O
  H32      1.0000 0.73250  0.70150  0.93040  Biso   1.000  H
  O84      1.0000 0.47830  0.06080  0.10110  Biso   1.000  O
  H33      1.0000 0.45480  0.03420  0.12570  Biso   1.000  H
  O85      1.0000 0.47510  0.82070  0.21490  Biso   1.000  O
  H34      1.0000 0.45220  0.79760  0.18830  Biso   1.000  H
  O86      1.0000 0.72060  0.55390  0.32510  Biso   1.000  O
  H35      1.0000 0.69390  0.53500  0.34440  Biso   1.000  H
  P15      1.0000 0.63688  0.97056  0.43787  Biso   1.000  P
  H36      1.0000 0.67110  0.98950  0.40500  Biso   1.000  H
  P16      1.0000 0.59689  0.97860  0.16696  Biso   1.000  P
  P17      1.0000 0.60812  0.54090  0.43986  Biso   1.000  P
  P18      1.0000 0.47683  0.21800  0.09599  Biso   1.000  P
  P19      1.0000 0.61606  0.53671  0.17702  Biso   1.000  P
  P20      1.0000 0.47593  0.72620  0.28372  Biso   1.000  P
  H37      1.0000 0.48980  0.57650  0.26020  Biso   1.000  H
  P21      1.0000 0.35689  0.96750  0.16544  Biso   1.000  P
  P22      1.0000 0.62915  0.49413  0.93069  Biso   1.000  P
  P23      1.0000 0.38041  0.52770  0.16932  Biso   1.000  P
  P24      1.0000 0.72484  0.70000  0.31801  Biso   1.000  P
  P25      1.0000 0.76839  0.78090  0.01228  Biso   1.000  P
  H38      1.0000 0.77100  0.89730  0.96340  Biso   1.000  H
  P26      1.0000 0.65251  0.04720  0.95988  Biso   1.000  P
  P27      1.0000 0.72742  0.33390  0.06601  Biso   1.000  P
  P28      1.0000 0.51622  0.68180  0.04195  Biso   1.000  P
  H39      1.0000 0.93700  0.42700  0.64800  Biso   1.000  H
  H40      1.0000 0.92200  0.08800  0.96000  Biso   1.000  H
  H41      1.0000 0.85500  0.99200  0.72900  Biso   1.000  H
  H42      1.0000 0.18800  0.42000  0.64600  Biso   1.000  H
  H43      1.0000 0.90800  0.05500  0.39000  Biso   1.000  H
  H44      1.0000 0.08400  0.97100  0.71700  Biso   1.000  H
  H45      1.0000 0.81300  0.57700  0.49200  Biso   1.000  H
  H46      1.0000 0.77200  0.87700  0.49600  Biso   1.000  H
  H47      1.0000 0.99200  0.12700  0.60700  Biso   1.000  H
  In13     1.0000 0.90038  0.26318  0.80539  Biso   1.000  In
  In14     1.0000 0.90107  0.76922  0.56957  Biso   1.000  In
  In15     1.0000 0.15009  0.25127  0.80811  Biso   1.000  In
  In16     1.0000 0.84876  0.24485  0.07099  Biso   1.000  In
  In17     1.0000 0.85529  0.25768  0.54460  Biso   1.000  In
  In18     1.0000 0.89443  0.74689  0.03502  Biso   1.000  In
  O87      1.0000 0.07190  0.23270  0.82610  Biso   1.000  O
  O88      1.0000 0.77260  0.18700  0.90010  Biso   1.000  O
  H48      1.0000 0.79940  0.15860  0.91530  Biso   1.000  H
  O89      1.0000 0.91600  0.14360  0.71360  Biso   1.000  O
  O90      1.0000 0.88870  0.60610  0.94990  Biso   1.000  O
  O91      1.0000 0.83880  0.41560  0.00480  Biso   1.000  O
  O92      1.0000 0.89370  0.61480  0.49230  Biso   1.000  O
  O93      1.0000 0.82350  0.78170  0.58710  Biso   1.000  O
  O94      1.0000 0.86070  0.41520  0.62400  Biso   1.000  O
  O95      1.0000 0.73100  0.73670  0.58250  Biso   1.000  O
  O96      1.0000 0.90210  0.92280  0.48740  Biso   1.000  O
  O97      1.0000 0.84823  0.11320  0.97720  Biso   1.000  O
  O98      1.0000 0.90550  0.63250  0.65980  Biso   1.000  O
  O99      1.0000 0.84880  0.09820  0.62070  Biso   1.000  O
  O100     1.0000 0.14310  0.62410  0.66260  Biso   1.000  O
  O101     1.0000 0.93340  0.24360  0.53090  Biso   1.000  O
  O102     1.0000 0.10120  0.40680  0.61830  Biso   1.000  O
  O103     1.0000 0.97960  0.27570  0.82460  Biso   1.000  O
  O104     1.0000 0.77638  0.28500  0.56110  Biso   1.000  O
  O105     1.0000 0.72930  0.25180  0.78490  Biso   1.000  O
  O106     1.0000 0.82130  0.26260  0.78900  Biso   1.000  O
  O107     1.0000 0.83920  0.10980  0.46250  Biso   1.000  O
  O108     1.0000 0.02559  0.27640  0.52240  Biso   1.000  O
  O109     1.0000 0.83740  0.90220  0.38570  Biso   1.000  O
  O110     1.0000 0.97930  0.75270  0.55030  Biso   1.000  O
  O111     1.0000 0.89980  0.44830  0.74700  Biso   1.000  O
  O112     1.0000 0.15630  0.92540  0.63800  Biso   1.000  O
  O113     1.0000 0.13720  0.42570  0.74400  Biso   1.000  O
  O114     1.0000 0.91640  0.92330  0.64790  Biso   1.000  O
  O115     1.0000 0.89200  0.07090  0.85900  Biso   1.000  O
  O116     1.0000 0.07250  0.76400  0.56840  Biso   1.000  O
  O117     1.0000 0.89840  0.37040  0.90300  Biso   1.000  O
  O118     1.0000 0.83540  0.59610  0.38440  Biso   1.000  O
  O119     1.0000 0.68310  0.26380  0.55210  Biso   1.000  O
  O120     1.0000 0.85210  0.39320  0.45730  Biso   1.000  O
  O121     1.0000 0.14800  0.11850  0.72070  Biso   1.000  O
  O122     1.0000 0.89000  0.88770  0.94940  Biso   1.000  O
  O123     1.0000 0.08990  0.10300  0.61300  Biso   1.000  O
  O124     1.0000 0.76210  0.96600  0.60890  Biso   1.000  O
  H49      1.0000 0.78430  0.02140  0.60100  Biso   1.000  H
  O125     1.0000 0.99030  0.05250  0.49620  Biso   1.000  O
  H50      1.0000 0.96920  0.99630  0.50780  Biso   1.000  H
  O126     1.0000 0.74210  0.17910  0.45190  Biso   1.000  O
  H51      1.0000 0.76750  0.20150  0.43040  Biso   1.000  H
  O127     1.0000 0.02170  0.56080  0.60110  Biso   1.000  O
  H52      1.0000 0.04520  0.53420  0.62570  Biso   1.000  H
  O128     1.0000 0.02490  0.32070  0.71490  Biso   1.000  O
  H53      1.0000 0.04780  0.29760  0.68830  Biso   1.000  H
  O129     1.0000 0.77940  0.05390  0.82510  Biso   1.000  O
  H54      1.0000 0.80610  0.03500  0.84440  Biso   1.000  H
  P29      1.0000 0.86312  0.47056  0.93787  Biso   1.000  P
  H55      1.0000 0.82890  0.48950  0.90500  Biso   1.000  H
  P30      1.0000 0.90311  0.47860  0.66696  Biso   1.000  P
  P31      1.0000 0.89188  0.04090  0.93986  Biso   1.000  P
  P32      1.0000 0.02317  0.71800  0.59599  Biso   1.000  P
  P33      1.0000 0.88394  0.03671  0.67702  Biso   1.000  P
  P34      1.0000 0.02407  0.22620  0.78372  Biso   1.000  P
  H56      1.0000 0.01020  0.07650  0.76020  Biso   1.000  H
  P35      1.0000 0.14311  0.46750  0.66544  Biso   1.000  P
  P36      1.0000 0.87085  0.99413  0.43069  Biso   1.000  P
  P37      1.0000 0.11959  0.02770  0.66932  Biso   1.000  P
  P38      1.0000 0.77516  0.20000  0.81801  Biso   1.000  P
  P39      1.0000 0.73161  0.28090  0.51228  Biso   1.000  P
  H57      1.0000 0.72900  0.39730  0.46340  Biso   1.000  H
  P40      1.0000 0.84749  0.54720  0.45988  Biso   1.000  P
  P41      1.0000 0.77258  0.83390  0.56601  Biso   1.000  P
  P42      1.0000 0.98378  0.18180  0.54195  Biso   1.000  P
  H58      1.0000 0.06300  0.57300  0.14800  Biso   1.000  H
  H59      1.0000 0.07800  0.91200  0.46000  Biso   1.000  H
  H60      1.0000 0.14500  0.00800  0.22900  Biso   1.000  H
  H61      1.0000 0.81200  0.58000  0.14600  Biso   1.000  H
  H62      1.0000 0.09200  0.94500  0.89000  Biso   1.000  H
  H63      1.0000 0.91600  0.02900  0.21700  Biso   1.000  H
  H64      1.0000 0.18700  0.42300  0.99200  Biso   1.000  H
  H65      1.0000 0.22800  0.12300  0.99600  Biso   1.000  H
  H66      1.0000 0.00800  0.87300  0.10700  Biso   1.000  H
  In19     1.0000 0.09962  0.73682  0.30539  Biso   1.000  In
  In20     1.0000 0.09893  0.23078  0.06957  Biso   1.000  In
  In21     1.0000 0.84991  0.74873  0.30811  Biso   1.000  In
  In22     1.0000 0.15124  0.75515  0.57099  Biso   1.000  In
  In23     1.0000 0.14471  0.74232  0.04460  Biso   1.000  In
  In24     1.0000 0.10557  0.25311  0.53502  Biso   1.000  In
  O130     1.0000 0.92810  0.76730  0.32610  Biso   1.000  O
  O131     1.0000 0.22740  0.81300  0.40010  Biso   1.000  O
  H67      1.0000 0.20060  0.84140  0.41530  Biso   1.000  H
  O132     1.0000 0.08400  0.85640  0.21360  Biso   1.000  O
  O133     1.0000 0.11130  0.39390  0.44990  Biso   1.000  O
  O134     1.0000 0.16120  0.58440  0.50480  Biso   1.000  O
  O135     1.0000 0.10630  0.38520  0.99230  Biso   1.000  O
  O136     1.0000 0.17650  0.21830  0.08710  Biso   1.000  O
  O137     1.0000 0.13930  0.58480  0.12400  Biso   1.000  O
  O138     1.0000 0.26900  0.26330  0.08250  Biso   1.000  O
  O139     1.0000 0.09790  0.07720  0.98740  Biso   1.000  O
  O140     1.0000 0.15177  0.88680  0.47720  Biso   1.000  O
  O141     1.0000 0.09450  0.36750  0.15980  Biso   1.000  O
  O142     1.0000 0.15120  0.90180  0.12070  Biso   1.000  O
  O143     1.0000 0.85690  0.37590  0.16260  Biso   1.000  O
  O144     1.0000 0.06660  0.75640  0.03090  Biso   1.000  O
  O145     1.0000 0.89880  0.59320  0.11830  Biso   1.000  O
  O146     1.0000 0.02040  0.72430  0.32460  Biso   1.000  O
  O147     1.0000 0.22362  0.71500  0.06110  Biso   1.000  O
  O148     1.0000 0.27070  0.74820  0.28490  Biso   1.000  O
  O149     1.0000 0.17870  0.73740  0.28900  Biso   1.000  O
  O150     1.0000 0.16080  0.89020  0.96250  Biso   1.000  O
  O151     1.0000 0.97441  0.72360  0.02240  Biso   1.000  O
  O152     1.0000 0.16260  0.09780  0.88570  Biso   1.000  O
  O153     1.0000 0.02070  0.24730  0.05030  Biso   1.000  O
  O154     1.0000 0.10020  0.55170  0.24700  Biso   1.000  O
  O155     1.0000 0.84370  0.07460  0.13800  Biso   1.000  O
  O156     1.0000 0.86280  0.57430  0.24400  Biso   1.000  O
  O157     1.0000 0.08360  0.07670  0.14790  Biso   1.000  O
  O158     1.0000 0.10800  0.92910  0.35900  Biso   1.000  O
  O159     1.0000 0.92750  0.23600  0.06840  Biso   1.000  O
  O160     1.0000 0.10160  0.62960  0.40300  Biso   1.000  O
  O161     1.0000 0.16460  0.40390  0.88440  Biso   1.000  O
  O162     1.0000 0.31690  0.73620  0.05210  Biso   1.000  O
  O163     1.0000 0.14790  0.60680  0.95730  Biso   1.000  O
  O164     1.0000 0.85200  0.88150  0.22070  Biso   1.000  O
  O165     1.0000 0.11000  0.11230  0.44940  Biso   1.000  O
  O166     1.0000 0.91010  0.89700  0.11300  Biso   1.000  O
  O167     1.0000 0.23790  0.03400  0.10890  Biso   1.000  O
  H68      1.0000 0.21570  0.97860  0.10100  Biso   1.000  H
  O168     1.0000 0.00970  0.94750  0.99620  Biso   1.000  O
  H69      1.0000 0.03080  0.00370  0.00780  Biso   1.000  H
  O169     1.0000 0.25790  0.82090  0.95190  Biso   1.000  O
  H70      1.0000 0.23250  0.79850  0.93040  Biso   1.000  H
  O170     1.0000 0.97830  0.43920  0.10110  Biso   1.000  O
  H71      1.0000 0.95480  0.46580  0.12570  Biso   1.000  H
  O171     1.0000 0.97510  0.67930  0.21490  Biso   1.000  O
  H72      1.0000 0.95220  0.70240  0.18830  Biso   1.000  H
  O172     1.0000 0.22060  0.94610  0.32510  Biso   1.000  O
  H73      1.0000 0.19390  0.96500  0.34440  Biso   1.000  H
  P43      1.0000 0.13688  0.52944  0.43787  Biso   1.000  P
  H74      1.0000 0.17110  0.51050  0.40500  Biso   1.000  H
  P44      1.0000 0.09689  0.52140  0.16696  Biso   1.000  P
  P45      1.0000 0.10812  0.95910  0.43986  Biso   1.000  P
  P46      1.0000 0.97683  0.28200  0.09599  Biso   1.000  P
  P47      1.0000 0.11606  0.96329  0.17702  Biso   1.000  P
  P48      1.0000 0.97593  0.77380  0.28372  Biso   1.000  P
  H75      1.0000 0.98980  0.92350  0.26020  Biso   1.000  H
  P49      1.0000 0.85689  0.53250  0.16544  Biso   1.000  P
  P50      1.0000 0.12915  0.00587  0.93069  Biso   1.000  P
  P51      1.0000 0.88041  0.97230  0.16932  Biso   1.000  P
  P52      1.0000 0.22484  0.80000  0.31801  Biso   1.000  P
  P53      1.0000 0.26839  0.71910  0.01228  Biso   1.000  P
  H76      1.0000 0.27100  0.60270  0.96340  Biso   1.000  H
  P54      1.0000 0.15251  0.45280  0.95988  Biso   1.000  P
  P55      1.0000 0.22742  0.16610  0.06601  Biso   1.000  P
  P56      1.0000 0.01622  0.81820  0.04195  Biso   1.000  P
