data_image0
_cell_length_a       9.876
_cell_length_b       10.3
_cell_length_c       13.498
_cell_angle_alpha    81.96
_cell_angle_beta     86.68
_cell_angle_gamma    65.42

_symmetry_space_group_name_H-M    "P 1"
_symmetry_int_tables_number       1

loop_
  _symmetry_equiv_pos_as_xyz
  'x, y, z'

loop_
  _atom_site_label
  _atom_site_occupancy
  _atom_site_fract_x
  _atom_site_fract_y
  _atom_site_fract_z
  _atom_site_thermal_displace_type
  _atom_site_B_iso_or_equiv
  _atom_site_type_symbol
  Dy1      1.0000 0.33377  0.21780  0.18320  Biso   1.000  Dy
  Cs1      1.0000 0.14932  0.55008  0.38407  Biso   1.000  Cs
  Mo1      1.0000 0.25580  0.37520  0.76029  Biso   1.000  Mo
  O1       1.0000 0.35040  0.44520  0.18490  Biso   1.000  O
  H1       1.0000 0.45360  0.42300  0.20170  Biso   1.000  H
  N1       1.0000 0.09430  0.66090  0.59280  Biso   1.000  N
  N2       1.0000 0.25130  0.26140  0.54220  Biso   1.000  N
  N3       1.0000 0.56730  0.38980  0.66640  Biso   1.000  N
  N4       1.0000 0.51740  0.04200  0.79100  Biso   1.000  N
  N5       1.0000 0.32230  0.62640  0.84900  Biso   1.000  N
  N6       1.0000 0.29340  0.28080  0.00400  Biso   1.000  N
  N7       1.0000 0.91760  0.58680  0.82810  Biso   1.000  N
  N8       1.0000 0.05490  0.18320  0.79570  Biso   1.000  N
  C1       1.0000 0.15490  0.56180  0.64930  Biso   1.000  C
  C2       1.0000 0.25420  0.29820  0.61810  Biso   1.000  C
  C3       1.0000 0.45780  0.38350  0.69550  Biso   1.000  C
  C4       1.0000 0.42760  0.15820  0.78090  Biso   1.000  C
  C5       1.0000 0.29650  0.53870  0.82050  Biso   1.000  C
  C6       1.0000 0.28140  0.31220  0.91970  Biso   1.000  C
  C7       1.0000 0.03710  0.50940  0.80970  Biso   1.000  C
  C8       1.0000 0.12720  0.24760  0.78570  Biso   1.000  C
  C9       1.0000 0.30550  0.56370  0.10510  Biso   1.000  C
  H2       1.0000 0.35830  0.53150  0.04510  Biso   1.000  H
  H3       1.0000 0.32790  0.63950  0.12330  Biso   1.000  H
  H4       1.0000 0.20040  0.59910  0.09390  Biso   1.000  H
  Dy2      1.0000 0.66623  0.78220  0.81680  Biso   1.000  Dy
  Cs2      1.0000 0.85068  0.44992  0.61593  Biso   1.000  Cs
  Mo2      1.0000 0.74420  0.62480  0.23971  Biso   1.000  Mo
  O2       1.0000 0.64960  0.55480  0.81510  Biso   1.000  O
  H5       1.0000 0.54640  0.57700  0.79830  Biso   1.000  H
  N9       1.0000 0.90570  0.33910  0.40720  Biso   1.000  N
  N10      1.0000 0.74870  0.73860  0.45780  Biso   1.000  N
  N11      1.0000 0.43270  0.61020  0.33360  Biso   1.000  N
  N12      1.0000 0.48260  0.95800  0.20900  Biso   1.000  N
  N13      1.0000 0.67770  0.37360  0.15100  Biso   1.000  N
  N14      1.0000 0.70660  0.71920  0.99600  Biso   1.000  N
  N15      1.0000 0.08240  0.41320  0.17190  Biso   1.000  N
  N16      1.0000 0.94510  0.81680  0.20430  Biso   1.000  N
  C10      1.0000 0.84510  0.43820  0.35070  Biso   1.000  C
  C11      1.0000 0.74580  0.70180  0.38190  Biso   1.000  C
  C12      1.0000 0.54220  0.61650  0.30450  Biso   1.000  C
  C13      1.0000 0.57240  0.84180  0.21910  Biso   1.000  C
  C14      1.0000 0.70350  0.46130  0.17950  Biso   1.000  C
  C15      1.0000 0.71860  0.68780  0.08030  Biso   1.000  C
  C16      1.0000 0.96290  0.49060  0.19030  Biso   1.000  C
  C17      1.0000 0.87280  0.75240  0.21430  Biso   1.000  C
  C18      1.0000 0.69450  0.43630  0.89490  Biso   1.000  C
  H6       1.0000 0.64170  0.46850  0.95490  Biso   1.000  H
  H7       1.0000 0.67210  0.36050  0.87670  Biso   1.000  H
  H8       1.0000 0.79960  0.40090  0.90610  Biso   1.000  H
