data_image0
_cell_length_a       6.5634
_cell_length_b       25.3343
_cell_length_c       7.84
_cell_angle_alpha    90
_cell_angle_beta     90.718
_cell_angle_gamma    90

_symmetry_space_group_name_H-M    "P 1"
_symmetry_int_tables_number       1

loop_
  _symmetry_equiv_pos_as_xyz
  'x, y, z'

loop_
  _atom_site_label
  _atom_site_occupancy
  _atom_site_fract_x
  _atom_site_fract_y
  _atom_site_fract_z
  _atom_site_thermal_displace_type
  _atom_site_B_iso_or_equiv
  _atom_site_type_symbol
  Co1      1.0000 0.12349  0.21413  0.94253  Biso   1.000  Co
  O1       1.0000 0.93540  0.24035  0.74460  Biso   1.000  O
  O2       1.0000 0.31920  0.18483  0.12730  Biso   1.000  O
  C1       1.0000 0.93240  0.28953  0.72850  Biso   1.000  C
  C2       1.0000 0.07700  0.32241  0.84330  Biso   1.000  C
  H1       1.0000 0.13150  0.35260  0.77530  Biso   1.000  H
  N1       1.0000 0.24960  0.28962  0.90380  Biso   1.000  N
  H2       1.0000 0.30360  0.30280  0.00390  Biso   1.000  H
  H3       1.0000 0.35060  0.28840  0.82350  Biso   1.000  H
  C3       1.0000 0.95940  0.34430  0.99400  Biso   1.000  C
  H4       1.0000 0.83890  0.36340  0.94850  Biso   1.000  H
  H5       1.0000 0.04710  0.37060  0.05280  Biso   1.000  H
  C4       1.0000 0.88600  0.30479  0.12730  Biso   1.000  C
  O3       1.0000 0.92660  0.25628  0.11370  Biso   1.000  O
  O4       1.0000 0.78740  0.32531  0.24700  Biso   1.000  O
  N2       1.0000 0.94270  0.14503  0.98140  Biso   1.000  N
  C5       1.0000 0.74920  0.14361  0.92400  Biso   1.000  C
  H6       1.0000 0.69770  0.17360  0.86490  Biso   1.000  H
  C6       1.0000 0.62100  0.10104  0.94600  Biso   1.000  C
  H7       1.0000 0.48640  0.10160  0.90020  Biso   1.000  H
  C7       1.0000 0.69110  0.05743  0.03570  Biso   1.000  C
  C8       1.0000 0.89040  0.05864  0.09610  Biso   1.000  C
  H8       1.0000 0.94420  0.02950  0.15820  Biso   1.000  H
  C9       1.0000 0.01140  0.10248  0.06580  Biso   1.000  C
  H9       1.0000 0.14840  0.10230  0.10660  Biso   1.000  H
  C10      1.0000 0.54720  0.01180  0.07570  Biso   1.000  C
  H10      1.0000 0.62430  0.98420  0.13840  Biso   1.000  H
  H11      1.0000 0.43870  0.02480  0.15150  Biso   1.000  H
  Co2      1.0000 0.37651  0.71413  0.55747  Biso   1.000  Co
  O5       1.0000 0.56460  0.74035  0.75540  Biso   1.000  O
  O6       1.0000 0.18080  0.68483  0.37270  Biso   1.000  O
  C11      1.0000 0.56760  0.78953  0.77150  Biso   1.000  C
  C12      1.0000 0.42300  0.82241  0.65670  Biso   1.000  C
  H12      1.0000 0.36850  0.85260  0.72470  Biso   1.000  H
  N3       1.0000 0.25040  0.78962  0.59620  Biso   1.000  N
  H13      1.0000 0.19640  0.80280  0.49610  Biso   1.000  H
  H14      1.0000 0.14940  0.78840  0.67650  Biso   1.000  H
  C13      1.0000 0.54060  0.84430  0.50600  Biso   1.000  C
  H15      1.0000 0.66110  0.86340  0.55150  Biso   1.000  H
  H16      1.0000 0.45290  0.87060  0.44720  Biso   1.000  H
  C14      1.0000 0.61400  0.80479  0.37270  Biso   1.000  C
  O7       1.0000 0.57340  0.75628  0.38630  Biso   1.000  O
  O8       1.0000 0.71260  0.82531  0.25300  Biso   1.000  O
  N4       1.0000 0.55730  0.64503  0.51860  Biso   1.000  N
  C15      1.0000 0.75080  0.64361  0.57600  Biso   1.000  C
  H17      1.0000 0.80230  0.67360  0.63510  Biso   1.000  H
  C16      1.0000 0.87900  0.60104  0.55400  Biso   1.000  C
  H18      1.0000 0.01360  0.60160  0.59980  Biso   1.000  H
  C17      1.0000 0.80890  0.55743  0.46430  Biso   1.000  C
  C18      1.0000 0.60960  0.55864  0.40390  Biso   1.000  C
  H19      1.0000 0.55580  0.52950  0.34180  Biso   1.000  H
  C19      1.0000 0.48860  0.60248  0.43420  Biso   1.000  C
  H20      1.0000 0.35160  0.60230  0.39340  Biso   1.000  H
  C20      1.0000 0.95280  0.51180  0.42430  Biso   1.000  C
  H21      1.0000 0.87570  0.48420  0.36160  Biso   1.000  H
  H22      1.0000 0.06130  0.52480  0.34850  Biso   1.000  H
  Co3      1.0000 0.87651  0.78587  0.05747  Biso   1.000  Co
  O9       1.0000 0.06460  0.75965  0.25540  Biso   1.000  O
  O10      1.0000 0.68080  0.81517  0.87270  Biso   1.000  O
  C21      1.0000 0.06760  0.71047  0.27150  Biso   1.000  C
  C22      1.0000 0.92300  0.67759  0.15670  Biso   1.000  C
  H23      1.0000 0.86850  0.64740  0.22470  Biso   1.000  H
  N5       1.0000 0.75040  0.71038  0.09620  Biso   1.000  N
  H24      1.0000 0.69640  0.69720  0.99610  Biso   1.000  H
  H25      1.0000 0.64940  0.71160  0.17650  Biso   1.000  H
  C23      1.0000 0.04060  0.65570  0.00600  Biso   1.000  C
  H26      1.0000 0.16110  0.63660  0.05150  Biso   1.000  H
  H27      1.0000 0.95290  0.62940  0.94720  Biso   1.000  H
  C24      1.0000 0.11400  0.69521  0.87270  Biso   1.000  C
  O11      1.0000 0.07340  0.74372  0.88630  Biso   1.000  O
  O12      1.0000 0.21260  0.67469  0.75300  Biso   1.000  O
  N6       1.0000 0.05730  0.85497  0.01860  Biso   1.000  N
  C25      1.0000 0.25080  0.85639  0.07600  Biso   1.000  C
  H28      1.0000 0.30230  0.82640  0.13510  Biso   1.000  H
  C26      1.0000 0.37900  0.89896  0.05400  Biso   1.000  C
  H29      1.0000 0.51360  0.89840  0.09980  Biso   1.000  H
  C27      1.0000 0.30890  0.94257  0.96430  Biso   1.000  C
  C28      1.0000 0.10960  0.94136  0.90390  Biso   1.000  C
  H30      1.0000 0.05580  0.97050  0.84180  Biso   1.000  H
  C29      1.0000 0.98860  0.89752  0.93420  Biso   1.000  C
  H31      1.0000 0.85160  0.89770  0.89340  Biso   1.000  H
  C30      1.0000 0.45280  0.98820  0.92430  Biso   1.000  C
  H32      1.0000 0.37570  0.01580  0.86160  Biso   1.000  H
  H33      1.0000 0.56130  0.97520  0.84850  Biso   1.000  H
  Co4      1.0000 0.62349  0.28587  0.44253  Biso   1.000  Co
  O13      1.0000 0.43540  0.25965  0.24460  Biso   1.000  O
  O14      1.0000 0.81920  0.31517  0.62730  Biso   1.000  O
  C31      1.0000 0.43240  0.21047  0.22850  Biso   1.000  C
  C32      1.0000 0.57700  0.17759  0.34330  Biso   1.000  C
  H34      1.0000 0.63150  0.14740  0.27530  Biso   1.000  H
  N7       1.0000 0.74960  0.21038  0.40380  Biso   1.000  N
  H35      1.0000 0.80360  0.19720  0.50390  Biso   1.000  H
  H36      1.0000 0.85060  0.21160  0.32350  Biso   1.000  H
  C33      1.0000 0.45940  0.15570  0.49400  Biso   1.000  C
  H37      1.0000 0.33890  0.13660  0.44850  Biso   1.000  H
  H38      1.0000 0.54710  0.12940  0.55280  Biso   1.000  H
  C34      1.0000 0.38600  0.19521  0.62730  Biso   1.000  C
  O15      1.0000 0.42660  0.24372  0.61370  Biso   1.000  O
  O16      1.0000 0.28740  0.17469  0.74700  Biso   1.000  O
  N8       1.0000 0.44270  0.35497  0.48140  Biso   1.000  N
  C35      1.0000 0.24920  0.35639  0.42400  Biso   1.000  C
  H39      1.0000 0.19770  0.32640  0.36490  Biso   1.000  H
  C36      1.0000 0.12100  0.39896  0.44600  Biso   1.000  C
  H40      1.0000 0.98640  0.39840  0.40020  Biso   1.000  H
  C37      1.0000 0.19110  0.44257  0.53570  Biso   1.000  C
  C38      1.0000 0.39040  0.44136  0.59610  Biso   1.000  C
  H41      1.0000 0.44420  0.47050  0.65820  Biso   1.000  H
  C39      1.0000 0.51140  0.39752  0.56580  Biso   1.000  C
  H42      1.0000 0.64840  0.39770  0.60660  Biso   1.000  H
  C40      1.0000 0.04720  0.48820  0.57570  Biso   1.000  C
  H43      1.0000 0.12430  0.51580  0.63840  Biso   1.000  H
  H44      1.0000 0.93870  0.47520  0.65150  Biso   1.000  H
