data_image0
_cell_length_a       18.744
_cell_length_b       15.6943
_cell_length_c       21.529
_cell_angle_alpha    90
_cell_angle_beta     112.251
_cell_angle_gamma    90

_symmetry_space_group_name_H-M    "P 1"
_symmetry_int_tables_number       1

loop_
  _symmetry_equiv_pos_as_xyz
  'x, y, z'

loop_
  _atom_site_label
  _atom_site_occupancy
  _atom_site_fract_x
  _atom_site_fract_y
  _atom_site_fract_z
  _atom_site_thermal_displace_type
  _atom_site_B_iso_or_equiv
  _atom_site_type_symbol
  O1       1.0000 0.42709  0.23380  0.90790  Biso   1.000  O
  O2       1.0000 0.31645  0.26710  0.91942  Biso   1.000  O
  O3       1.0000 0.70976  0.89610  0.15347  Biso   1.000  O
  O4       1.0000 0.78950  0.89220  0.34700  Biso   1.000  O
  O5       1.0000 0.15682  0.28170  0.60603  Biso   1.000  O
  O6       1.0000 0.04927  0.23290  0.61533  Biso   1.000  O
  C1       1.0000 0.09030  0.25060  0.58290  Biso   1.000  C
  C2       1.0000 0.05400  0.23290  0.50780  Biso   1.000  C
  O7       1.0000 0.96440  0.31770  0.19870  Biso   1.000  O
  H1       1.0000 0.95480  0.34630  0.22820  Biso   1.000  H
  H2       1.0000 0.98130  0.35210  0.17690  Biso   1.000  H
  O8       1.0000 0.00070  0.12610  0.17720  Biso   1.000  O
  H3       1.0000 0.97540  0.08070  0.17600  Biso   1.000  H
  H4       1.0000 0.00930  0.15020  0.21470  Biso   1.000  H
  C3       1.0000 0.38140  0.23310  0.17260  Biso   1.000  C
  C4       1.0000 0.42150  0.21690  0.12490  Biso   1.000  C
  C5       1.0000 0.38500  0.23520  0.05686  Biso   1.000  C
  H5       1.0000 0.33450  0.25490  0.04000  Biso   1.000  H
  C6       1.0000 0.42440  0.22380  0.01400  Biso   1.000  C
  C7       1.0000 0.49930  0.19380  0.03950  Biso   1.000  C
  H6       1.0000 0.52610  0.18740  0.01120  Biso   1.000  H
  C8       1.0000 0.53450  0.17350  0.10610  Biso   1.000  C
  C9       1.0000 0.49660  0.18600  0.14900  Biso   1.000  C
  H7       1.0000 0.52130  0.17370  0.19440  Biso   1.000  H
  C10      1.0000 0.56620  0.98910  0.11080  Biso   1.000  C
  H8       1.0000 0.51720  0.01720  0.09300  Biso   1.000  H
  H9       1.0000 0.56850  0.95350  0.14780  Biso   1.000  H
  H10      1.0000 0.57270  0.95460  0.07640  Biso   1.000  H
  C11      1.0000 0.62860  0.05370  0.13420  Biso   1.000  C
  C12      1.0000 0.67900  0.18790  0.15850  Biso   1.000  C
  C13      1.0000 0.67550  0.28290  0.16190  Biso   1.000  C
  H11      1.0000 0.72680  0.30540  0.18170  Biso   1.000  H
  H12      1.0000 0.64670  0.29880  0.18870  Biso   1.000  H
  H13      1.0000 0.65070  0.30550  0.11740  Biso   1.000  H
  C14      1.0000 0.73920  0.13030  0.17780  Biso   1.000  C
  C15      1.0000 0.70840  0.04460  0.16330  Biso   1.000  C
  C16      1.0000 0.82080  0.16020  0.20770  Biso   1.000  C
  C17      1.0000 0.10020  0.24450  0.35230  Biso   1.000  C
  C18      1.0000 0.05820  0.22950  0.39830  Biso   1.000  C
  C19      1.0000 0.98400  0.19710  0.37360  Biso   1.000  C
  H14      1.0000 0.95990  0.18600  0.32800  Biso   1.000  H
  C20      1.0000 0.94550  0.18120  0.41510  Biso   1.000  C
  C21      1.0000 0.97990  0.19940  0.48290  Biso   1.000  C
  H15      1.0000 0.95380  0.18930  0.51130  Biso   1.000  H
  C22      1.0000 0.09370  0.24830  0.46700  Biso   1.000  C
  H16      1.0000 0.14320  0.27090  0.48440  Biso   1.000  H
  C23      1.0000 0.85870  0.05710  0.37920  Biso   1.000  C
  C24      1.0000 0.78010  0.04250  0.35070  Biso   1.000  C
  C25      1.0000 0.74330  0.12480  0.34290  Biso   1.000  C
  C26      1.0000 0.80000  0.18450  0.36670  Biso   1.000  C
  C27      1.0000 0.79810  0.27800  0.37150  Biso   1.000  C
  H17      1.0000 0.74560  0.29710  0.35480  Biso   1.000  H
  H18      1.0000 0.82440  0.30290  0.34540  Biso   1.000  H
  H19      1.0000 0.82320  0.29480  0.41760  Biso   1.000  H
  C28      1.0000 0.92570  0.99520  0.39730  Biso   1.000  C
  H20      1.0000 0.97340  0.02580  0.41690  Biso   1.000  H
  H21      1.0000 0.92440  0.96640  0.35750  Biso   1.000  H
  H22      1.0000 0.92180  0.95410  0.42880  Biso   1.000  H
  C29      1.0000 0.66050  0.14550  0.31440  Biso   1.000  C
  C30      1.0000 0.74610  0.96270  0.17540  Biso   1.000  C
  C31      1.0000 0.74650  0.95650  0.33100  Biso   1.000  C
  C32      1.0000 0.38550  0.24310  0.94140  Biso   1.000  C
  Cu1      1.0000 0.24203  0.26680  0.33156  Biso   1.000  Cu
  Cu2      1.0000 0.24333  0.27807  0.19458  Biso   1.000  Cu
  Cu3      1.0000 0.41520  0.23786  0.31776  Biso   1.000  Cu
  Cu4      1.0000 0.06734  0.24424  0.20637  Biso   1.000  Cu
  N1       1.0000 0.61203  0.13890  0.13171  Biso   1.000  N
  N2       1.0000 0.87075  0.14090  0.38817  Biso   1.000  N
  O9       1.0000 0.42372  0.22240  0.23340  Biso   1.000  O
  O10      1.0000 0.31271  0.25120  0.14922  Biso   1.000  O
  O11      1.0000 0.30464  0.22140  0.28101  Biso   1.000  O
  O12      1.0000 0.16979  0.29600  0.24175  Biso   1.000  O
  O13      1.0000 0.16693  0.26660  0.37532  Biso   1.000  O
  O14      1.0000 0.06260  0.22770  0.29239  Biso   1.000  O
  O15      1.0000 0.87465  0.10160  0.22718  Biso   1.000  O
  O16      1.0000 0.83830  0.23610  0.21290  Biso   1.000  O
  O17      1.0000 0.63890  0.21940  0.31490  Biso   1.000  O
  H23      1.0000 0.60830  0.23240  0.27540  Biso   1.000  H
  O18      1.0000 0.61150  0.08410  0.29180  Biso   1.000  O
  O19      1.0000 0.82020  0.95950  0.21120  Biso   1.000  O
  O20      1.0000 0.67380  0.94940  0.29720  Biso   1.000  O
  H24      1.0000 0.85100  0.05500  0.21000  Biso   1.000  H
  H25      1.0000 0.31600  0.27600  0.28200  Biso   1.000  H
  H26      1.0000 0.18900  0.25100  0.23100  Biso   1.000  H
  O21      1.0000 0.95340  0.24910  0.16890  Biso   1.000  O
  O22      1.0000 0.09100  0.11450  0.20870  Biso   1.000  O
  H27      1.0000 0.90620  0.23460  0.15260  Biso   1.000  H
  H28      1.0000 0.96790  0.25690  0.13640  Biso   1.000  H
  H29      1.0000 0.12210  0.07270  0.21700  Biso   1.000  H
  H30      1.0000 0.10320  0.14950  0.18420  Biso   1.000  H
  O23      1.0000 0.57291  0.73380  0.59210  Biso   1.000  O
  O24      1.0000 0.68355  0.76710  0.58058  Biso   1.000  O
  O25      1.0000 0.29024  0.39610  0.34653  Biso   1.000  O
  O26      1.0000 0.21050  0.39220  0.15300  Biso   1.000  O
  O27      1.0000 0.84318  0.78170  0.89397  Biso   1.000  O
  O28      1.0000 0.95073  0.73290  0.88467  Biso   1.000  O
  C33      1.0000 0.90970  0.75060  0.91710  Biso   1.000  C
  C34      1.0000 0.94600  0.73290  0.99220  Biso   1.000  C
  O29      1.0000 0.03560  0.81770  0.30130  Biso   1.000  O
  H31      1.0000 0.04520  0.84630  0.27180  Biso   1.000  H
  H32      1.0000 0.01870  0.85210  0.32310  Biso   1.000  H
  O30      1.0000 0.99930  0.62610  0.32280  Biso   1.000  O
  H33      1.0000 0.02460  0.58070  0.32400  Biso   1.000  H
  H34      1.0000 0.99070  0.65020  0.28530  Biso   1.000  H
  C35      1.0000 0.61860  0.73310  0.32740  Biso   1.000  C
  C36      1.0000 0.57850  0.71690  0.37510  Biso   1.000  C
  C37      1.0000 0.61500  0.73520  0.44314  Biso   1.000  C
  H35      1.0000 0.66550  0.75490  0.46000  Biso   1.000  H
  C38      1.0000 0.57560  0.72380  0.48600  Biso   1.000  C
  C39      1.0000 0.50070  0.69380  0.46050  Biso   1.000  C
  H36      1.0000 0.47390  0.68740  0.48880  Biso   1.000  H
  C40      1.0000 0.46550  0.67350  0.39390  Biso   1.000  C
  C41      1.0000 0.50340  0.68600  0.35100  Biso   1.000  C
  H37      1.0000 0.47870  0.67370  0.30560  Biso   1.000  H
  C42      1.0000 0.43380  0.48910  0.38920  Biso   1.000  C
  H38      1.0000 0.48280  0.51720  0.40700  Biso   1.000  H
  H39      1.0000 0.43150  0.45350  0.35220  Biso   1.000  H
  H40      1.0000 0.42730  0.45460  0.42360  Biso   1.000  H
  C43      1.0000 0.37140  0.55370  0.36580  Biso   1.000  C
  C44      1.0000 0.32100  0.68790  0.34150  Biso   1.000  C
  C45      1.0000 0.32450  0.78290  0.33810  Biso   1.000  C
  H41      1.0000 0.27320  0.80540  0.31830  Biso   1.000  H
  H42      1.0000 0.35330  0.79880  0.31130  Biso   1.000  H
  H43      1.0000 0.34930  0.80550  0.38260  Biso   1.000  H
  C46      1.0000 0.26080  0.63030  0.32220  Biso   1.000  C
  C47      1.0000 0.29160  0.54460  0.33670  Biso   1.000  C
  C48      1.0000 0.17920  0.66020  0.29230  Biso   1.000  C
  C49      1.0000 0.89980  0.74450  0.14770  Biso   1.000  C
  C50      1.0000 0.94180  0.72950  0.10170  Biso   1.000  C
  C51      1.0000 0.01600  0.69710  0.12640  Biso   1.000  C
  H44      1.0000 0.04010  0.68600  0.17200  Biso   1.000  H
  C52      1.0000 0.05450  0.68120  0.08490  Biso   1.000  C
  C53      1.0000 0.02010  0.69940  0.01710  Biso   1.000  C
  H45      1.0000 0.04620  0.68930  0.98870  Biso   1.000  H
  C54      1.0000 0.90630  0.74830  0.03300  Biso   1.000  C
  H46      1.0000 0.85680  0.77090  0.01560  Biso   1.000  H
  C55      1.0000 0.14130  0.55710  0.12080  Biso   1.000  C
  C56      1.0000 0.21990  0.54250  0.14930  Biso   1.000  C
  C57      1.0000 0.25670  0.62480  0.15710  Biso   1.000  C
  C58      1.0000 0.20000  0.68450  0.13330  Biso   1.000  C
  C59      1.0000 0.20190  0.77800  0.12850  Biso   1.000  C
  H47      1.0000 0.25440  0.79710  0.14520  Biso   1.000  H
  H48      1.0000 0.17560  0.80290  0.15460  Biso   1.000  H
  H49      1.0000 0.17680  0.79480  0.08240  Biso   1.000  H
  C60      1.0000 0.07430  0.49520  0.10270  Biso   1.000  C
  H50      1.0000 0.02660  0.52580  0.08310  Biso   1.000  H
  H51      1.0000 0.07560  0.46640  0.14250  Biso   1.000  H
  H52      1.0000 0.07820  0.45410  0.07120  Biso   1.000  H
  C61      1.0000 0.33950  0.64550  0.18560  Biso   1.000  C
  C62      1.0000 0.25390  0.46270  0.32460  Biso   1.000  C
  C63      1.0000 0.25350  0.45650  0.16900  Biso   1.000  C
  C64      1.0000 0.61450  0.74310  0.55860  Biso   1.000  C
  Cu5      1.0000 0.75797  0.76680  0.16844  Biso   1.000  Cu
  Cu6      1.0000 0.75667  0.77807  0.30542  Biso   1.000  Cu
  Cu7      1.0000 0.58480  0.73786  0.18224  Biso   1.000  Cu
  Cu8      1.0000 0.93266  0.74424  0.29363  Biso   1.000  Cu
  N3       1.0000 0.38797  0.63890  0.36829  Biso   1.000  N
  N4       1.0000 0.12925  0.64090  0.11183  Biso   1.000  N
  O31      1.0000 0.57628  0.72240  0.26660  Biso   1.000  O
  O32      1.0000 0.68729  0.75120  0.35078  Biso   1.000  O
  O33      1.0000 0.69536  0.72140  0.21899  Biso   1.000  O
  O34      1.0000 0.83021  0.79600  0.25825  Biso   1.000  O
  O35      1.0000 0.83307  0.76660  0.12468  Biso   1.000  O
  O36      1.0000 0.93740  0.72770  0.20761  Biso   1.000  O
  O37      1.0000 0.12535  0.60160  0.27282  Biso   1.000  O
  O38      1.0000 0.16170  0.73610  0.28710  Biso   1.000  O
  O39      1.0000 0.36110  0.71940  0.18510  Biso   1.000  O
  H53      1.0000 0.39170  0.73240  0.22460  Biso   1.000  H
  O40      1.0000 0.38850  0.58410  0.20820  Biso   1.000  O
  O41      1.0000 0.17980  0.45950  0.28880  Biso   1.000  O
  O42      1.0000 0.32620  0.44940  0.20280  Biso   1.000  O
  H54      1.0000 0.14900  0.55500  0.29000  Biso   1.000  H
  H55      1.0000 0.68400  0.77600  0.21800  Biso   1.000  H
  H56      1.0000 0.81100  0.75100  0.26900  Biso   1.000  H
  O43      1.0000 0.04660  0.74910  0.33110  Biso   1.000  O
  O44      1.0000 0.90900  0.61450  0.29130  Biso   1.000  O
  H57      1.0000 0.09380  0.73460  0.34740  Biso   1.000  H
  H58      1.0000 0.03210  0.75690  0.36360  Biso   1.000  H
  H59      1.0000 0.87790  0.57270  0.28300  Biso   1.000  H
  H60      1.0000 0.89680  0.64950  0.31580  Biso   1.000  H
  O45      1.0000 0.57291  0.76620  0.09210  Biso   1.000  O
  O46      1.0000 0.68355  0.73290  0.08058  Biso   1.000  O
  O47      1.0000 0.29024  0.10390  0.84653  Biso   1.000  O
  O48      1.0000 0.21050  0.10780  0.65300  Biso   1.000  O
  O49      1.0000 0.84318  0.71830  0.39397  Biso   1.000  O
  O50      1.0000 0.95073  0.76710  0.38467  Biso   1.000  O
  C65      1.0000 0.90970  0.74940  0.41710  Biso   1.000  C
  C66      1.0000 0.94600  0.76710  0.49220  Biso   1.000  C
  O51      1.0000 0.03560  0.68230  0.80130  Biso   1.000  O
  H61      1.0000 0.04520  0.65370  0.77180  Biso   1.000  H
  H62      1.0000 0.01870  0.64790  0.82310  Biso   1.000  H
  O52      1.0000 0.99930  0.87390  0.82280  Biso   1.000  O
  H63      1.0000 0.02460  0.91930  0.82400  Biso   1.000  H
  H64      1.0000 0.99070  0.84980  0.78530  Biso   1.000  H
  C67      1.0000 0.61860  0.76690  0.82740  Biso   1.000  C
  C68      1.0000 0.57850  0.78310  0.87510  Biso   1.000  C
  C69      1.0000 0.61500  0.76480  0.94314  Biso   1.000  C
  H65      1.0000 0.66550  0.74510  0.96000  Biso   1.000  H
  C70      1.0000 0.57560  0.77620  0.98600  Biso   1.000  C
  C71      1.0000 0.50070  0.80620  0.96050  Biso   1.000  C
  H66      1.0000 0.47390  0.81260  0.98880  Biso   1.000  H
  C72      1.0000 0.46550  0.82650  0.89390  Biso   1.000  C
  C73      1.0000 0.50340  0.81400  0.85100  Biso   1.000  C
  H67      1.0000 0.47870  0.82630  0.80560  Biso   1.000  H
  C74      1.0000 0.43380  0.01090  0.88920  Biso   1.000  C
  H68      1.0000 0.48280  0.98280  0.90700  Biso   1.000  H
  H69      1.0000 0.43150  0.04650  0.85220  Biso   1.000  H
  H70      1.0000 0.42730  0.04540  0.92360  Biso   1.000  H
  C75      1.0000 0.37140  0.94630  0.86580  Biso   1.000  C
  C76      1.0000 0.32100  0.81210  0.84150  Biso   1.000  C
  C77      1.0000 0.32450  0.71710  0.83810  Biso   1.000  C
  H71      1.0000 0.27320  0.69460  0.81830  Biso   1.000  H
  H72      1.0000 0.35330  0.70120  0.81130  Biso   1.000  H
  H73      1.0000 0.34930  0.69450  0.88260  Biso   1.000  H
  C78      1.0000 0.26080  0.86970  0.82220  Biso   1.000  C
  C79      1.0000 0.29160  0.95540  0.83670  Biso   1.000  C
  C80      1.0000 0.17920  0.83980  0.79230  Biso   1.000  C
  C81      1.0000 0.89980  0.75550  0.64770  Biso   1.000  C
  C82      1.0000 0.94180  0.77050  0.60170  Biso   1.000  C
  C83      1.0000 0.01600  0.80290  0.62640  Biso   1.000  C
  H74      1.0000 0.04010  0.81400  0.67200  Biso   1.000  H
  C84      1.0000 0.05450  0.81880  0.58490  Biso   1.000  C
  C85      1.0000 0.02010  0.80060  0.51710  Biso   1.000  C
  H75      1.0000 0.04620  0.81070  0.48870  Biso   1.000  H
  C86      1.0000 0.90630  0.75170  0.53300  Biso   1.000  C
  H76      1.0000 0.85680  0.72910  0.51560  Biso   1.000  H
  C87      1.0000 0.14130  0.94290  0.62080  Biso   1.000  C
  C88      1.0000 0.21990  0.95750  0.64930  Biso   1.000  C
  C89      1.0000 0.25670  0.87520  0.65710  Biso   1.000  C
  C90      1.0000 0.20000  0.81550  0.63330  Biso   1.000  C
  C91      1.0000 0.20190  0.72200  0.62850  Biso   1.000  C
  H77      1.0000 0.25440  0.70290  0.64520  Biso   1.000  H
  H78      1.0000 0.17560  0.69710  0.65460  Biso   1.000  H
  H79      1.0000 0.17680  0.70520  0.58240  Biso   1.000  H
  C92      1.0000 0.07430  0.00480  0.60270  Biso   1.000  C
  H80      1.0000 0.02660  0.97420  0.58310  Biso   1.000  H
  H81      1.0000 0.07560  0.03360  0.64250  Biso   1.000  H
  H82      1.0000 0.07820  0.04590  0.57120  Biso   1.000  H
  C93      1.0000 0.33950  0.85450  0.68560  Biso   1.000  C
  C94      1.0000 0.25390  0.03730  0.82460  Biso   1.000  C
  C95      1.0000 0.25350  0.04350  0.66900  Biso   1.000  C
  C96      1.0000 0.61450  0.75690  0.05860  Biso   1.000  C
  Cu9      1.0000 0.75797  0.73320  0.66844  Biso   1.000  Cu
  Cu10     1.0000 0.75667  0.72193  0.80542  Biso   1.000  Cu
  Cu11     1.0000 0.58480  0.76214  0.68224  Biso   1.000  Cu
  Cu12     1.0000 0.93266  0.75576  0.79363  Biso   1.000  Cu
  N5       1.0000 0.38797  0.86110  0.86829  Biso   1.000  N
  N6       1.0000 0.12925  0.85910  0.61183  Biso   1.000  N
  O53      1.0000 0.57628  0.77760  0.76660  Biso   1.000  O
  O54      1.0000 0.68729  0.74880  0.85078  Biso   1.000  O
  O55      1.0000 0.69536  0.77860  0.71899  Biso   1.000  O
  O56      1.0000 0.83021  0.70400  0.75825  Biso   1.000  O
  O57      1.0000 0.83307  0.73340  0.62468  Biso   1.000  O
  O58      1.0000 0.93740  0.77230  0.70761  Biso   1.000  O
  O59      1.0000 0.12535  0.89840  0.77282  Biso   1.000  O
  O60      1.0000 0.16170  0.76390  0.78710  Biso   1.000  O
  O61      1.0000 0.36110  0.78060  0.68510  Biso   1.000  O
  H83      1.0000 0.39170  0.76760  0.72460  Biso   1.000  H
  O62      1.0000 0.38850  0.91590  0.70820  Biso   1.000  O
  O63      1.0000 0.17980  0.04050  0.78880  Biso   1.000  O
  O64      1.0000 0.32620  0.05060  0.70280  Biso   1.000  O
  H84      1.0000 0.14900  0.94500  0.79000  Biso   1.000  H
  H85      1.0000 0.68400  0.72400  0.71800  Biso   1.000  H
  H86      1.0000 0.81100  0.74900  0.76900  Biso   1.000  H
  O65      1.0000 0.04660  0.75090  0.83110  Biso   1.000  O
  O66      1.0000 0.90900  0.88550  0.79130  Biso   1.000  O
  H87      1.0000 0.09380  0.76540  0.84740  Biso   1.000  H
  H88      1.0000 0.03210  0.74310  0.86360  Biso   1.000  H
  H89      1.0000 0.87790  0.92730  0.78300  Biso   1.000  H
  H90      1.0000 0.89680  0.85050  0.81580  Biso   1.000  H
  O67      1.0000 0.42709  0.26620  0.40790  Biso   1.000  O
  O68      1.0000 0.31645  0.23290  0.41942  Biso   1.000  O
  O69      1.0000 0.70976  0.60390  0.65347  Biso   1.000  O
  O70      1.0000 0.78950  0.60780  0.84700  Biso   1.000  O
  O71      1.0000 0.15682  0.21830  0.10603  Biso   1.000  O
  O72      1.0000 0.04927  0.26710  0.11533  Biso   1.000  O
  C97      1.0000 0.09030  0.24940  0.08290  Biso   1.000  C
  C98      1.0000 0.05400  0.26710  0.00780  Biso   1.000  C
  O73      1.0000 0.96440  0.18230  0.69870  Biso   1.000  O
  H91      1.0000 0.95480  0.15370  0.72820  Biso   1.000  H
  H92      1.0000 0.98130  0.14790  0.67690  Biso   1.000  H
  O74      1.0000 0.00070  0.37390  0.67720  Biso   1.000  O
  H93      1.0000 0.97540  0.41930  0.67600  Biso   1.000  H
  H94      1.0000 0.00930  0.34980  0.71470  Biso   1.000  H
  C99      1.0000 0.38140  0.26690  0.67260  Biso   1.000  C
  C100     1.0000 0.42150  0.28310  0.62490  Biso   1.000  C
  C101     1.0000 0.38500  0.26480  0.55686  Biso   1.000  C
  H95      1.0000 0.33450  0.24510  0.54000  Biso   1.000  H
  C102     1.0000 0.42440  0.27620  0.51400  Biso   1.000  C
  C103     1.0000 0.49930  0.30620  0.53950  Biso   1.000  C
  H96      1.0000 0.52610  0.31260  0.51120  Biso   1.000  H
  C104     1.0000 0.53450  0.32650  0.60610  Biso   1.000  C
  C105     1.0000 0.49660  0.31400  0.64900  Biso   1.000  C
  H97      1.0000 0.52130  0.32630  0.69440  Biso   1.000  H
  C106     1.0000 0.56620  0.51090  0.61080  Biso   1.000  C
  H98      1.0000 0.51720  0.48280  0.59300  Biso   1.000  H
  H99      1.0000 0.56850  0.54650  0.64780  Biso   1.000  H
  H100     1.0000 0.57270  0.54540  0.57640  Biso   1.000  H
  C107     1.0000 0.62860  0.44630  0.63420  Biso   1.000  C
  C108     1.0000 0.67900  0.31210  0.65850  Biso   1.000  C
  C109     1.0000 0.67550  0.21710  0.66190  Biso   1.000  C
  H101     1.0000 0.72680  0.19460  0.68170  Biso   1.000  H
  H102     1.0000 0.64670  0.20120  0.68870  Biso   1.000  H
  H103     1.0000 0.65070  0.19450  0.61740  Biso   1.000  H
  C110     1.0000 0.73920  0.36970  0.67780  Biso   1.000  C
  C111     1.0000 0.70840  0.45540  0.66330  Biso   1.000  C
  C112     1.0000 0.82080  0.33980  0.70770  Biso   1.000  C
  C113     1.0000 0.10020  0.25550  0.85230  Biso   1.000  C
  C114     1.0000 0.05820  0.27050  0.89830  Biso   1.000  C
  C115     1.0000 0.98400  0.30290  0.87360  Biso   1.000  C
  H104     1.0000 0.95990  0.31400  0.82800  Biso   1.000  H
  C116     1.0000 0.94550  0.31880  0.91510  Biso   1.000  C
  C117     1.0000 0.97990  0.30060  0.98290  Biso   1.000  C
  H105     1.0000 0.95380  0.31070  0.01130  Biso   1.000  H
  C118     1.0000 0.09370  0.25170  0.96700  Biso   1.000  C
  H106     1.0000 0.14320  0.22910  0.98440  Biso   1.000  H
  C119     1.0000 0.85870  0.44290  0.87920  Biso   1.000  C
  C120     1.0000 0.78010  0.45750  0.85070  Biso   1.000  C
  C121     1.0000 0.74330  0.37520  0.84290  Biso   1.000  C
  C122     1.0000 0.80000  0.31550  0.86670  Biso   1.000  C
  C123     1.0000 0.79810  0.22200  0.87150  Biso   1.000  C
  H107     1.0000 0.74560  0.20290  0.85480  Biso   1.000  H
  H108     1.0000 0.82440  0.19710  0.84540  Biso   1.000  H
  H109     1.0000 0.82320  0.20520  0.91760  Biso   1.000  H
  C124     1.0000 0.92570  0.50480  0.89730  Biso   1.000  C
  H110     1.0000 0.97340  0.47420  0.91690  Biso   1.000  H
  H111     1.0000 0.92440  0.53360  0.85750  Biso   1.000  H
  H112     1.0000 0.92180  0.54590  0.92880  Biso   1.000  H
  C125     1.0000 0.66050  0.35450  0.81440  Biso   1.000  C
  C126     1.0000 0.74610  0.53730  0.67540  Biso   1.000  C
  C127     1.0000 0.74650  0.54350  0.83100  Biso   1.000  C
  C128     1.0000 0.38550  0.25690  0.44140  Biso   1.000  C
  Cu13     1.0000 0.24203  0.23320  0.83156  Biso   1.000  Cu
  Cu14     1.0000 0.24333  0.22193  0.69458  Biso   1.000  Cu
  Cu15     1.0000 0.41520  0.26214  0.81776  Biso   1.000  Cu
  Cu16     1.0000 0.06734  0.25576  0.70637  Biso   1.000  Cu
  N7       1.0000 0.61203  0.36110  0.63171  Biso   1.000  N
  N8       1.0000 0.87075  0.35910  0.88817  Biso   1.000  N
  O75      1.0000 0.42372  0.27760  0.73340  Biso   1.000  O
  O76      1.0000 0.31271  0.24880  0.64922  Biso   1.000  O
  O77      1.0000 0.30464  0.27860  0.78101  Biso   1.000  O
  O78      1.0000 0.16979  0.20400  0.74175  Biso   1.000  O
  O79      1.0000 0.16693  0.23340  0.87532  Biso   1.000  O
  O80      1.0000 0.06260  0.27230  0.79239  Biso   1.000  O
  O81      1.0000 0.87465  0.39840  0.72718  Biso   1.000  O
  O82      1.0000 0.83830  0.26390  0.71290  Biso   1.000  O
  O83      1.0000 0.63890  0.28060  0.81490  Biso   1.000  O
  H113     1.0000 0.60830  0.26760  0.77540  Biso   1.000  H
  O84      1.0000 0.61150  0.41590  0.79180  Biso   1.000  O
  O85      1.0000 0.82020  0.54050  0.71120  Biso   1.000  O
  O86      1.0000 0.67380  0.55060  0.79720  Biso   1.000  O
  H114     1.0000 0.85100  0.44500  0.71000  Biso   1.000  H
  H115     1.0000 0.31600  0.22400  0.78200  Biso   1.000  H
  H116     1.0000 0.18900  0.24900  0.73100  Biso   1.000  H
  O87      1.0000 0.95340  0.25090  0.66890  Biso   1.000  O
  O88      1.0000 0.09100  0.38550  0.70870  Biso   1.000  O
  H117     1.0000 0.90620  0.26540  0.65260  Biso   1.000  H
  H118     1.0000 0.96790  0.24310  0.63640  Biso   1.000  H
  H119     1.0000 0.12210  0.42730  0.71700  Biso   1.000  H
  H120     1.0000 0.10320  0.35050  0.68420  Biso   1.000  H
