data_OPOBIF_clean
_audit_creation_date              2014-07-02
_audit_creation_method            'Materials Studio'
_symmetry_space_group_name_H-M    'P1'
_symmetry_Int_Tables_number       1
_symmetry_cell_setting            triclinic
loop_
_symmetry_equiv_pos_as_xyz
  x,y,z
_cell_length_a                    8.4084
_cell_length_b                    19.1847
_cell_length_c                    19.1847
_cell_angle_alpha                 62.0965
_cell_angle_beta                  81.5992
_cell_angle_gamma                 98.4008
loop_
_atom_site_label
_atom_site_type_symbol
_atom_site_fract_x
_atom_site_fract_y
_atom_site_fract_z
_atom_site_U_iso_or_equiv
_atom_site_adp_type
_atom_site_occupancy
Zn1    Zn    0.85235   0.95104   0.45522   0.01267  Uiso   1.00
Zn2    Zn    0.45965   0.81223   0.48672   0.01267  Uiso   1.00
Zn3    Zn    0.30757   0.45522   0.59374   0.01267  Uiso   1.00
Zn4    Zn    0.94637   0.48672   0.70105   0.01267  Uiso   1.00
Zn5    Zn    0.90131   0.59374   0.95104   0.01267  Uiso   1.00
Zn6    Zn    0.64742   0.70105   0.81223   0.01267  Uiso   1.00
Zn7    Zn    0.14765   0.04896   0.54478   0.01267  Uiso   1.00
Zn8    Zn    0.54035   0.18777   0.51328   0.01267  Uiso   1.00
Zn9    Zn    0.69243   0.54478   0.40626   0.01267  Uiso   1.00
Zn10   Zn    0.05363   0.51328   0.29895   0.01267  Uiso   1.00
Zn11   Zn    0.09869   0.40626   0.04896   0.01267  Uiso   1.00
Zn12   Zn    0.35258   0.29895   0.18777   0.01267  Uiso   1.00
H1     H     0.14030   0.95040   0.23840   0.01267  Uiso   1.00
H2     H     0.40100   0.92570   0.24490   0.01267  Uiso   1.00
H3     H     0.43300   0.79530   0.29930   0.01267  Uiso   1.00
H4     H     0.20340   0.68770   0.35040   0.01267  Uiso   1.00
H5     H     0.77390   0.81910   0.27990   0.01267  Uiso   1.00
H6     H     0.85830   0.90940   0.25200   0.01267  Uiso   1.00
H7     H     0.81910   0.86430   0.64790   0.01267  Uiso   1.00
H8     H     0.43150   0.70630   0.67980   0.01267  Uiso   1.00
H9     H     0.37900   0.93670   0.53850   0.01267  Uiso   1.00
H10    H     0.12260   0.85670   0.42790   0.01267  Uiso   1.00
H11    H     0.37870   0.23840   0.81120   0.01267  Uiso   1.00
H12    H     0.64590   0.24490   0.82940   0.01267  Uiso   1.00
H13    H     0.73230   0.29930   0.90540   0.01267  Uiso   1.00
H14    H     0.55380   0.35040   0.96190   0.01267  Uiso   1.00
H15    H     0.05380   0.27990   0.90100   0.01267  Uiso   1.00
H16    H     0.11030   0.25200   0.83860   0.01267  Uiso   1.00
H17    H     0.46700   0.64790   0.48780   0.01267  Uiso   1.00
H18    H     0.11130   0.67980   0.61390   0.01267  Uiso   1.00
H19    H     0.91750   0.53850   0.52480   0.01267  Uiso   1.00
H20    H     0.55050   0.42790   0.71540   0.01267  Uiso   1.00
H21    H     0.18990   0.81120   0.95040   0.01267  Uiso   1.00
H22    H     0.47530   0.82940   0.92570   0.01267  Uiso   1.00
H23    H     0.63770   0.90540   0.79530   0.01267  Uiso   1.00
H24    H     0.51570   0.96190   0.68770   0.01267  Uiso   1.00
H25    H     0.95480   0.90100   0.81910   0.01267  Uiso   1.00
H26    H     0.94890   0.83860   0.90940   0.01267  Uiso   1.00
H27    H     0.95480   0.48780   0.86430   0.01267  Uiso   1.00
H28    H     0.72520   0.61390   0.70630   0.01267  Uiso   1.00
H29    H     0.44230   0.52480   0.93670   0.01267  Uiso   1.00
H30    H     0.26590   0.71540   0.85670   0.01267  Uiso   1.00
H31    H     0.85970   0.04960   0.76160   0.01267  Uiso   1.00
H32    H     0.59900   0.07430   0.75510   0.01267  Uiso   1.00
H33    H     0.56700   0.20470   0.70070   0.01267  Uiso   1.00
H34    H     0.79660   0.31230   0.64960   0.01267  Uiso   1.00
H35    H     0.22610   0.18090   0.72010   0.01267  Uiso   1.00
H36    H     0.14170   0.09060   0.74800   0.01267  Uiso   1.00
H37    H     0.18090   0.13570   0.35210   0.01267  Uiso   1.00
H38    H     0.56850   0.29370   0.32020   0.01267  Uiso   1.00
H39    H     0.62100   0.06330   0.46150   0.01267  Uiso   1.00
H40    H     0.87740   0.14330   0.57210   0.01267  Uiso   1.00
H41    H     0.62130   0.76160   0.18880   0.01267  Uiso   1.00
H42    H     0.35410   0.75510   0.17060   0.01267  Uiso   1.00
H43    H     0.26770   0.70070   0.09460   0.01267  Uiso   1.00
H44    H     0.44620   0.64960   0.03810   0.01267  Uiso   1.00
H45    H     0.94620   0.72010   0.09900   0.01267  Uiso   1.00
H46    H     0.88970   0.74800   0.16140   0.01267  Uiso   1.00
H47    H     0.53300   0.35210   0.51220   0.01267  Uiso   1.00
H48    H     0.88870   0.32020   0.38610   0.01267  Uiso   1.00
H49    H     0.08250   0.46150   0.47520   0.01267  Uiso   1.00
H50    H     0.44950   0.57210   0.28460   0.01267  Uiso   1.00
H51    H     0.81010   0.18880   0.04960   0.01267  Uiso   1.00
H52    H     0.52470   0.17060   0.07430   0.01267  Uiso   1.00
H53    H     0.36230   0.09460   0.20470   0.01267  Uiso   1.00
H54    H     0.48430   0.03810   0.31230   0.01267  Uiso   1.00
H55    H     0.04520   0.09900   0.18090   0.01267  Uiso   1.00
H56    H     0.05110   0.16140   0.09060   0.01267  Uiso   1.00
H57    H     0.04520   0.51220   0.13570   0.01267  Uiso   1.00
H58    H     0.27480   0.38610   0.29370   0.01267  Uiso   1.00
H59    H     0.55770   0.47520   0.06330   0.01267  Uiso   1.00
H60    H     0.73410   0.28460   0.14330   0.01267  Uiso   1.00
C1     C     0.03118   0.75453   0.32699   0.01267  Uiso   1.00
C2     C     0.01004   0.83300   0.29488   0.01267  Uiso   1.00
C3     C     0.15128   0.89714   0.26230   0.01267  Uiso   1.00
C4     C     0.30869   0.88239   0.26522   0.01267  Uiso   1.00
C5     C     0.32791   0.80486   0.29773   0.01267  Uiso   1.00
C6     C     0.19045   0.74063   0.32848   0.01267  Uiso   1.00
C7     C     0.89050   0.68005   0.36165   0.01267  Uiso   1.00
C8     C     0.84283   0.85338   0.29399   0.01267  Uiso   1.00
C9     C     0.75289   0.84217   0.37410   0.01267  Uiso   1.00
C10    C     0.73169   0.83687   0.63850   0.01267  Uiso   1.00
C11    C     0.52154   0.75126   0.65594   0.01267  Uiso   1.00
C12    C     0.29695   0.92734   0.51399   0.01267  Uiso   1.00
C13    C     0.15867   0.88415   0.45394   0.01267  Uiso   1.00
C14    C     0.35817   0.32699   0.91848   0.01267  Uiso   1.00
C15    C     0.30492   0.29488   0.87212   0.01267  Uiso   1.00
C16    C     0.41358   0.26230   0.84056   0.01267  Uiso   1.00
C17    C     0.57391   0.26522   0.85239   0.01267  Uiso   1.00
C18    C     0.62564   0.29773   0.89741   0.01267  Uiso   1.00
C19    C     0.51893   0.32848   0.93089   0.01267  Uiso   1.00
C20    C     0.25215   0.36165   0.95830   0.01267  Uiso   1.00
C21    C     0.13682   0.29399   0.85263   0.01267  Uiso   1.00
C22    C     0.12699   0.37410   0.78373   0.01267  Uiso   1.00
C23    C     0.37019   0.63850   0.52463   0.01267  Uiso   1.00
C24    C     0.17748   0.65594   0.59280   0.01267  Uiso   1.00
C25    C     0.81094   0.51399   0.55867   0.01267  Uiso   1.00
C26    C     0.61261   0.45394   0.66191   0.01267  Uiso   1.00
C27    C     0.27665   0.91848   0.75453   0.01267  Uiso   1.00
C28    C     0.17704   0.87212   0.83300   0.01267  Uiso   1.00
C29    C     0.25414   0.84056   0.89714   0.01267  Uiso   1.00
C30    C     0.42630   0.85239   0.88239   0.01267  Uiso   1.00
C31    C     0.52305   0.89741   0.80486   0.01267  Uiso   1.00
C32    C     0.44982   0.93089   0.74063   0.01267  Uiso   1.00
C33    C     0.21045   0.95830   0.68005   0.01267  Uiso   1.00
C34    C     0.98945   0.85263   0.85338   0.01267  Uiso   1.00
C35    C     0.91072   0.78373   0.84217   0.01267  Uiso   1.00
C36    C     0.89482   0.52463   0.83687   0.01267  Uiso   1.00
C37    C     0.77028   0.59280   0.75126   0.01267  Uiso   1.00
C38    C     0.36961   0.55867   0.92734   0.01267  Uiso   1.00
C39    C     0.27452   0.66191   0.88415   0.01267  Uiso   1.00
C40    C     0.96882   0.24547   0.67301   0.01267  Uiso   1.00
C41    C     0.98996   0.16700   0.70512   0.01267  Uiso   1.00
C42    C     0.84872   0.10286   0.73770   0.01267  Uiso   1.00
C43    C     0.69131   0.11761   0.73478   0.01267  Uiso   1.00
C44    C     0.67209   0.19514   0.70227   0.01267  Uiso   1.00
C45    C     0.80955   0.25937   0.67152   0.01267  Uiso   1.00
C46    C     0.10950   0.31995   0.63835   0.01267  Uiso   1.00
C47    C     0.15717   0.14662   0.70601   0.01267  Uiso   1.00
C48    C     0.24711   0.15783   0.62590   0.01267  Uiso   1.00
C49    C     0.26831   0.16313   0.36150   0.01267  Uiso   1.00
C50    C     0.47846   0.24874   0.34406   0.01267  Uiso   1.00
C51    C     0.70305   0.07266   0.48601   0.01267  Uiso   1.00
C52    C     0.84133   0.11585   0.54606   0.01267  Uiso   1.00
C53    C     0.64183   0.67301   0.08152   0.01267  Uiso   1.00
C54    C     0.69508   0.70512   0.12788   0.01267  Uiso   1.00
C55    C     0.58642   0.73770   0.15944   0.01267  Uiso   1.00
C56    C     0.42609   0.73478   0.14761   0.01267  Uiso   1.00
C57    C     0.37436   0.70227   0.10259   0.01267  Uiso   1.00
C58    C     0.48107   0.67152   0.06911   0.01267  Uiso   1.00
C59    C     0.74785   0.63835   0.04170   0.01267  Uiso   1.00
C60    C     0.86318   0.70601   0.14737   0.01267  Uiso   1.00
C61    C     0.87301   0.62590   0.21627   0.01267  Uiso   1.00
C62    C     0.62981   0.36150   0.47537   0.01267  Uiso   1.00
C63    C     0.82252   0.34406   0.40720   0.01267  Uiso   1.00
C64    C     0.18906   0.48601   0.44133   0.01267  Uiso   1.00
C65    C     0.38739   0.54606   0.33809   0.01267  Uiso   1.00
C66    C     0.72335   0.08152   0.24547   0.01267  Uiso   1.00
C67    C     0.82296   0.12788   0.16700   0.01267  Uiso   1.00
C68    C     0.74586   0.15944   0.10286   0.01267  Uiso   1.00
C69    C     0.57370   0.14761   0.11761   0.01267  Uiso   1.00
C70    C     0.47695   0.10259   0.19514   0.01267  Uiso   1.00
C71    C     0.55018   0.06911   0.25937   0.01267  Uiso   1.00
C72    C     0.78955   0.04170   0.31995   0.01267  Uiso   1.00
C73    C     0.01055   0.14737   0.14662   0.01267  Uiso   1.00
C74    C     0.08928   0.21627   0.15783   0.01267  Uiso   1.00
C75    C     0.10518   0.47537   0.16313   0.01267  Uiso   1.00
C76    C     0.22972   0.40720   0.24874   0.01267  Uiso   1.00
C77    C     0.63039   0.44133   0.07266   0.01267  Uiso   1.00
C78    C     0.72548   0.33809   0.11585   0.01267  Uiso   1.00
N1     N     0.56311   0.80562   0.57839   0.01267  Uiso   1.00
N2     N     0.70114   0.86169   0.56687   0.01267  Uiso   1.00
N3     N     0.62333   0.76752   0.69713   0.01267  Uiso   1.00
N4     N     0.07876   0.93200   0.46882   0.01267  Uiso   1.00
N5     N     0.16837   0.95970   0.50879   0.01267  Uiso   1.00
N6     N     0.29766   0.87970   0.48072   0.01267  Uiso   1.00
N7     N     0.14150   0.57839   0.61599   0.01267  Uiso   1.00
N8     N     0.26801   0.56687   0.57144   0.01267  Uiso   1.00
N9     N     0.32046   0.69713   0.53535   0.01267  Uiso   1.00
N10    N     0.54758   0.46882   0.59918   0.01267  Uiso   1.00
N11    N     0.67716   0.50879   0.53151   0.01267  Uiso   1.00
N12    N     0.77838   0.48072   0.63958   0.01267  Uiso   1.00
N13    N     0.75749   0.61599   0.80562   0.01267  Uiso   1.00
N14    N     0.83945   0.57144   0.86169   0.01267  Uiso   1.00
N15    N     0.85581   0.53535   0.76752   0.01267  Uiso   1.00
N16    N     0.14676   0.59918   0.93200   0.01267  Uiso   1.00
N17    N     0.20867   0.53151   0.95970   0.01267  Uiso   1.00
N18    N     0.41796   0.63958   0.87970   0.01267  Uiso   1.00
N19    N     0.43689   0.19438   0.42161   0.01267  Uiso   1.00
N20    N     0.29886   0.13831   0.43313   0.01267  Uiso   1.00
N21    N     0.37667   0.23248   0.30287   0.01267  Uiso   1.00
N22    N     0.92124   0.06800   0.53118   0.01267  Uiso   1.00
N23    N     0.83163   0.04030   0.49121   0.01267  Uiso   1.00
N24    N     0.70234   0.12030   0.51928   0.01267  Uiso   1.00
N25    N     0.85850   0.42161   0.38401   0.01267  Uiso   1.00
N26    N     0.73199   0.43313   0.42856   0.01267  Uiso   1.00
N27    N     0.67954   0.30287   0.46465   0.01267  Uiso   1.00
N28    N     0.45242   0.53118   0.40082   0.01267  Uiso   1.00
N29    N     0.32284   0.49121   0.46849   0.01267  Uiso   1.00
N30    N     0.22162   0.51928   0.36042   0.01267  Uiso   1.00
N31    N     0.24251   0.38401   0.19438   0.01267  Uiso   1.00
N32    N     0.16055   0.42856   0.13831   0.01267  Uiso   1.00
N33    N     0.14419   0.46465   0.23248   0.01267  Uiso   1.00
N34    N     0.85324   0.40082   0.06800   0.01267  Uiso   1.00
N35    N     0.79133   0.46849   0.04030   0.01267  Uiso   1.00
N36    N     0.58204   0.36042   0.12030   0.01267  Uiso   1.00
O1     O     0.92602   0.61352   0.37456   0.01267  Uiso   1.00
O2     O     0.74423   0.68354   0.37645   0.01267  Uiso   1.00
O3     O     0.59579   0.82726   0.38859   0.01267  Uiso   1.00
O4     O     0.83400   0.85053   0.41993   0.01267  Uiso   1.00
O5     O     0.30058   0.37456   0.01192   0.01267  Uiso   1.00
O6     O     0.12068   0.37645   0.94001   0.01267  Uiso   1.00
O7     O     0.98438   0.38859   0.78415   0.01267  Uiso   1.00
O8     O     0.25393   0.41993   0.72954   0.01267  Uiso   1.00
O9     O     0.31250   0.01192   0.61352   0.01267  Uiso   1.00
O10    O     0.06069   0.94001   0.68354   0.01267  Uiso   1.00
O11    O     0.76853   0.78415   0.82726   0.01267  Uiso   1.00
O12    O     0.98347   0.72954   0.85053   0.01267  Uiso   1.00
O13    O     0.07398   0.38648   0.62544   0.01267  Uiso   1.00
O14    O     0.25577   0.31646   0.62355   0.01267  Uiso   1.00
O15    O     0.40421   0.17274   0.61141   0.01267  Uiso   1.00
O16    O     0.16600   0.14947   0.58007   0.01267  Uiso   1.00
O17    O     0.69942   0.62544   0.98808   0.01267  Uiso   1.00
O18    O     0.87932   0.62355   0.05999   0.01267  Uiso   1.00
O19    O     0.01562   0.61141   0.21585   0.01267  Uiso   1.00
O20    O     0.74607   0.58007   0.27046   0.01267  Uiso   1.00
O21    O     0.68750   0.98808   0.38648   0.01267  Uiso   1.00
O22    O     0.93931   0.05999   0.31646   0.01267  Uiso   1.00
O23    O     0.23147   0.21585   0.17274   0.01267  Uiso   1.00
O24    O     0.01653   0.27046   0.14947   0.01267  Uiso   1.00
