data_OPOBOL_clean
_audit_creation_date              2014-07-02
_audit_creation_method            'Materials Studio'
_symmetry_space_group_name_H-M    'P1'
_symmetry_Int_Tables_number       1
_symmetry_cell_setting            triclinic
loop_
_symmetry_equiv_pos_as_xyz
  x,y,z
_cell_length_a                    7.4959
_cell_length_b                    10.6092
_cell_length_c                    10.8657
_cell_angle_alpha                 119.2220
_cell_angle_beta                  110.1780
_cell_angle_gamma                 90.0000
loop_
_atom_site_label
_atom_site_type_symbol
_atom_site_fract_x
_atom_site_fract_y
_atom_site_fract_z
_atom_site_U_iso_or_equiv
_atom_site_adp_type
_atom_site_occupancy
Ba1    Ba    0.33312   0.61751   0.50000   0.01267  Uiso   1.00
Ba2    Ba    0.83312   0.38249   0.50000   0.01267  Uiso   1.00
H1     H     0.38910   0.18400   0.07200   0.01267  Uiso   1.00
H2     H     0.14690   0.02420   0.83280   0.01267  Uiso   1.00
H3     H     0.95650   0.11520   0.69180   0.01267  Uiso   1.00
H4     H     0.31710   0.81600   0.92800   0.01267  Uiso   1.00
H5     H     0.31410   0.97580   0.16720   0.01267  Uiso   1.00
H6     H     0.26470   0.88480   0.30820   0.01267  Uiso   1.00
H7     H     0.88910   0.38800   0.07200   0.01267  Uiso   1.00
H8     H     0.64690   0.30860   0.83280   0.01267  Uiso   1.00
H9     H     0.45650   0.07660   0.69180   0.01267  Uiso   1.00
H10    H     0.81710   0.61200   0.92800   0.01267  Uiso   1.00
H11    H     0.81410   0.69140   0.16720   0.01267  Uiso   1.00
H12    H     0.76470   0.92340   0.30820   0.01267  Uiso   1.00
C1     C     0.23477   0.42007   0.97634   0.01267  Uiso   1.00
C2     C     0.35211   0.36781   0.06422   0.01267  Uiso   1.00
C3     C     0.31561   0.22001   0.01242   0.01267  Uiso   1.00
C4     C     0.16849   0.12519   0.87098   0.01267  Uiso   1.00
C5     C     0.05485   0.17955   0.78710   0.01267  Uiso   1.00
C6     C     0.51538   0.47318   0.21796   0.01267  Uiso   1.00
C7     C     0.25843   0.57993   0.02366   0.01267  Uiso   1.00
C8     C     0.28789   0.63219   0.93578   0.01267  Uiso   1.00
C9     C     0.30319   0.77999   0.98758   0.01267  Uiso   1.00
C10    C     0.29751   0.87481   0.12902   0.01267  Uiso   1.00
C11    C     0.26775   0.82045   0.21290   0.01267  Uiso   1.00
C12    C     0.29742   0.52682   0.78204   0.01267  Uiso   1.00
C13    C     0.73477   0.05627   0.97634   0.01267  Uiso   1.00
C14    C     0.85211   0.19641   0.06422   0.01267  Uiso   1.00
C15    C     0.81561   0.29241   0.01242   0.01267  Uiso   1.00
C16    C     0.66849   0.24579   0.87098   0.01267  Uiso   1.00
C17    C     0.55485   0.10755   0.78710   0.01267  Uiso   1.00
C18    C     0.01538   0.24478   0.21796   0.01267  Uiso   1.00
C19    C     0.75843   0.94373   0.02366   0.01267  Uiso   1.00
C20    C     0.78789   0.80359   0.93578   0.01267  Uiso   1.00
C21    C     0.80319   0.70759   0.98758   0.01267  Uiso   1.00
C22    C     0.79751   0.75421   0.12902   0.01267  Uiso   1.00
C23    C     0.76775   0.89245   0.21290   0.01267  Uiso   1.00
C24    C     0.79742   0.75522   0.78204   0.01267  Uiso   1.00
N1     N     0.08403   0.32613   0.84146   0.01267  Uiso   1.00
N2     N     0.24257   0.67387   0.15854   0.01267  Uiso   1.00
N3     N     0.58403   0.01533   0.84146   0.01267  Uiso   1.00
N4     N     0.74257   0.98467   0.15854   0.01267  Uiso   1.00
O1     O     0.61558   0.57619   0.23216   0.01267  Uiso   1.00
O2     O     0.53595   0.44461   0.32150   0.01267  Uiso   1.00
O3     O     0.96191   0.37741   0.76382   0.01267  Uiso   1.00
O4     O     0.38342   0.42381   0.76784   0.01267  Uiso   1.00
O5     O     0.21445   0.55539   0.67850   0.01267  Uiso   1.00
O6     O     0.19809   0.62259   0.23618   0.01267  Uiso   1.00
O7     O     0.11558   0.15597   0.23216   0.01267  Uiso   1.00
O8     O     0.03595   0.37689   0.32150   0.01267  Uiso   1.00
O9     O     0.46191   0.88641   0.76382   0.01267  Uiso   1.00
O10    O     0.88342   0.84403   0.76784   0.01267  Uiso   1.00
O11    O     0.71445   0.62311   0.67850   0.01267  Uiso   1.00
O12    O     0.69809   0.11359   0.23618   0.01267  Uiso   1.00
