data_image0
_cell_length_a       14.8233
_cell_length_b       20.5787
_cell_length_c       18.5579
_cell_angle_alpha    90
_cell_angle_beta     104.674
_cell_angle_gamma    90

_symmetry_space_group_name_H-M    "P 1"
_symmetry_int_tables_number       1

loop_
  _symmetry_equiv_pos_as_xyz
  'x, y, z'

loop_
  _atom_site_label
  _atom_site_occupancy
  _atom_site_fract_x
  _atom_site_fract_y
  _atom_site_fract_z
  _atom_site_thermal_displace_type
  _atom_site_B_iso_or_equiv
  _atom_site_type_symbol
  Ag1      1.0000 0.26418  0.41716  0.62746  Biso   1.000  Ag
  Ag2      1.0000 0.49324  0.33821  0.38369  Biso   1.000  Ag
  Ag3      1.0000 0.87866  0.25746  0.57740  Biso   1.000  Ag
  Ag4      1.0000 0.13846  0.18113  0.40039  Biso   1.000  Ag
  Ag5      1.0000 0.09534  0.46918  0.30100  Biso   1.000  Ag
  Ag6      1.0000 0.63190  0.45155  0.87683  Biso   1.000  Ag
  C1       1.0000 0.00310  0.18600  0.48310  Biso   1.000  C
  C2       1.0000 0.91800  0.17880  0.41410  Biso   1.000  C
  C3       1.0000 0.88420  0.23170  0.37710  Biso   1.000  C
  H1       1.0000 0.91040  0.27190  0.39320  Biso   1.000  H
  C4       1.0000 0.81150  0.22830  0.31560  Biso   1.000  C
  H2       1.0000 0.79050  0.26680  0.29080  Biso   1.000  H
  C5       1.0000 0.76750  0.17250  0.28820  Biso   1.000  C
  H3       1.0000 0.71680  0.17240  0.24660  Biso   1.000  H
  C6       1.0000 0.80370  0.11180  0.32740  Biso   1.000  C
  C7       1.0000 0.76570  0.05250  0.30140  Biso   1.000  C
  H4       1.0000 0.71600  0.05080  0.25920  Biso   1.000  H
  C8       1.0000 0.79960  0.99720  0.33610  Biso   1.000  C
  C9       1.0000 0.87070  0.99870  0.40290  Biso   1.000  C
  H5       1.0000 0.89070  0.96040  0.42850  Biso   1.000  H
  C10      1.0000 0.91210  0.05900  0.43110  Biso   1.000  C
  H6       1.0000 0.95940  0.06060  0.47490  Biso   1.000  H
  C11      1.0000 0.88050  0.11540  0.39190  Biso   1.000  C
  C12      1.0000 0.19870  0.41980  0.45330  Biso   1.000  C
  H7       1.0000 0.13750  0.42370  0.46270  Biso   1.000  H
  H8       1.0000 0.22730  0.46260  0.45930  Biso   1.000  H
  C13      1.0000 0.14500  0.33220  0.36750  Biso   1.000  C
  H9       1.0000 0.13800  0.31710  0.31690  Biso   1.000  H
  H10      1.0000 0.08340  0.33470  0.37650  Biso   1.000  H
  C14      1.0000 0.29640  0.28220  0.40680  Biso   1.000  C
  H11      1.0000 0.29130  0.26660  0.35660  Biso   1.000  H
  H12      1.0000 0.33430  0.25160  0.44120  Biso   1.000  H
  C15      1.0000 0.34970  0.36970  0.49240  Biso   1.000  C
  H13      1.0000 0.37950  0.41200  0.49900  Biso   1.000  H
  H14      1.0000 0.38850  0.33990  0.52750  Biso   1.000  H
  C16      1.0000 0.28380  0.39150  0.36260  Biso   1.000  C
  H15      1.0000 0.27810  0.37580  0.31230  Biso   1.000  H
  H16      1.0000 0.31310  0.43400  0.36690  Biso   1.000  H
  C17      1.0000 0.21230  0.30930  0.49700  Biso   1.000  C
  H17      1.0000 0.24970  0.27890  0.53210  Biso   1.000  H
  H18      1.0000 0.15110  0.31160  0.50680  Biso   1.000  H
  C18      1.0000 0.31850  0.52730  0.75120  Biso   1.000  C
  H19      1.0000 0.26300  0.54820  0.72110  Biso   1.000  H
  H20      1.0000 0.29930  0.49690  0.78430  Biso   1.000  H
  C19      1.0000 0.40830  0.62220  0.74580  Biso   1.000  C
  H21      1.0000 0.44830  0.65490  0.77530  Biso   1.000  H
  H22      1.0000 0.35390  0.64390  0.71520  Biso   1.000  H
  C20      1.0000 0.54220  0.55530  0.74580  Biso   1.000  C
  H23      1.0000 0.57690  0.53310  0.71540  Biso   1.000  H
  H24      1.0000 0.58290  0.58760  0.77550  Biso   1.000  H
  C21      1.0000 0.45020  0.45920  0.75000  Biso   1.000  C
  H25      1.0000 0.43090  0.42830  0.78270  Biso   1.000  H
  H26      1.0000 0.48300  0.43560  0.71930  Biso   1.000  H
  C22      1.0000 0.39750  0.53860  0.65290  Biso   1.000  C
  H27      1.0000 0.43000  0.51570  0.62130  Biso   1.000  H
  H28      1.0000 0.34340  0.55960  0.62090  Biso   1.000  H
  C23      1.0000 0.46130  0.54450  0.84180  Biso   1.000  C
  H29      1.0000 0.44230  0.51470  0.87560  Biso   1.000  H
  H30      1.0000 0.50180  0.57700  0.87140  Biso   1.000  H
  C24      1.0000 0.93020  0.38990  0.65910  Biso   1.000  C
  H31      1.0000 0.90520  0.40570  0.60880  Biso   1.000  H
  H32      1.0000 0.87820  0.38110  0.68050  Biso   1.000  H
  C25      1.0000 0.02800  0.41590  0.78060  Biso   1.000  C
  H33      1.0000 0.97710  0.40820  0.80370  Biso   1.000  H
  H34      1.0000 0.06890  0.44830  0.80990  Biso   1.000  H
  C26      1.0000 0.06220  0.34350  0.62560  Biso   1.000  C
  H35      1.0000 0.03950  0.35860  0.57470  Biso   1.000  H
  H36      1.0000 0.09730  0.30380  0.62460  Biso   1.000  H
  C27      1.0000 0.15870  0.36850  0.74610  Biso   1.000  C
  H37      1.0000 0.19450  0.32910  0.74570  Biso   1.000  H
  H38      1.0000 0.19960  0.40060  0.77590  Biso   1.000  H
  C28      1.0000 0.01780  0.30580  0.73350  Biso   1.000  C
  H39      1.0000 0.96600  0.29690  0.75510  Biso   1.000  H
  H40      1.0000 0.05180  0.26560  0.73320  Biso   1.000  H
  C29      1.0000 0.06970  0.45240  0.67020  Biso   1.000  C
  H41      1.0000 0.10980  0.48560  0.69860  Biso   1.000  H
  H42      1.0000 0.04620  0.46820  0.61970  Biso   1.000  H
  C30      1.0000 0.53550  0.23080  0.51500  Biso   1.000  C
  H43      1.0000 0.53400  0.26870  0.54570  Biso   1.000  H
  H44      1.0000 0.47190  0.21590  0.49550  Biso   1.000  H
  C31      1.0000 0.57750  0.19010  0.40660  Biso   1.000  C
  H45      1.0000 0.60430  0.20080  0.36550  Biso   1.000  H
  H46      1.0000 0.51420  0.17510  0.38590  Biso   1.000  H
  C32      1.0000 0.67370  0.27070  0.48300  Biso   1.000  C
  H47      1.0000 0.70160  0.28110  0.44250  Biso   1.000  H
  H48      1.0000 0.67410  0.30980  0.51230  Biso   1.000  H
  C33      1.0000 0.59210  0.12240  0.51540  Biso   1.000  C
  H49      1.0000 0.52940  0.10570  0.49670  Biso   1.000  H
  H50      1.0000 0.62920  0.08900  0.54620  Biso   1.000  H
  C34      1.0000 0.68480  0.20310  0.59120  Biso   1.000  C
  H51      1.0000 0.72090  0.16970  0.62260  Biso   1.000  H
  H52      1.0000 0.68360  0.24110  0.62180  Biso   1.000  H
  C35      1.0000 0.72850  0.16160  0.48300  Biso   1.000  C
  H53      1.0000 0.75670  0.17230  0.44270  Biso   1.000  H
  H54      1.0000 0.76560  0.12760  0.51260  Biso   1.000  H
  N1       1.0000 0.25660  0.37460  0.50860  Biso   1.000  N
  N2       1.0000 0.18840  0.39750  0.37630  Biso   1.000  N
  N3       1.0000 0.34260  0.34670  0.41610  Biso   1.000  N
  N4       1.0000 0.20270  0.28520  0.42020  Biso   1.000  N
  N5       1.0000 0.36620  0.49120  0.70160  Biso   1.000  N
  N6       1.0000 0.37920  0.57630  0.79510  Biso   1.000  N
  N7       1.0000 0.45990  0.58860  0.69630  Biso   1.000  N
  N8       1.0000 0.51390  0.50810  0.79560  Biso   1.000  N
  N9       1.0000 0.99010  0.44060  0.70370  Biso   1.000  N
  N10      1.0000 0.98190  0.32910  0.65660  Biso   1.000  N
  N11      1.0000 0.12440  0.39280  0.66910  Biso   1.000  N
  N12      1.0000 0.08050  0.35470  0.77990  Biso   1.000  N
  N13      1.0000 0.57560  0.24910  0.45190  Biso   1.000  N
  N14      1.0000 0.63270  0.13720  0.45140  Biso   1.000  N
  N15      1.0000 0.72980  0.21990  0.53040  Biso   1.000  N
  N16      1.0000 0.58950  0.17980  0.56050  Biso   1.000  N
  O1       1.0000 0.06840  0.14690  0.49060  Biso   1.000  O
  O2       1.0000 0.00440  0.23260  0.52370  Biso   1.000  O
  O3       1.0000 0.76630  0.93950  0.30430  Biso   1.000  O
  H55      1.0000 0.78830  0.90960  0.33260  Biso   1.000  H
  Ag7      1.0000 0.73582  0.91716  0.87254  Biso   1.000  Ag
  Ag8      1.0000 0.50676  0.83821  0.11631  Biso   1.000  Ag
  Ag9      1.0000 0.12134  0.75746  0.92260  Biso   1.000  Ag
  Ag10     1.0000 0.86154  0.68113  0.09961  Biso   1.000  Ag
  Ag11     1.0000 0.90466  0.96918  0.19900  Biso   1.000  Ag
  Ag12     1.0000 0.36810  0.95155  0.62317  Biso   1.000  Ag
  C36      1.0000 0.99690  0.68600  0.01690  Biso   1.000  C
  C37      1.0000 0.08200  0.67880  0.08590  Biso   1.000  C
  C38      1.0000 0.11580  0.73170  0.12290  Biso   1.000  C
  H56      1.0000 0.08960  0.77190  0.10680  Biso   1.000  H
  C39      1.0000 0.18850  0.72830  0.18440  Biso   1.000  C
  H57      1.0000 0.20950  0.76680  0.20920  Biso   1.000  H
  C40      1.0000 0.23250  0.67250  0.21180  Biso   1.000  C
  H58      1.0000 0.28320  0.67240  0.25340  Biso   1.000  H
  C41      1.0000 0.19630  0.61180  0.17260  Biso   1.000  C
  C42      1.0000 0.23430  0.55250  0.19860  Biso   1.000  C
  H59      1.0000 0.28400  0.55080  0.24080  Biso   1.000  H
  C43      1.0000 0.20040  0.49720  0.16390  Biso   1.000  C
  C44      1.0000 0.12930  0.49870  0.09710  Biso   1.000  C
  H60      1.0000 0.10930  0.46040  0.07150  Biso   1.000  H
  C45      1.0000 0.08790  0.55900  0.06890  Biso   1.000  C
  H61      1.0000 0.04060  0.56060  0.02510  Biso   1.000  H
  C46      1.0000 0.11950  0.61540  0.10810  Biso   1.000  C
  C47      1.0000 0.80130  0.91980  0.04670  Biso   1.000  C
  H62      1.0000 0.86250  0.92370  0.03730  Biso   1.000  H
  H63      1.0000 0.77270  0.96260  0.04070  Biso   1.000  H
  C48      1.0000 0.85500  0.83220  0.13250  Biso   1.000  C
  H64      1.0000 0.86200  0.81710  0.18310  Biso   1.000  H
  H65      1.0000 0.91660  0.83470  0.12350  Biso   1.000  H
  C49      1.0000 0.70360  0.78220  0.09320  Biso   1.000  C
  H66      1.0000 0.70870  0.76660  0.14340  Biso   1.000  H
  H67      1.0000 0.66570  0.75160  0.05880  Biso   1.000  H
  C50      1.0000 0.65030  0.86970  0.00760  Biso   1.000  C
  H68      1.0000 0.62050  0.91200  0.00100  Biso   1.000  H
  H69      1.0000 0.61150  0.83990  0.97250  Biso   1.000  H
  C51      1.0000 0.71620  0.89150  0.13740  Biso   1.000  C
  H70      1.0000 0.72190  0.87580  0.18770  Biso   1.000  H
  H71      1.0000 0.68690  0.93400  0.13310  Biso   1.000  H
  C52      1.0000 0.78770  0.80930  0.00300  Biso   1.000  C
  H72      1.0000 0.75030  0.77890  0.96790  Biso   1.000  H
  H73      1.0000 0.84890  0.81160  0.99320  Biso   1.000  H
  C53      1.0000 0.68150  0.02730  0.74880  Biso   1.000  C
  H74      1.0000 0.73700  0.04820  0.77890  Biso   1.000  H
  H75      1.0000 0.70070  0.99690  0.71570  Biso   1.000  H
  C54      1.0000 0.59170  0.12220  0.75420  Biso   1.000  C
  H76      1.0000 0.55170  0.15490  0.72470  Biso   1.000  H
  H77      1.0000 0.64610  0.14390  0.78480  Biso   1.000  H
  C55      1.0000 0.45780  0.05530  0.75420  Biso   1.000  C
  H78      1.0000 0.42310  0.03310  0.78460  Biso   1.000  H
  H79      1.0000 0.41710  0.08760  0.72450  Biso   1.000  H
  C56      1.0000 0.54980  0.95920  0.75000  Biso   1.000  C
  H80      1.0000 0.56910  0.92830  0.71730  Biso   1.000  H
  H81      1.0000 0.51700  0.93560  0.78070  Biso   1.000  H
  C57      1.0000 0.60250  0.03860  0.84710  Biso   1.000  C
  H82      1.0000 0.57000  0.01570  0.87870  Biso   1.000  H
  H83      1.0000 0.65660  0.05960  0.87910  Biso   1.000  H
  C58      1.0000 0.53870  0.04450  0.65820  Biso   1.000  C
  H84      1.0000 0.55770  0.01470  0.62440  Biso   1.000  H
  H85      1.0000 0.49820  0.07700  0.62860  Biso   1.000  H
  C59      1.0000 0.06980  0.88990  0.84090  Biso   1.000  C
  H86      1.0000 0.09480  0.90570  0.89120  Biso   1.000  H
  H87      1.0000 0.12180  0.88110  0.81950  Biso   1.000  H
  C60      1.0000 0.97200  0.91590  0.71940  Biso   1.000  C
  H88      1.0000 0.02290  0.90820  0.69630  Biso   1.000  H
  H89      1.0000 0.93110  0.94830  0.69010  Biso   1.000  H
  C61      1.0000 0.93780  0.84350  0.87440  Biso   1.000  C
  H90      1.0000 0.96050  0.85860  0.92530  Biso   1.000  H
  H91      1.0000 0.90270  0.80380  0.87540  Biso   1.000  H
  C62      1.0000 0.84130  0.86850  0.75390  Biso   1.000  C
  H92      1.0000 0.80550  0.82910  0.75430  Biso   1.000  H
  H93      1.0000 0.80040  0.90060  0.72410  Biso   1.000  H
  C63      1.0000 0.98220  0.80580  0.76650  Biso   1.000  C
  H94      1.0000 0.03400  0.79690  0.74490  Biso   1.000  H
  H95      1.0000 0.94820  0.76560  0.76680  Biso   1.000  H
  C64      1.0000 0.93030  0.95240  0.82980  Biso   1.000  C
  H96      1.0000 0.89020  0.98560  0.80140  Biso   1.000  H
  H97      1.0000 0.95380  0.96820  0.88030  Biso   1.000  H
  C65      1.0000 0.46450  0.73080  0.98500  Biso   1.000  C
  H98      1.0000 0.46600  0.76870  0.95430  Biso   1.000  H
  H99      1.0000 0.52810  0.71590  0.00450  Biso   1.000  H
  C66      1.0000 0.42250  0.69010  0.09340  Biso   1.000  C
  H100     1.0000 0.39570  0.70080  0.13450  Biso   1.000  H
  H101     1.0000 0.48580  0.67510  0.11410  Biso   1.000  H
  C67      1.0000 0.32630  0.77070  0.01700  Biso   1.000  C
  H102     1.0000 0.29840  0.78110  0.05750  Biso   1.000  H
  H103     1.0000 0.32590  0.80980  0.98770  Biso   1.000  H
  C68      1.0000 0.40790  0.62240  0.98460  Biso   1.000  C
  H104     1.0000 0.47060  0.60570  0.00330  Biso   1.000  H
  H105     1.0000 0.37080  0.58900  0.95380  Biso   1.000  H
  C69      1.0000 0.31520  0.70310  0.90880  Biso   1.000  C
  H106     1.0000 0.27910  0.66970  0.87740  Biso   1.000  H
  H107     1.0000 0.31640  0.74110  0.87820  Biso   1.000  H
  C70      1.0000 0.27150  0.66160  0.01700  Biso   1.000  C
  H108     1.0000 0.24330  0.67230  0.05730  Biso   1.000  H
  H109     1.0000 0.23440  0.62760  0.98740  Biso   1.000  H
  N17      1.0000 0.74340  0.87460  0.99140  Biso   1.000  N
  N18      1.0000 0.81160  0.89750  0.12370  Biso   1.000  N
  N19      1.0000 0.65740  0.84670  0.08390  Biso   1.000  N
  N20      1.0000 0.79730  0.78520  0.07980  Biso   1.000  N
  N21      1.0000 0.63380  0.99120  0.79840  Biso   1.000  N
  N22      1.0000 0.62080  0.07630  0.70490  Biso   1.000  N
  N23      1.0000 0.54010  0.08860  0.80370  Biso   1.000  N
  N24      1.0000 0.48610  0.00810  0.70440  Biso   1.000  N
  N25      1.0000 0.00990  0.94060  0.79630  Biso   1.000  N
  N26      1.0000 0.01810  0.82910  0.84340  Biso   1.000  N
  N27      1.0000 0.87560  0.89280  0.83090  Biso   1.000  N
  N28      1.0000 0.91950  0.85470  0.72010  Biso   1.000  N
  N29      1.0000 0.42440  0.74910  0.04810  Biso   1.000  N
  N30      1.0000 0.36730  0.63720  0.04860  Biso   1.000  N
  N31      1.0000 0.27020  0.71990  0.96960  Biso   1.000  N
  N32      1.0000 0.41050  0.67980  0.93950  Biso   1.000  N
  O4       1.0000 0.93160  0.64690  0.00940  Biso   1.000  O
  O5       1.0000 0.99560  0.73260  0.97630  Biso   1.000  O
  O6       1.0000 0.23370  0.43950  0.19570  Biso   1.000  O
  H110     1.0000 0.21170  0.40960  0.16740  Biso   1.000  H
  Ag13     1.0000 0.73582  0.58284  0.37254  Biso   1.000  Ag
  Ag14     1.0000 0.50676  0.66179  0.61631  Biso   1.000  Ag
  Ag15     1.0000 0.12134  0.74254  0.42260  Biso   1.000  Ag
  Ag16     1.0000 0.86154  0.81887  0.59961  Biso   1.000  Ag
  Ag17     1.0000 0.90466  0.53082  0.69900  Biso   1.000  Ag
  Ag18     1.0000 0.36810  0.54845  0.12317  Biso   1.000  Ag
  C71      1.0000 0.99690  0.81400  0.51690  Biso   1.000  C
  C72      1.0000 0.08200  0.82120  0.58590  Biso   1.000  C
  C73      1.0000 0.11580  0.76830  0.62290  Biso   1.000  C
  H111     1.0000 0.08960  0.72810  0.60680  Biso   1.000  H
  C74      1.0000 0.18850  0.77170  0.68440  Biso   1.000  C
  H112     1.0000 0.20950  0.73320  0.70920  Biso   1.000  H
  C75      1.0000 0.23250  0.82750  0.71180  Biso   1.000  C
  H113     1.0000 0.28320  0.82760  0.75340  Biso   1.000  H
  C76      1.0000 0.19630  0.88820  0.67260  Biso   1.000  C
  C77      1.0000 0.23430  0.94750  0.69860  Biso   1.000  C
  H114     1.0000 0.28400  0.94920  0.74080  Biso   1.000  H
  C78      1.0000 0.20040  0.00280  0.66390  Biso   1.000  C
  C79      1.0000 0.12930  0.00130  0.59710  Biso   1.000  C
  H115     1.0000 0.10930  0.03960  0.57150  Biso   1.000  H
  C80      1.0000 0.08790  0.94100  0.56890  Biso   1.000  C
  H116     1.0000 0.04060  0.93940  0.52510  Biso   1.000  H
  C81      1.0000 0.11950  0.88460  0.60810  Biso   1.000  C
  C82      1.0000 0.80130  0.58020  0.54670  Biso   1.000  C
  H117     1.0000 0.86250  0.57630  0.53730  Biso   1.000  H
  H118     1.0000 0.77270  0.53740  0.54070  Biso   1.000  H
  C83      1.0000 0.85500  0.66780  0.63250  Biso   1.000  C
  H119     1.0000 0.86200  0.68290  0.68310  Biso   1.000  H
  H120     1.0000 0.91660  0.66530  0.62350  Biso   1.000  H
  C84      1.0000 0.70360  0.71780  0.59320  Biso   1.000  C
  H121     1.0000 0.70870  0.73340  0.64340  Biso   1.000  H
  H122     1.0000 0.66570  0.74840  0.55880  Biso   1.000  H
  C85      1.0000 0.65030  0.63030  0.50760  Biso   1.000  C
  H123     1.0000 0.62050  0.58800  0.50100  Biso   1.000  H
  H124     1.0000 0.61150  0.66010  0.47250  Biso   1.000  H
  C86      1.0000 0.71620  0.60850  0.63740  Biso   1.000  C
  H125     1.0000 0.72190  0.62420  0.68770  Biso   1.000  H
  H126     1.0000 0.68690  0.56600  0.63310  Biso   1.000  H
  C87      1.0000 0.78770  0.69070  0.50300  Biso   1.000  C
  H127     1.0000 0.75030  0.72110  0.46790  Biso   1.000  H
  H128     1.0000 0.84890  0.68840  0.49320  Biso   1.000  H
  C88      1.0000 0.68150  0.47270  0.24880  Biso   1.000  C
  H129     1.0000 0.73700  0.45180  0.27890  Biso   1.000  H
  H130     1.0000 0.70070  0.50310  0.21570  Biso   1.000  H
  C89      1.0000 0.59170  0.37780  0.25420  Biso   1.000  C
  H131     1.0000 0.55170  0.34510  0.22470  Biso   1.000  H
  H132     1.0000 0.64610  0.35610  0.28480  Biso   1.000  H
  C90      1.0000 0.45780  0.44470  0.25420  Biso   1.000  C
  H133     1.0000 0.42310  0.46690  0.28460  Biso   1.000  H
  H134     1.0000 0.41710  0.41240  0.22450  Biso   1.000  H
  C91      1.0000 0.54980  0.54080  0.25000  Biso   1.000  C
  H135     1.0000 0.56910  0.57170  0.21730  Biso   1.000  H
  H136     1.0000 0.51700  0.56440  0.28070  Biso   1.000  H
  C92      1.0000 0.60250  0.46140  0.34710  Biso   1.000  C
  H137     1.0000 0.57000  0.48430  0.37870  Biso   1.000  H
  H138     1.0000 0.65660  0.44040  0.37910  Biso   1.000  H
  C93      1.0000 0.53870  0.45550  0.15820  Biso   1.000  C
  H139     1.0000 0.55770  0.48530  0.12440  Biso   1.000  H
  H140     1.0000 0.49820  0.42300  0.12860  Biso   1.000  H
  C94      1.0000 0.06980  0.61010  0.34090  Biso   1.000  C
  H141     1.0000 0.09480  0.59430  0.39120  Biso   1.000  H
  H142     1.0000 0.12180  0.61890  0.31950  Biso   1.000  H
  C95      1.0000 0.97200  0.58410  0.21940  Biso   1.000  C
  H143     1.0000 0.02290  0.59180  0.19630  Biso   1.000  H
  H144     1.0000 0.93110  0.55170  0.19010  Biso   1.000  H
  C96      1.0000 0.93780  0.65650  0.37440  Biso   1.000  C
  H145     1.0000 0.96050  0.64140  0.42530  Biso   1.000  H
  H146     1.0000 0.90270  0.69620  0.37540  Biso   1.000  H
  C97      1.0000 0.84130  0.63150  0.25390  Biso   1.000  C
  H147     1.0000 0.80550  0.67090  0.25430  Biso   1.000  H
  H148     1.0000 0.80040  0.59940  0.22410  Biso   1.000  H
  C98      1.0000 0.98220  0.69420  0.26650  Biso   1.000  C
  H149     1.0000 0.03400  0.70310  0.24490  Biso   1.000  H
  H150     1.0000 0.94820  0.73440  0.26680  Biso   1.000  H
  C99      1.0000 0.93030  0.54760  0.32980  Biso   1.000  C
  H151     1.0000 0.89020  0.51440  0.30140  Biso   1.000  H
  H152     1.0000 0.95380  0.53180  0.38030  Biso   1.000  H
  C100     1.0000 0.46450  0.76920  0.48500  Biso   1.000  C
  H153     1.0000 0.46600  0.73130  0.45430  Biso   1.000  H
  H154     1.0000 0.52810  0.78410  0.50450  Biso   1.000  H
  C101     1.0000 0.42250  0.80990  0.59340  Biso   1.000  C
  H155     1.0000 0.39570  0.79920  0.63450  Biso   1.000  H
  H156     1.0000 0.48580  0.82490  0.61410  Biso   1.000  H
  C102     1.0000 0.32630  0.72930  0.51700  Biso   1.000  C
  H157     1.0000 0.29840  0.71890  0.55750  Biso   1.000  H
  H158     1.0000 0.32590  0.69020  0.48770  Biso   1.000  H
  C103     1.0000 0.40790  0.87760  0.48460  Biso   1.000  C
  H159     1.0000 0.47060  0.89430  0.50330  Biso   1.000  H
  H160     1.0000 0.37080  0.91100  0.45380  Biso   1.000  H
  C104     1.0000 0.31520  0.79690  0.40880  Biso   1.000  C
  H161     1.0000 0.27910  0.83030  0.37740  Biso   1.000  H
  H162     1.0000 0.31640  0.75890  0.37820  Biso   1.000  H
  C105     1.0000 0.27150  0.83840  0.51700  Biso   1.000  C
  H163     1.0000 0.24330  0.82770  0.55730  Biso   1.000  H
  H164     1.0000 0.23440  0.87240  0.48740  Biso   1.000  H
  N33      1.0000 0.74340  0.62540  0.49140  Biso   1.000  N
  N34      1.0000 0.81160  0.60250  0.62370  Biso   1.000  N
  N35      1.0000 0.65740  0.65330  0.58390  Biso   1.000  N
  N36      1.0000 0.79730  0.71480  0.57980  Biso   1.000  N
  N37      1.0000 0.63380  0.50880  0.29840  Biso   1.000  N
  N38      1.0000 0.62080  0.42370  0.20490  Biso   1.000  N
  N39      1.0000 0.54010  0.41140  0.30370  Biso   1.000  N
  N40      1.0000 0.48610  0.49190  0.20440  Biso   1.000  N
  N41      1.0000 0.00990  0.55940  0.29630  Biso   1.000  N
  N42      1.0000 0.01810  0.67090  0.34340  Biso   1.000  N
  N43      1.0000 0.87560  0.60720  0.33090  Biso   1.000  N
  N44      1.0000 0.91950  0.64530  0.22010  Biso   1.000  N
  N45      1.0000 0.42440  0.75090  0.54810  Biso   1.000  N
  N46      1.0000 0.36730  0.86280  0.54860  Biso   1.000  N
  N47      1.0000 0.27020  0.78010  0.46960  Biso   1.000  N
  N48      1.0000 0.41050  0.82020  0.43950  Biso   1.000  N
  O7       1.0000 0.93160  0.85310  0.50940  Biso   1.000  O
  O8       1.0000 0.99560  0.76740  0.47630  Biso   1.000  O
  O9       1.0000 0.23370  0.06050  0.69570  Biso   1.000  O
  H165     1.0000 0.21170  0.09040  0.66740  Biso   1.000  H
  Ag19     1.0000 0.26418  0.08284  0.12746  Biso   1.000  Ag
  Ag20     1.0000 0.49324  0.16179  0.88369  Biso   1.000  Ag
  Ag21     1.0000 0.87866  0.24254  0.07740  Biso   1.000  Ag
  Ag22     1.0000 0.13846  0.31887  0.90039  Biso   1.000  Ag
  Ag23     1.0000 0.09534  0.03082  0.80100  Biso   1.000  Ag
  Ag24     1.0000 0.63190  0.04845  0.37683  Biso   1.000  Ag
  C106     1.0000 0.00310  0.31400  0.98310  Biso   1.000  C
  C107     1.0000 0.91800  0.32120  0.91410  Biso   1.000  C
  C108     1.0000 0.88420  0.26830  0.87710  Biso   1.000  C
  H166     1.0000 0.91040  0.22810  0.89320  Biso   1.000  H
  C109     1.0000 0.81150  0.27170  0.81560  Biso   1.000  C
  H167     1.0000 0.79050  0.23320  0.79080  Biso   1.000  H
  C110     1.0000 0.76750  0.32750  0.78820  Biso   1.000  C
  H168     1.0000 0.71680  0.32760  0.74660  Biso   1.000  H
  C111     1.0000 0.80370  0.38820  0.82740  Biso   1.000  C
  C112     1.0000 0.76570  0.44750  0.80140  Biso   1.000  C
  H169     1.0000 0.71600  0.44920  0.75920  Biso   1.000  H
  C113     1.0000 0.79960  0.50280  0.83610  Biso   1.000  C
  C114     1.0000 0.87070  0.50130  0.90290  Biso   1.000  C
  H170     1.0000 0.89070  0.53960  0.92850  Biso   1.000  H
  C115     1.0000 0.91210  0.44100  0.93110  Biso   1.000  C
  H171     1.0000 0.95940  0.43940  0.97490  Biso   1.000  H
  C116     1.0000 0.88050  0.38460  0.89190  Biso   1.000  C
  C117     1.0000 0.19870  0.08020  0.95330  Biso   1.000  C
  H172     1.0000 0.13750  0.07630  0.96270  Biso   1.000  H
  H173     1.0000 0.22730  0.03740  0.95930  Biso   1.000  H
  C118     1.0000 0.14500  0.16780  0.86750  Biso   1.000  C
  H174     1.0000 0.13800  0.18290  0.81690  Biso   1.000  H
  H175     1.0000 0.08340  0.16530  0.87650  Biso   1.000  H
  C119     1.0000 0.29640  0.21780  0.90680  Biso   1.000  C
  H176     1.0000 0.29130  0.23340  0.85660  Biso   1.000  H
  H177     1.0000 0.33430  0.24840  0.94120  Biso   1.000  H
  C120     1.0000 0.34970  0.13030  0.99240  Biso   1.000  C
  H178     1.0000 0.37950  0.08800  0.99900  Biso   1.000  H
  H179     1.0000 0.38850  0.16010  0.02750  Biso   1.000  H
  C121     1.0000 0.28380  0.10850  0.86260  Biso   1.000  C
  H180     1.0000 0.27810  0.12420  0.81230  Biso   1.000  H
  H181     1.0000 0.31310  0.06600  0.86690  Biso   1.000  H
  C122     1.0000 0.21230  0.19070  0.99700  Biso   1.000  C
  H182     1.0000 0.24970  0.22110  0.03210  Biso   1.000  H
  H183     1.0000 0.15110  0.18840  0.00680  Biso   1.000  H
  C123     1.0000 0.31850  0.97270  0.25120  Biso   1.000  C
  H184     1.0000 0.26300  0.95180  0.22110  Biso   1.000  H
  H185     1.0000 0.29930  0.00310  0.28430  Biso   1.000  H
  C124     1.0000 0.40830  0.87780  0.24580  Biso   1.000  C
  H186     1.0000 0.44830  0.84510  0.27530  Biso   1.000  H
  H187     1.0000 0.35390  0.85610  0.21520  Biso   1.000  H
  C125     1.0000 0.54220  0.94470  0.24580  Biso   1.000  C
  H188     1.0000 0.57690  0.96690  0.21540  Biso   1.000  H
  H189     1.0000 0.58290  0.91240  0.27550  Biso   1.000  H
  C126     1.0000 0.45020  0.04080  0.25000  Biso   1.000  C
  H190     1.0000 0.43090  0.07170  0.28270  Biso   1.000  H
  H191     1.0000 0.48300  0.06440  0.21930  Biso   1.000  H
  C127     1.0000 0.39750  0.96140  0.15290  Biso   1.000  C
  H192     1.0000 0.43000  0.98430  0.12130  Biso   1.000  H
  H193     1.0000 0.34340  0.94040  0.12090  Biso   1.000  H
  C128     1.0000 0.46130  0.95550  0.34180  Biso   1.000  C
  H194     1.0000 0.44230  0.98530  0.37560  Biso   1.000  H
  H195     1.0000 0.50180  0.92300  0.37140  Biso   1.000  H
  C129     1.0000 0.93020  0.11010  0.15910  Biso   1.000  C
  H196     1.0000 0.90520  0.09430  0.10880  Biso   1.000  H
  H197     1.0000 0.87820  0.11890  0.18050  Biso   1.000  H
  C130     1.0000 0.02800  0.08410  0.28060  Biso   1.000  C
  H198     1.0000 0.97710  0.09180  0.30370  Biso   1.000  H
  H199     1.0000 0.06890  0.05170  0.30990  Biso   1.000  H
  C131     1.0000 0.06220  0.15650  0.12560  Biso   1.000  C
  H200     1.0000 0.03950  0.14140  0.07470  Biso   1.000  H
  H201     1.0000 0.09730  0.19620  0.12460  Biso   1.000  H
  C132     1.0000 0.15870  0.13150  0.24610  Biso   1.000  C
  H202     1.0000 0.19450  0.17090  0.24570  Biso   1.000  H
  H203     1.0000 0.19960  0.09940  0.27590  Biso   1.000  H
  C133     1.0000 0.01780  0.19420  0.23350  Biso   1.000  C
  H204     1.0000 0.96600  0.20310  0.25510  Biso   1.000  H
  H205     1.0000 0.05180  0.23440  0.23320  Biso   1.000  H
  C134     1.0000 0.06970  0.04760  0.17020  Biso   1.000  C
  H206     1.0000 0.10980  0.01440  0.19860  Biso   1.000  H
  H207     1.0000 0.04620  0.03180  0.11970  Biso   1.000  H
  C135     1.0000 0.53550  0.26920  0.01500  Biso   1.000  C
  H208     1.0000 0.53400  0.23130  0.04570  Biso   1.000  H
  H209     1.0000 0.47190  0.28410  0.99550  Biso   1.000  H
  C136     1.0000 0.57750  0.30990  0.90660  Biso   1.000  C
  H210     1.0000 0.60430  0.29920  0.86550  Biso   1.000  H
  H211     1.0000 0.51420  0.32490  0.88590  Biso   1.000  H
  C137     1.0000 0.67370  0.22930  0.98300  Biso   1.000  C
  H212     1.0000 0.70160  0.21890  0.94250  Biso   1.000  H
  H213     1.0000 0.67410  0.19020  0.01230  Biso   1.000  H
  C138     1.0000 0.59210  0.37760  0.01540  Biso   1.000  C
  H214     1.0000 0.52940  0.39430  0.99670  Biso   1.000  H
  H215     1.0000 0.62920  0.41100  0.04620  Biso   1.000  H
  C139     1.0000 0.68480  0.29690  0.09120  Biso   1.000  C
  H216     1.0000 0.72090  0.33030  0.12260  Biso   1.000  H
  H217     1.0000 0.68360  0.25890  0.12180  Biso   1.000  H
  C140     1.0000 0.72850  0.33840  0.98300  Biso   1.000  C
  H218     1.0000 0.75670  0.32770  0.94270  Biso   1.000  H
  H219     1.0000 0.76560  0.37240  0.01260  Biso   1.000  H
  N49      1.0000 0.25660  0.12540  0.00860  Biso   1.000  N
  N50      1.0000 0.18840  0.10250  0.87630  Biso   1.000  N
  N51      1.0000 0.34260  0.15330  0.91610  Biso   1.000  N
  N52      1.0000 0.20270  0.21480  0.92020  Biso   1.000  N
  N53      1.0000 0.36620  0.00880  0.20160  Biso   1.000  N
  N54      1.0000 0.37920  0.92370  0.29510  Biso   1.000  N
  N55      1.0000 0.45990  0.91140  0.19630  Biso   1.000  N
  N56      1.0000 0.51390  0.99190  0.29560  Biso   1.000  N
  N57      1.0000 0.99010  0.05940  0.20370  Biso   1.000  N
  N58      1.0000 0.98190  0.17090  0.15660  Biso   1.000  N
  N59      1.0000 0.12440  0.10720  0.16910  Biso   1.000  N
  N60      1.0000 0.08050  0.14530  0.27990  Biso   1.000  N
  N61      1.0000 0.57560  0.25090  0.95190  Biso   1.000  N
  N62      1.0000 0.63270  0.36280  0.95140  Biso   1.000  N
  N63      1.0000 0.72980  0.28010  0.03040  Biso   1.000  N
  N64      1.0000 0.58950  0.32020  0.06050  Biso   1.000  N
  O10      1.0000 0.06840  0.35310  0.99060  Biso   1.000  O
  O11      1.0000 0.00440  0.26740  0.02370  Biso   1.000  O
  O12      1.0000 0.76630  0.56050  0.80430  Biso   1.000  O
  H220     1.0000 0.78830  0.59040  0.83260  Biso   1.000  H
