data_image0
_cell_length_a       21.922
_cell_length_b       33.73
_cell_length_c       14.948
_cell_angle_alpha    90
_cell_angle_beta     130.512
_cell_angle_gamma    90

_symmetry_space_group_name_H-M    "P 1"
_symmetry_int_tables_number       1

loop_
  _symmetry_equiv_pos_as_xyz
  'x, y, z'

loop_
  _atom_site_label
  _atom_site_occupancy
  _atom_site_fract_x
  _atom_site_fract_y
  _atom_site_fract_z
  _atom_site_thermal_displace_type
  _atom_site_B_iso_or_equiv
  _atom_site_type_symbol
  Eu1      1.0000 0.65592  0.25736  0.00111  Biso   1.000  Eu
  Eu2      1.0000 0.58808  0.24525  0.58888  Biso   1.000  Eu
  Eu3      1.0000 0.60041  0.24613  0.29368  Biso   1.000  Eu
  Ag1      1.0000 0.49135  0.00562  0.78504  Biso   1.000  Ag
  Ag2      1.0000 0.69063  0.00096  0.09806  Biso   1.000  Ag
  Ag3      1.0000 0.59824  0.49936  0.74488  Biso   1.000  Ag
  Ag4      1.0000 0.80755  0.51311  0.10532  Biso   1.000  Ag
  Ag5      1.0000 0.38228  0.48560  0.29024  Biso   1.000  Ag
  O1       1.0000 0.59950  0.20817  0.85280  Biso   1.000  O
  O2       1.0000 0.59050  0.19326  0.69880  Biso   1.000  O
  O3       1.0000 0.68850  0.20854  0.60820  Biso   1.000  O
  O4       1.0000 0.67740  0.19926  0.45080  Biso   1.000  O
  O5       1.0000 0.52170  0.19476  0.43990  Biso   1.000  O
  O6       1.0000 0.50580  0.20436  0.27970  Biso   1.000  O
  O7       1.0000 0.60690  0.19022  0.20040  Biso   1.000  O
  O8       1.0000 0.64910  0.20848  0.10420  Biso   1.000  O
  O9       1.0000 0.74340  0.30518  0.01750  Biso   1.000  O
  O10      1.0000 0.77260  0.31840  0.90420  Biso   1.000  O
  O11      1.0000 0.57140  0.29514  0.82850  Biso   1.000  O
  O12      1.0000 0.56160  0.29335  0.66960  Biso   1.000  O
  O13      1.0000 0.66880  0.29836  0.60140  Biso   1.000  O
  O14      1.0000 0.67560  0.28761  0.46170  Biso   1.000  O
  O15      1.0000 0.50510  0.28371  0.41540  Biso   1.000  O
  O16      1.0000 0.50880  0.29507  0.27260  Biso   1.000  O
  O17      1.0000 0.61560  0.29349  0.19620  Biso   1.000  O
  O18      1.0000 0.63460  0.31271  0.07550  Biso   1.000  O
  O19      1.0000 0.38270  0.68380  0.45830  Biso   1.000  O
  O20      1.0000 0.38340  0.69723  0.31180  Biso   1.000  O
  O21      1.0000 0.71170  0.25065  0.79200  Biso   1.000  O
  H1       1.0000 0.71430  0.22730  0.77360  Biso   1.000  H
  H2       1.0000 0.74400  0.26190  0.85870  Biso   1.000  H
  N1       1.0000 0.51530  0.06645  0.77690  Biso   1.000  N
  N2       1.0000 0.69950  0.06110  0.58400  Biso   1.000  N
  N3       1.0000 0.48760  0.05757  0.29780  Biso   1.000  N
  N4       1.0000 0.66970  0.06122  0.11180  Biso   1.000  N
  N5       1.0000 0.80880  0.45034  0.08070  Biso   1.000  N
  N6       1.0000 0.59690  0.43674  0.76170  Biso   1.000  N
  N7       1.0000 0.78860  0.42392  0.60270  Biso   1.000  N
  N8       1.0000 0.39670  0.42150  0.28450  Biso   1.000  N
  N9       1.0000 0.60210  0.44030  0.20920  Biso   1.000  N
  N10      1.0000 0.38170  0.54880  0.31660  Biso   1.000  N
  C1       1.0000 0.50030  0.09670  0.81910  Biso   1.000  C
  H3       1.0000 0.47620  0.09140  0.85100  Biso   1.000  H
  C2       1.0000 0.51960  0.13560  0.81640  Biso   1.000  C
  H4       1.0000 0.50770  0.15590  0.84500  Biso   1.000  H
  C3       1.0000 0.55660  0.14417  0.77140  Biso   1.000  C
  C4       1.0000 0.57100  0.11330  0.72690  Biso   1.000  C
  H5       1.0000 0.59390  0.11820  0.69320  Biso   1.000  H
  C5       1.0000 0.55100  0.07490  0.73270  Biso   1.000  C
  H6       1.0000 0.56290  0.05420  0.70500  Biso   1.000  H
  C6       1.0000 0.58340  0.18538  0.77400  Biso   1.000  C
  C7       1.0000 0.70710  0.08550  0.66080  Biso   1.000  C
  H7       1.0000 0.71240  0.07440  0.72250  Biso   1.000  H
  C8       1.0000 0.70750  0.12680  0.65390  Biso   1.000  C
  H8       1.0000 0.71220  0.14280  0.70860  Biso   1.000  H
  C9       1.0000 0.70070  0.14320  0.56190  Biso   1.000  C
  C10      1.0000 0.69680  0.11770  0.48580  Biso   1.000  C
  H9       1.0000 0.69360  0.12780  0.42500  Biso   1.000  H
  C11      1.0000 0.69770  0.07700  0.50050  Biso   1.000  C
  H10      1.0000 0.69710  0.06030  0.45040  Biso   1.000  H
  C12      1.0000 0.68800  0.18700  0.53730  Biso   1.000  C
  C13      1.0000 0.49520  0.07390  0.38630  Biso   1.000  C
  H11      1.0000 0.49970  0.05710  0.43980  Biso   1.000  H
  C14      1.0000 0.49680  0.11450  0.40210  Biso   1.000  C
  H12      1.0000 0.49990  0.12470  0.46270  Biso   1.000  H
  C15      1.0000 0.49370  0.13923  0.32610  Biso   1.000  C
  C16      1.0000 0.48360  0.12270  0.23140  Biso   1.000  C
  H13      1.0000 0.47890  0.13880  0.17680  Biso   1.000  H
  C17      1.0000 0.48060  0.08240  0.22040  Biso   1.000  C
  H14      1.0000 0.47340  0.07150  0.15690  Biso   1.000  H
  C18      1.0000 0.50580  0.18400  0.34790  Biso   1.000  C
  C19      1.0000 0.63600  0.07140  0.15800  Biso   1.000  C
  H15      1.0000 0.62010  0.05140  0.18180  Biso   1.000  H
  C20      1.0000 0.62390  0.11010  0.17170  Biso   1.000  C
  H16      1.0000 0.59990  0.11580  0.20350  Biso   1.000  H
  C21      1.0000 0.64760  0.14086  0.13800  Biso   1.000  C
  C22      1.0000 0.68220  0.13010  0.09010  Biso   1.000  C
  H17      1.0000 0.69720  0.14950  0.06340  Biso   1.000  H
  C23      1.0000 0.69440  0.09050  0.08210  Biso   1.000  C
  H18      1.0000 0.72110  0.08400  0.05480  Biso   1.000  H
  C24      1.0000 0.63420  0.18290  0.14880  Biso   1.000  C
  C25      1.0000 0.79520  0.42360  0.13160  Biso   1.000  C
  H19      1.0000 0.79400  0.43220  0.18960  Biso   1.000  H
  C26      1.0000 0.78290  0.38420  0.10350  Biso   1.000  C
  H20      1.0000 0.77260  0.36700  0.14100  Biso   1.000  H
  C27      1.0000 0.78560  0.36980  0.01960  Biso   1.000  C
  C28      1.0000 0.80400  0.39770  0.97330  Biso   1.000  C
  H21      1.0000 0.80960  0.38990  0.91920  Biso   1.000  H
  C29      1.0000 0.81430  0.43700  0.00570  Biso   1.000  C
  H22      1.0000 0.82600  0.45490  0.97130  Biso   1.000  H
  C30      1.0000 0.76790  0.32720  0.97870  Biso   1.000  C
  C31      1.0000 0.58120  0.41910  0.82340  Biso   1.000  C
  H23      1.0000 0.57490  0.43480  0.86810  Biso   1.000  H
  C32      1.0000 0.57360  0.37830  0.82510  Biso   1.000  C
  H24      1.0000 0.56480  0.36690  0.87240  Biso   1.000  H
  C33      1.0000 0.57960  0.35510  0.75410  Biso   1.000  C
  C34      1.0000 0.59740  0.37340  0.69100  Biso   1.000  C
  H25      1.0000 0.60230  0.35870  0.64340  Biso   1.000  H
  C35      1.0000 0.60760  0.41360  0.69960  Biso   1.000  C
  H26      1.0000 0.62280  0.42560  0.66050  Biso   1.000  H
  C36      1.0000 0.57080  0.31090  0.75090  Biso   1.000  C
  C37      1.0000 0.77560  0.40880  0.67080  Biso   1.000  C
  H27      1.0000 0.78850  0.42410  0.73280  Biso   1.000  H
  C38      1.0000 0.74440  0.37220  0.65530  Biso   1.000  C
  H28      1.0000 0.73290  0.36390  0.70220  Biso   1.000  H
  C39      1.0000 0.72980  0.34730  0.56960  Biso   1.000  C
  C40      1.0000 0.74830  0.36140  0.50340  Biso   1.000  C
  H29      1.0000 0.74100  0.34550  0.44630  Biso   1.000  H
  C41      1.0000 0.77810  0.39970  0.52290  Biso   1.000  C
  H30      1.0000 0.79120  0.40880  0.47860  Biso   1.000  H
  C42      1.0000 0.68840  0.30760  0.54210  Biso   1.000  C
  C43      1.0000 0.42090  0.39950  0.37660  Biso   1.000  C
  H31      1.0000 0.41920  0.41040  0.43210  Biso   1.000  H
  C44      1.0000 0.44850  0.36120  0.39250  Biso   1.000  C
  H32      1.0000 0.46420  0.34640  0.45700  Biso   1.000  H
  C45      1.0000 0.45240  0.34490  0.31020  Biso   1.000  C
  C46      1.0000 0.42360  0.36700  0.21320  Biso   1.000  C
  H33      1.0000 0.42160  0.35640  0.15400  Biso   1.000  H
  C47      1.0000 0.39730  0.40530  0.20390  Biso   1.000  C
  H34      1.0000 0.37940  0.42030  0.13870  Biso   1.000  H
  C48      1.0000 0.49240  0.30430  0.33380  Biso   1.000  C
  C49      1.0000 0.58200  0.41040  0.24580  Biso   1.000  C
  H35      1.0000 0.56680  0.41630  0.28970  Biso   1.000  H
  C50      1.0000 0.58330  0.37150  0.22020  Biso   1.000  C
  H36      1.0000 0.56690  0.35160  0.24370  Biso   1.000  H
  C51      1.0000 0.60860  0.36200  0.16070  Biso   1.000  C
  C52      1.0000 0.62790  0.39250  0.11990  Biso   1.000  C
  H37      1.0000 0.64340  0.38690  0.07630  Biso   1.000  H
  C53      1.0000 0.62350  0.43070  0.14510  Biso   1.000  C
  H38      1.0000 0.63580  0.45100  0.11710  Biso   1.000  H
  C54      1.0000 0.62110  0.31880  0.14330  Biso   1.000  C
  C55      1.0000 0.37080  0.56190  0.38940  Biso   1.000  C
  H39      1.0000 0.36170  0.54350  0.42590  Biso   1.000  H
  C56      1.0000 0.37250  0.60340  0.41420  Biso   1.000  C
  H40      1.0000 0.36490  0.61180  0.46570  Biso   1.000  H
  C57      1.0000 0.38560  0.62970  0.35920  Biso   1.000  C
  C58      1.0000 0.39460  0.61700  0.28000  Biso   1.000  C
  H41      1.0000 0.40150  0.63490  0.23990  Biso   1.000  H
  C59      1.0000 0.39300  0.57570  0.26280  Biso   1.000  C
  H42      1.0000 0.40010  0.56670  0.21130  Biso   1.000  H
  C60      1.0000 0.38510  0.67440  0.38230  Biso   1.000  C
  Eu4      1.0000 0.15592  0.75736  0.00111  Biso   1.000  Eu
  Eu5      1.0000 0.08808  0.74525  0.58888  Biso   1.000  Eu
  Eu6      1.0000 0.10041  0.74613  0.29368  Biso   1.000  Eu
  Ag6      1.0000 0.99135  0.50562  0.78504  Biso   1.000  Ag
  Ag7      1.0000 0.19063  0.50096  0.09806  Biso   1.000  Ag
  Ag8      1.0000 0.09824  0.99936  0.74488  Biso   1.000  Ag
  Ag9      1.0000 0.30755  0.01311  0.10532  Biso   1.000  Ag
  Ag10     1.0000 0.88228  0.98560  0.29024  Biso   1.000  Ag
  O22      1.0000 0.09950  0.70817  0.85280  Biso   1.000  O
  O23      1.0000 0.09050  0.69326  0.69880  Biso   1.000  O
  O24      1.0000 0.18850  0.70854  0.60820  Biso   1.000  O
  O25      1.0000 0.17740  0.69926  0.45080  Biso   1.000  O
  O26      1.0000 0.02170  0.69476  0.43990  Biso   1.000  O
  O27      1.0000 0.00580  0.70436  0.27970  Biso   1.000  O
  O28      1.0000 0.10690  0.69022  0.20040  Biso   1.000  O
  O29      1.0000 0.14910  0.70848  0.10420  Biso   1.000  O
  O30      1.0000 0.24340  0.80518  0.01750  Biso   1.000  O
  O31      1.0000 0.27260  0.81840  0.90420  Biso   1.000  O
  O32      1.0000 0.07140  0.79514  0.82850  Biso   1.000  O
  O33      1.0000 0.06160  0.79335  0.66960  Biso   1.000  O
  O34      1.0000 0.16880  0.79836  0.60140  Biso   1.000  O
  O35      1.0000 0.17560  0.78761  0.46170  Biso   1.000  O
  O36      1.0000 0.00510  0.78371  0.41540  Biso   1.000  O
  O37      1.0000 0.00880  0.79507  0.27260  Biso   1.000  O
  O38      1.0000 0.11560  0.79349  0.19620  Biso   1.000  O
  O39      1.0000 0.13460  0.81271  0.07550  Biso   1.000  O
  O40      1.0000 0.88270  0.18380  0.45830  Biso   1.000  O
  O41      1.0000 0.88340  0.19723  0.31180  Biso   1.000  O
  O42      1.0000 0.21170  0.75065  0.79200  Biso   1.000  O
  H43      1.0000 0.21430  0.72730  0.77360  Biso   1.000  H
  H44      1.0000 0.24400  0.76190  0.85870  Biso   1.000  H
  N11      1.0000 0.01530  0.56645  0.77690  Biso   1.000  N
  N12      1.0000 0.19950  0.56110  0.58400  Biso   1.000  N
  N13      1.0000 0.98760  0.55757  0.29780  Biso   1.000  N
  N14      1.0000 0.16970  0.56122  0.11180  Biso   1.000  N
  N15      1.0000 0.30880  0.95034  0.08070  Biso   1.000  N
  N16      1.0000 0.09690  0.93674  0.76170  Biso   1.000  N
  N17      1.0000 0.28860  0.92392  0.60270  Biso   1.000  N
  N18      1.0000 0.89670  0.92150  0.28450  Biso   1.000  N
  N19      1.0000 0.10210  0.94030  0.20920  Biso   1.000  N
  N20      1.0000 0.88170  0.04880  0.31660  Biso   1.000  N
  C61      1.0000 0.00030  0.59670  0.81910  Biso   1.000  C
  H45      1.0000 0.97620  0.59140  0.85100  Biso   1.000  H
  C62      1.0000 0.01960  0.63560  0.81640  Biso   1.000  C
  H46      1.0000 0.00770  0.65590  0.84500  Biso   1.000  H
  C63      1.0000 0.05660  0.64417  0.77140  Biso   1.000  C
  C64      1.0000 0.07100  0.61330  0.72690  Biso   1.000  C
  H47      1.0000 0.09390  0.61820  0.69320  Biso   1.000  H
  C65      1.0000 0.05100  0.57490  0.73270  Biso   1.000  C
  H48      1.0000 0.06290  0.55420  0.70500  Biso   1.000  H
  C66      1.0000 0.08340  0.68538  0.77400  Biso   1.000  C
  C67      1.0000 0.20710  0.58550  0.66080  Biso   1.000  C
  H49      1.0000 0.21240  0.57440  0.72250  Biso   1.000  H
  C68      1.0000 0.20750  0.62680  0.65390  Biso   1.000  C
  H50      1.0000 0.21220  0.64280  0.70860  Biso   1.000  H
  C69      1.0000 0.20070  0.64320  0.56190  Biso   1.000  C
  C70      1.0000 0.19680  0.61770  0.48580  Biso   1.000  C
  H51      1.0000 0.19360  0.62780  0.42500  Biso   1.000  H
  C71      1.0000 0.19770  0.57700  0.50050  Biso   1.000  C
  H52      1.0000 0.19710  0.56030  0.45040  Biso   1.000  H
  C72      1.0000 0.18800  0.68700  0.53730  Biso   1.000  C
  C73      1.0000 0.99520  0.57390  0.38630  Biso   1.000  C
  H53      1.0000 0.99970  0.55710  0.43980  Biso   1.000  H
  C74      1.0000 0.99680  0.61450  0.40210  Biso   1.000  C
  H54      1.0000 0.99990  0.62470  0.46270  Biso   1.000  H
  C75      1.0000 0.99370  0.63923  0.32610  Biso   1.000  C
  C76      1.0000 0.98360  0.62270  0.23140  Biso   1.000  C
  H55      1.0000 0.97890  0.63880  0.17680  Biso   1.000  H
  C77      1.0000 0.98060  0.58240  0.22040  Biso   1.000  C
  H56      1.0000 0.97340  0.57150  0.15690  Biso   1.000  H
  C78      1.0000 0.00580  0.68400  0.34790  Biso   1.000  C
  C79      1.0000 0.13600  0.57140  0.15800  Biso   1.000  C
  H57      1.0000 0.12010  0.55140  0.18180  Biso   1.000  H
  C80      1.0000 0.12390  0.61010  0.17170  Biso   1.000  C
  H58      1.0000 0.09990  0.61580  0.20350  Biso   1.000  H
  C81      1.0000 0.14760  0.64086  0.13800  Biso   1.000  C
  C82      1.0000 0.18220  0.63010  0.09010  Biso   1.000  C
  H59      1.0000 0.19720  0.64950  0.06340  Biso   1.000  H
  C83      1.0000 0.19440  0.59050  0.08210  Biso   1.000  C
  H60      1.0000 0.22110  0.58400  0.05480  Biso   1.000  H
  C84      1.0000 0.13420  0.68290  0.14880  Biso   1.000  C
  C85      1.0000 0.29520  0.92360  0.13160  Biso   1.000  C
  H61      1.0000 0.29400  0.93220  0.18960  Biso   1.000  H
  C86      1.0000 0.28290  0.88420  0.10350  Biso   1.000  C
  H62      1.0000 0.27260  0.86700  0.14100  Biso   1.000  H
  C87      1.0000 0.28560  0.86980  0.01960  Biso   1.000  C
  C88      1.0000 0.30400  0.89770  0.97330  Biso   1.000  C
  H63      1.0000 0.30960  0.88990  0.91920  Biso   1.000  H
  C89      1.0000 0.31430  0.93700  0.00570  Biso   1.000  C
  H64      1.0000 0.32600  0.95490  0.97130  Biso   1.000  H
  C90      1.0000 0.26790  0.82720  0.97870  Biso   1.000  C
  C91      1.0000 0.08120  0.91910  0.82340  Biso   1.000  C
  H65      1.0000 0.07490  0.93480  0.86810  Biso   1.000  H
  C92      1.0000 0.07360  0.87830  0.82510  Biso   1.000  C
  H66      1.0000 0.06480  0.86690  0.87240  Biso   1.000  H
  C93      1.0000 0.07960  0.85510  0.75410  Biso   1.000  C
  C94      1.0000 0.09740  0.87340  0.69100  Biso   1.000  C
  H67      1.0000 0.10230  0.85870  0.64340  Biso   1.000  H
  C95      1.0000 0.10760  0.91360  0.69960  Biso   1.000  C
  H68      1.0000 0.12280  0.92560  0.66050  Biso   1.000  H
  C96      1.0000 0.07080  0.81090  0.75090  Biso   1.000  C
  C97      1.0000 0.27560  0.90880  0.67080  Biso   1.000  C
  H69      1.0000 0.28850  0.92410  0.73280  Biso   1.000  H
  C98      1.0000 0.24440  0.87220  0.65530  Biso   1.000  C
  H70      1.0000 0.23290  0.86390  0.70220  Biso   1.000  H
  C99      1.0000 0.22980  0.84730  0.56960  Biso   1.000  C
  C100     1.0000 0.24830  0.86140  0.50340  Biso   1.000  C
  H71      1.0000 0.24100  0.84550  0.44630  Biso   1.000  H
  C101     1.0000 0.27810  0.89970  0.52290  Biso   1.000  C
  H72      1.0000 0.29120  0.90880  0.47860  Biso   1.000  H
  C102     1.0000 0.18840  0.80760  0.54210  Biso   1.000  C
  C103     1.0000 0.92090  0.89950  0.37660  Biso   1.000  C
  H73      1.0000 0.91920  0.91040  0.43210  Biso   1.000  H
  C104     1.0000 0.94850  0.86120  0.39250  Biso   1.000  C
  H74      1.0000 0.96420  0.84640  0.45700  Biso   1.000  H
  C105     1.0000 0.95240  0.84490  0.31020  Biso   1.000  C
  C106     1.0000 0.92360  0.86700  0.21320  Biso   1.000  C
  H75      1.0000 0.92160  0.85640  0.15400  Biso   1.000  H
  C107     1.0000 0.89730  0.90530  0.20390  Biso   1.000  C
  H76      1.0000 0.87940  0.92030  0.13870  Biso   1.000  H
  C108     1.0000 0.99240  0.80430  0.33380  Biso   1.000  C
  C109     1.0000 0.08200  0.91040  0.24580  Biso   1.000  C
  H77      1.0000 0.06680  0.91630  0.28970  Biso   1.000  H
  C110     1.0000 0.08330  0.87150  0.22020  Biso   1.000  C
  H78      1.0000 0.06690  0.85160  0.24370  Biso   1.000  H
  C111     1.0000 0.10860  0.86200  0.16070  Biso   1.000  C
  C112     1.0000 0.12790  0.89250  0.11990  Biso   1.000  C
  H79      1.0000 0.14340  0.88690  0.07630  Biso   1.000  H
  C113     1.0000 0.12350  0.93070  0.14510  Biso   1.000  C
  H80      1.0000 0.13580  0.95100  0.11710  Biso   1.000  H
  C114     1.0000 0.12110  0.81880  0.14330  Biso   1.000  C
  C115     1.0000 0.87080  0.06190  0.38940  Biso   1.000  C
  H81      1.0000 0.86170  0.04350  0.42590  Biso   1.000  H
  C116     1.0000 0.87250  0.10340  0.41420  Biso   1.000  C
  H82      1.0000 0.86490  0.11180  0.46570  Biso   1.000  H
  C117     1.0000 0.88560  0.12970  0.35920  Biso   1.000  C
  C118     1.0000 0.89460  0.11700  0.28000  Biso   1.000  C
  H83      1.0000 0.90150  0.13490  0.23990  Biso   1.000  H
  C119     1.0000 0.89300  0.07570  0.26280  Biso   1.000  C
  H84      1.0000 0.90010  0.06670  0.21130  Biso   1.000  H
  C120     1.0000 0.88510  0.17440  0.38230  Biso   1.000  C
  Eu7      1.0000 0.65592  0.74264  0.50111  Biso   1.000  Eu
  Eu8      1.0000 0.58808  0.75475  0.08888  Biso   1.000  Eu
  Eu9      1.0000 0.60041  0.75387  0.79368  Biso   1.000  Eu
  Ag11     1.0000 0.49135  0.99438  0.28504  Biso   1.000  Ag
  Ag12     1.0000 0.69063  0.99904  0.59806  Biso   1.000  Ag
  Ag13     1.0000 0.59824  0.50064  0.24488  Biso   1.000  Ag
  Ag14     1.0000 0.80755  0.48689  0.60532  Biso   1.000  Ag
  Ag15     1.0000 0.38228  0.51440  0.79024  Biso   1.000  Ag
  O43      1.0000 0.59950  0.79183  0.35280  Biso   1.000  O
  O44      1.0000 0.59050  0.80674  0.19880  Biso   1.000  O
  O45      1.0000 0.68850  0.79146  0.10820  Biso   1.000  O
  O46      1.0000 0.67740  0.80074  0.95080  Biso   1.000  O
  O47      1.0000 0.52170  0.80524  0.93990  Biso   1.000  O
  O48      1.0000 0.50580  0.79564  0.77970  Biso   1.000  O
  O49      1.0000 0.60690  0.80978  0.70040  Biso   1.000  O
  O50      1.0000 0.64910  0.79152  0.60420  Biso   1.000  O
  O51      1.0000 0.74340  0.69482  0.51750  Biso   1.000  O
  O52      1.0000 0.77260  0.68160  0.40420  Biso   1.000  O
  O53      1.0000 0.57140  0.70486  0.32850  Biso   1.000  O
  O54      1.0000 0.56160  0.70665  0.16960  Biso   1.000  O
  O55      1.0000 0.66880  0.70164  0.10140  Biso   1.000  O
  O56      1.0000 0.67560  0.71239  0.96170  Biso   1.000  O
  O57      1.0000 0.50510  0.71629  0.91540  Biso   1.000  O
  O58      1.0000 0.50880  0.70493  0.77260  Biso   1.000  O
  O59      1.0000 0.61560  0.70651  0.69620  Biso   1.000  O
  O60      1.0000 0.63460  0.68729  0.57550  Biso   1.000  O
  O61      1.0000 0.38270  0.31620  0.95830  Biso   1.000  O
  O62      1.0000 0.38340  0.30277  0.81180  Biso   1.000  O
  O63      1.0000 0.71170  0.74935  0.29200  Biso   1.000  O
  H85      1.0000 0.71430  0.77270  0.27360  Biso   1.000  H
  H86      1.0000 0.74400  0.73810  0.35870  Biso   1.000  H
  N21      1.0000 0.51530  0.93355  0.27690  Biso   1.000  N
  N22      1.0000 0.69950  0.93890  0.08400  Biso   1.000  N
  N23      1.0000 0.48760  0.94243  0.79780  Biso   1.000  N
  N24      1.0000 0.66970  0.93878  0.61180  Biso   1.000  N
  N25      1.0000 0.80880  0.54966  0.58070  Biso   1.000  N
  N26      1.0000 0.59690  0.56326  0.26170  Biso   1.000  N
  N27      1.0000 0.78860  0.57608  0.10270  Biso   1.000  N
  N28      1.0000 0.39670  0.57850  0.78450  Biso   1.000  N
  N29      1.0000 0.60210  0.55970  0.70920  Biso   1.000  N
  N30      1.0000 0.38170  0.45120  0.81660  Biso   1.000  N
  C121     1.0000 0.50030  0.90330  0.31910  Biso   1.000  C
  H87      1.0000 0.47620  0.90860  0.35100  Biso   1.000  H
  C122     1.0000 0.51960  0.86440  0.31640  Biso   1.000  C
  H88      1.0000 0.50770  0.84410  0.34500  Biso   1.000  H
  C123     1.0000 0.55660  0.85583  0.27140  Biso   1.000  C
  C124     1.0000 0.57100  0.88670  0.22690  Biso   1.000  C
  H89      1.0000 0.59390  0.88180  0.19320  Biso   1.000  H
  C125     1.0000 0.55100  0.92510  0.23270  Biso   1.000  C
  H90      1.0000 0.56290  0.94580  0.20500  Biso   1.000  H
  C126     1.0000 0.58340  0.81462  0.27400  Biso   1.000  C
  C127     1.0000 0.70710  0.91450  0.16080  Biso   1.000  C
  H91      1.0000 0.71240  0.92560  0.22250  Biso   1.000  H
  C128     1.0000 0.70750  0.87320  0.15390  Biso   1.000  C
  H92      1.0000 0.71220  0.85720  0.20860  Biso   1.000  H
  C129     1.0000 0.70070  0.85680  0.06190  Biso   1.000  C
  C130     1.0000 0.69680  0.88230  0.98580  Biso   1.000  C
  H93      1.0000 0.69360  0.87220  0.92500  Biso   1.000  H
  C131     1.0000 0.69770  0.92300  0.00050  Biso   1.000  C
  H94      1.0000 0.69710  0.93970  0.95040  Biso   1.000  H
  C132     1.0000 0.68800  0.81300  0.03730  Biso   1.000  C
  C133     1.0000 0.49520  0.92610  0.88630  Biso   1.000  C
  H95      1.0000 0.49970  0.94290  0.93980  Biso   1.000  H
  C134     1.0000 0.49680  0.88550  0.90210  Biso   1.000  C
  H96      1.0000 0.49990  0.87530  0.96270  Biso   1.000  H
  C135     1.0000 0.49370  0.86077  0.82610  Biso   1.000  C
  C136     1.0000 0.48360  0.87730  0.73140  Biso   1.000  C
  H97      1.0000 0.47890  0.86120  0.67680  Biso   1.000  H
  C137     1.0000 0.48060  0.91760  0.72040  Biso   1.000  C
  H98      1.0000 0.47340  0.92850  0.65690  Biso   1.000  H
  C138     1.0000 0.50580  0.81600  0.84790  Biso   1.000  C
  C139     1.0000 0.63600  0.92860  0.65800  Biso   1.000  C
  H99      1.0000 0.62010  0.94860  0.68180  Biso   1.000  H
  C140     1.0000 0.62390  0.88990  0.67170  Biso   1.000  C
  H100     1.0000 0.59990  0.88420  0.70350  Biso   1.000  H
  C141     1.0000 0.64760  0.85914  0.63800  Biso   1.000  C
  C142     1.0000 0.68220  0.86990  0.59010  Biso   1.000  C
  H101     1.0000 0.69720  0.85050  0.56340  Biso   1.000  H
  C143     1.0000 0.69440  0.90950  0.58210  Biso   1.000  C
  H102     1.0000 0.72110  0.91600  0.55480  Biso   1.000  H
  C144     1.0000 0.63420  0.81710  0.64880  Biso   1.000  C
  C145     1.0000 0.79520  0.57640  0.63160  Biso   1.000  C
  H103     1.0000 0.79400  0.56780  0.68960  Biso   1.000  H
  C146     1.0000 0.78290  0.61580  0.60350  Biso   1.000  C
  H104     1.0000 0.77260  0.63300  0.64100  Biso   1.000  H
  C147     1.0000 0.78560  0.63020  0.51960  Biso   1.000  C
  C148     1.0000 0.80400  0.60230  0.47330  Biso   1.000  C
  H105     1.0000 0.80960  0.61010  0.41920  Biso   1.000  H
  C149     1.0000 0.81430  0.56300  0.50570  Biso   1.000  C
  H106     1.0000 0.82600  0.54510  0.47130  Biso   1.000  H
  C150     1.0000 0.76790  0.67280  0.47870  Biso   1.000  C
  C151     1.0000 0.58120  0.58090  0.32340  Biso   1.000  C
  H107     1.0000 0.57490  0.56520  0.36810  Biso   1.000  H
  C152     1.0000 0.57360  0.62170  0.32510  Biso   1.000  C
  H108     1.0000 0.56480  0.63310  0.37240  Biso   1.000  H
  C153     1.0000 0.57960  0.64490  0.25410  Biso   1.000  C
  C154     1.0000 0.59740  0.62660  0.19100  Biso   1.000  C
  H109     1.0000 0.60230  0.64130  0.14340  Biso   1.000  H
  C155     1.0000 0.60760  0.58640  0.19960  Biso   1.000  C
  H110     1.0000 0.62280  0.57440  0.16050  Biso   1.000  H
  C156     1.0000 0.57080  0.68910  0.25090  Biso   1.000  C
  C157     1.0000 0.77560  0.59120  0.17080  Biso   1.000  C
  H111     1.0000 0.78850  0.57590  0.23280  Biso   1.000  H
  C158     1.0000 0.74440  0.62780  0.15530  Biso   1.000  C
  H112     1.0000 0.73290  0.63610  0.20220  Biso   1.000  H
  C159     1.0000 0.72980  0.65270  0.06960  Biso   1.000  C
  C160     1.0000 0.74830  0.63860  0.00340  Biso   1.000  C
  H113     1.0000 0.74100  0.65450  0.94630  Biso   1.000  H
  C161     1.0000 0.77810  0.60030  0.02290  Biso   1.000  C
  H114     1.0000 0.79120  0.59120  0.97860  Biso   1.000  H
  C162     1.0000 0.68840  0.69240  0.04210  Biso   1.000  C
  C163     1.0000 0.42090  0.60050  0.87660  Biso   1.000  C
  H115     1.0000 0.41920  0.58960  0.93210  Biso   1.000  H
  C164     1.0000 0.44850  0.63880  0.89250  Biso   1.000  C
  H116     1.0000 0.46420  0.65360  0.95700  Biso   1.000  H
  C165     1.0000 0.45240  0.65510  0.81020  Biso   1.000  C
  C166     1.0000 0.42360  0.63300  0.71320  Biso   1.000  C
  H117     1.0000 0.42160  0.64360  0.65400  Biso   1.000  H
  C167     1.0000 0.39730  0.59470  0.70390  Biso   1.000  C
  H118     1.0000 0.37940  0.57970  0.63870  Biso   1.000  H
  C168     1.0000 0.49240  0.69570  0.83380  Biso   1.000  C
  C169     1.0000 0.58200  0.58960  0.74580  Biso   1.000  C
  H119     1.0000 0.56680  0.58370  0.78970  Biso   1.000  H
  C170     1.0000 0.58330  0.62850  0.72020  Biso   1.000  C
  H120     1.0000 0.56690  0.64840  0.74370  Biso   1.000  H
  C171     1.0000 0.60860  0.63800  0.66070  Biso   1.000  C
  C172     1.0000 0.62790  0.60750  0.61990  Biso   1.000  C
  H121     1.0000 0.64340  0.61310  0.57630  Biso   1.000  H
  C173     1.0000 0.62350  0.56930  0.64510  Biso   1.000  C
  H122     1.0000 0.63580  0.54900  0.61710  Biso   1.000  H
  C174     1.0000 0.62110  0.68120  0.64330  Biso   1.000  C
  C175     1.0000 0.37080  0.43810  0.88940  Biso   1.000  C
  H123     1.0000 0.36170  0.45650  0.92590  Biso   1.000  H
  C176     1.0000 0.37250  0.39660  0.91420  Biso   1.000  C
  H124     1.0000 0.36490  0.38820  0.96570  Biso   1.000  H
  C177     1.0000 0.38560  0.37030  0.85920  Biso   1.000  C
  C178     1.0000 0.39460  0.38300  0.78000  Biso   1.000  C
  H125     1.0000 0.40150  0.36510  0.73990  Biso   1.000  H
  C179     1.0000 0.39300  0.42430  0.76280  Biso   1.000  C
  H126     1.0000 0.40010  0.43330  0.71130  Biso   1.000  H
  C180     1.0000 0.38510  0.32560  0.88230  Biso   1.000  C
  Eu10     1.0000 0.15592  0.24264  0.50111  Biso   1.000  Eu
  Eu11     1.0000 0.08808  0.25475  0.08888  Biso   1.000  Eu
  Eu12     1.0000 0.10041  0.25387  0.79368  Biso   1.000  Eu
  Ag16     1.0000 0.99135  0.49438  0.28504  Biso   1.000  Ag
  Ag17     1.0000 0.19063  0.49904  0.59806  Biso   1.000  Ag
  Ag18     1.0000 0.09824  0.00064  0.24488  Biso   1.000  Ag
  Ag19     1.0000 0.30755  0.98689  0.60532  Biso   1.000  Ag
  Ag20     1.0000 0.88228  0.01440  0.79024  Biso   1.000  Ag
  O64      1.0000 0.09950  0.29183  0.35280  Biso   1.000  O
  O65      1.0000 0.09050  0.30674  0.19880  Biso   1.000  O
  O66      1.0000 0.18850  0.29146  0.10820  Biso   1.000  O
  O67      1.0000 0.17740  0.30074  0.95080  Biso   1.000  O
  O68      1.0000 0.02170  0.30524  0.93990  Biso   1.000  O
  O69      1.0000 0.00580  0.29564  0.77970  Biso   1.000  O
  O70      1.0000 0.10690  0.30978  0.70040  Biso   1.000  O
  O71      1.0000 0.14910  0.29152  0.60420  Biso   1.000  O
  O72      1.0000 0.24340  0.19482  0.51750  Biso   1.000  O
  O73      1.0000 0.27260  0.18160  0.40420  Biso   1.000  O
  O74      1.0000 0.07140  0.20486  0.32850  Biso   1.000  O
  O75      1.0000 0.06160  0.20665  0.16960  Biso   1.000  O
  O76      1.0000 0.16880  0.20164  0.10140  Biso   1.000  O
  O77      1.0000 0.17560  0.21239  0.96170  Biso   1.000  O
  O78      1.0000 0.00510  0.21629  0.91540  Biso   1.000  O
  O79      1.0000 0.00880  0.20493  0.77260  Biso   1.000  O
  O80      1.0000 0.11560  0.20651  0.69620  Biso   1.000  O
  O81      1.0000 0.13460  0.18729  0.57550  Biso   1.000  O
  O82      1.0000 0.88270  0.81620  0.95830  Biso   1.000  O
  O83      1.0000 0.88340  0.80277  0.81180  Biso   1.000  O
  O84      1.0000 0.21170  0.24935  0.29200  Biso   1.000  O
  H127     1.0000 0.21430  0.27270  0.27360  Biso   1.000  H
  H128     1.0000 0.24400  0.23810  0.35870  Biso   1.000  H
  N31      1.0000 0.01530  0.43355  0.27690  Biso   1.000  N
  N32      1.0000 0.19950  0.43890  0.08400  Biso   1.000  N
  N33      1.0000 0.98760  0.44243  0.79780  Biso   1.000  N
  N34      1.0000 0.16970  0.43878  0.61180  Biso   1.000  N
  N35      1.0000 0.30880  0.04966  0.58070  Biso   1.000  N
  N36      1.0000 0.09690  0.06326  0.26170  Biso   1.000  N
  N37      1.0000 0.28860  0.07608  0.10270  Biso   1.000  N
  N38      1.0000 0.89670  0.07850  0.78450  Biso   1.000  N
  N39      1.0000 0.10210  0.05970  0.70920  Biso   1.000  N
  N40      1.0000 0.88170  0.95120  0.81660  Biso   1.000  N
  C181     1.0000 0.00030  0.40330  0.31910  Biso   1.000  C
  H129     1.0000 0.97620  0.40860  0.35100  Biso   1.000  H
  C182     1.0000 0.01960  0.36440  0.31640  Biso   1.000  C
  H130     1.0000 0.00770  0.34410  0.34500  Biso   1.000  H
  C183     1.0000 0.05660  0.35583  0.27140  Biso   1.000  C
  C184     1.0000 0.07100  0.38670  0.22690  Biso   1.000  C
  H131     1.0000 0.09390  0.38180  0.19320  Biso   1.000  H
  C185     1.0000 0.05100  0.42510  0.23270  Biso   1.000  C
  H132     1.0000 0.06290  0.44580  0.20500  Biso   1.000  H
  C186     1.0000 0.08340  0.31462  0.27400  Biso   1.000  C
  C187     1.0000 0.20710  0.41450  0.16080  Biso   1.000  C
  H133     1.0000 0.21240  0.42560  0.22250  Biso   1.000  H
  C188     1.0000 0.20750  0.37320  0.15390  Biso   1.000  C
  H134     1.0000 0.21220  0.35720  0.20860  Biso   1.000  H
  C189     1.0000 0.20070  0.35680  0.06190  Biso   1.000  C
  C190     1.0000 0.19680  0.38230  0.98580  Biso   1.000  C
  H135     1.0000 0.19360  0.37220  0.92500  Biso   1.000  H
  C191     1.0000 0.19770  0.42300  0.00050  Biso   1.000  C
  H136     1.0000 0.19710  0.43970  0.95040  Biso   1.000  H
  C192     1.0000 0.18800  0.31300  0.03730  Biso   1.000  C
  C193     1.0000 0.99520  0.42610  0.88630  Biso   1.000  C
  H137     1.0000 0.99970  0.44290  0.93980  Biso   1.000  H
  C194     1.0000 0.99680  0.38550  0.90210  Biso   1.000  C
  H138     1.0000 0.99990  0.37530  0.96270  Biso   1.000  H
  C195     1.0000 0.99370  0.36077  0.82610  Biso   1.000  C
  C196     1.0000 0.98360  0.37730  0.73140  Biso   1.000  C
  H139     1.0000 0.97890  0.36120  0.67680  Biso   1.000  H
  C197     1.0000 0.98060  0.41760  0.72040  Biso   1.000  C
  H140     1.0000 0.97340  0.42850  0.65690  Biso   1.000  H
  C198     1.0000 0.00580  0.31600  0.84790  Biso   1.000  C
  C199     1.0000 0.13600  0.42860  0.65800  Biso   1.000  C
  H141     1.0000 0.12010  0.44860  0.68180  Biso   1.000  H
  C200     1.0000 0.12390  0.38990  0.67170  Biso   1.000  C
  H142     1.0000 0.09990  0.38420  0.70350  Biso   1.000  H
  C201     1.0000 0.14760  0.35914  0.63800  Biso   1.000  C
  C202     1.0000 0.18220  0.36990  0.59010  Biso   1.000  C
  H143     1.0000 0.19720  0.35050  0.56340  Biso   1.000  H
  C203     1.0000 0.19440  0.40950  0.58210  Biso   1.000  C
  H144     1.0000 0.22110  0.41600  0.55480  Biso   1.000  H
  C204     1.0000 0.13420  0.31710  0.64880  Biso   1.000  C
  C205     1.0000 0.29520  0.07640  0.63160  Biso   1.000  C
  H145     1.0000 0.29400  0.06780  0.68960  Biso   1.000  H
  C206     1.0000 0.28290  0.11580  0.60350  Biso   1.000  C
  H146     1.0000 0.27260  0.13300  0.64100  Biso   1.000  H
  C207     1.0000 0.28560  0.13020  0.51960  Biso   1.000  C
  C208     1.0000 0.30400  0.10230  0.47330  Biso   1.000  C
  H147     1.0000 0.30960  0.11010  0.41920  Biso   1.000  H
  C209     1.0000 0.31430  0.06300  0.50570  Biso   1.000  C
  H148     1.0000 0.32600  0.04510  0.47130  Biso   1.000  H
  C210     1.0000 0.26790  0.17280  0.47870  Biso   1.000  C
  C211     1.0000 0.08120  0.08090  0.32340  Biso   1.000  C
  H149     1.0000 0.07490  0.06520  0.36810  Biso   1.000  H
  C212     1.0000 0.07360  0.12170  0.32510  Biso   1.000  C
  H150     1.0000 0.06480  0.13310  0.37240  Biso   1.000  H
  C213     1.0000 0.07960  0.14490  0.25410  Biso   1.000  C
  C214     1.0000 0.09740  0.12660  0.19100  Biso   1.000  C
  H151     1.0000 0.10230  0.14130  0.14340  Biso   1.000  H
  C215     1.0000 0.10760  0.08640  0.19960  Biso   1.000  C
  H152     1.0000 0.12280  0.07440  0.16050  Biso   1.000  H
  C216     1.0000 0.07080  0.18910  0.25090  Biso   1.000  C
  C217     1.0000 0.27560  0.09120  0.17080  Biso   1.000  C
  H153     1.0000 0.28850  0.07590  0.23280  Biso   1.000  H
  C218     1.0000 0.24440  0.12780  0.15530  Biso   1.000  C
  H154     1.0000 0.23290  0.13610  0.20220  Biso   1.000  H
  C219     1.0000 0.22980  0.15270  0.06960  Biso   1.000  C
  C220     1.0000 0.24830  0.13860  0.00340  Biso   1.000  C
  H155     1.0000 0.24100  0.15450  0.94630  Biso   1.000  H
  C221     1.0000 0.27810  0.10030  0.02290  Biso   1.000  C
  H156     1.0000 0.29120  0.09120  0.97860  Biso   1.000  H
  C222     1.0000 0.18840  0.19240  0.04210  Biso   1.000  C
  C223     1.0000 0.92090  0.10050  0.87660  Biso   1.000  C
  H157     1.0000 0.91920  0.08960  0.93210  Biso   1.000  H
  C224     1.0000 0.94850  0.13880  0.89250  Biso   1.000  C
  H158     1.0000 0.96420  0.15360  0.95700  Biso   1.000  H
  C225     1.0000 0.95240  0.15510  0.81020  Biso   1.000  C
  C226     1.0000 0.92360  0.13300  0.71320  Biso   1.000  C
  H159     1.0000 0.92160  0.14360  0.65400  Biso   1.000  H
  C227     1.0000 0.89730  0.09470  0.70390  Biso   1.000  C
  H160     1.0000 0.87940  0.07970  0.63870  Biso   1.000  H
  C228     1.0000 0.99240  0.19570  0.83380  Biso   1.000  C
  C229     1.0000 0.08200  0.08960  0.74580  Biso   1.000  C
  H161     1.0000 0.06680  0.08370  0.78970  Biso   1.000  H
  C230     1.0000 0.08330  0.12850  0.72020  Biso   1.000  C
  H162     1.0000 0.06690  0.14840  0.74370  Biso   1.000  H
  C231     1.0000 0.10860  0.13800  0.66070  Biso   1.000  C
  C232     1.0000 0.12790  0.10750  0.61990  Biso   1.000  C
  H163     1.0000 0.14340  0.11310  0.57630  Biso   1.000  H
  C233     1.0000 0.12350  0.06930  0.64510  Biso   1.000  C
  H164     1.0000 0.13580  0.04900  0.61710  Biso   1.000  H
  C234     1.0000 0.12110  0.18120  0.64330  Biso   1.000  C
  C235     1.0000 0.87080  0.93810  0.88940  Biso   1.000  C
  H165     1.0000 0.86170  0.95650  0.92590  Biso   1.000  H
  C236     1.0000 0.87250  0.89660  0.91420  Biso   1.000  C
  H166     1.0000 0.86490  0.88820  0.96570  Biso   1.000  H
  C237     1.0000 0.88560  0.87030  0.85920  Biso   1.000  C
  C238     1.0000 0.89460  0.88300  0.78000  Biso   1.000  C
  H167     1.0000 0.90150  0.86510  0.73990  Biso   1.000  H
  C239     1.0000 0.89300  0.92430  0.76280  Biso   1.000  C
  H168     1.0000 0.90010  0.93330  0.71130  Biso   1.000  H
  C240     1.0000 0.88510  0.82560  0.88230  Biso   1.000  C
