data_image0
_cell_length_a       5.5512
_cell_length_b       9.7858
_cell_length_c       12.9382
_cell_angle_alpha    86.877
_cell_angle_beta     87.809
_cell_angle_gamma    76.451

_symmetry_space_group_name_H-M    "P 1"
_symmetry_int_tables_number       1

loop_
  _symmetry_equiv_pos_as_xyz
  'x, y, z'

loop_
  _atom_site_label
  _atom_site_occupancy
  _atom_site_fract_x
  _atom_site_fract_y
  _atom_site_fract_z
  _atom_site_thermal_displace_type
  _atom_site_B_iso_or_equiv
  _atom_site_type_symbol
  Zn1      1.0000 0.08320  0.62355  0.81280  Biso   1.000  Zn
  Zn2      1.0000 0.53250  0.02099  0.49277  Biso   1.000  Zn
  Zn3      1.0000 0.80123  0.07970  0.91915  Biso   1.000  Zn
  P1       1.0000 0.00321  0.83588  0.60647  Biso   1.000  P
  P2       1.0000 0.76924  0.77383  0.01355  Biso   1.000  P
  O1       1.0000 0.98240  0.70650  0.67494  Biso   1.000  O
  O2       1.0000 0.81960  0.85890  0.51998  Biso   1.000  O
  O3       1.0000 0.26910  0.82510  0.56690  Biso   1.000  O
  O4       1.0000 0.06280  0.97590  0.77690  Biso   1.000  O
  H1       1.0000 0.18900  0.00000  0.75100  Biso   1.000  H
  O5       1.0000 0.48600  0.05610  0.65061  Biso   1.000  O
  O6       1.0000 0.59250  0.02230  0.81296  Biso   1.000  O
  O7       1.0000 0.49230  0.81340  0.99678  Biso   1.000  O
  O8       1.0000 0.88230  0.90170  0.01397  Biso   1.000  O
  O9       1.0000 0.90440  0.66560  0.94117  Biso   1.000  O
  O10      1.0000 0.69060  0.58210  0.15981  Biso   1.000  O
  H2       1.0000 0.55500  0.61800  0.16000  Biso   1.000  H
  O11      1.0000 0.22100  0.72380  0.16656  Biso   1.000  O
  O12      1.0000 0.14390  0.51790  0.21249  Biso   1.000  O
  C1       1.0000 0.91970  0.99340  0.68520  Biso   1.000  C
  H3       1.0000 0.95500  0.08100  0.64400  Biso   1.000  H
  C2       1.0000 0.64850  0.02560  0.71850  Biso   1.000  C
  C3       1.0000 0.81030  0.69570  0.14600  Biso   1.000  C
  H4       1.0000 0.74400  0.77100  0.19100  Biso   1.000  H
  C4       1.0000 0.07660  0.64130  0.17643  Biso   1.000  C
  Zn4      1.0000 0.91680  0.37645  0.18720  Biso   1.000  Zn
  Zn5      1.0000 0.46750  0.97901  0.50723  Biso   1.000  Zn
  Zn6      1.0000 0.19877  0.92030  0.08085  Biso   1.000  Zn
  P3       1.0000 0.99679  0.16412  0.39353  Biso   1.000  P
  P4       1.0000 0.23076  0.22617  0.98645  Biso   1.000  P
  O13      1.0000 0.01760  0.29350  0.32506  Biso   1.000  O
  O14      1.0000 0.18040  0.14110  0.48002  Biso   1.000  O
  O15      1.0000 0.73090  0.17490  0.43310  Biso   1.000  O
  O16      1.0000 0.93720  0.02410  0.22310  Biso   1.000  O
  H5       1.0000 0.81100  0.00000  0.24900  Biso   1.000  H
  O17      1.0000 0.51400  0.94390  0.34939  Biso   1.000  O
  O18      1.0000 0.40750  0.97770  0.18704  Biso   1.000  O
  O19      1.0000 0.50770  0.18660  0.00322  Biso   1.000  O
  O20      1.0000 0.11770  0.09830  0.98603  Biso   1.000  O
  O21      1.0000 0.09560  0.33440  0.05883  Biso   1.000  O
  O22      1.0000 0.30940  0.41790  0.84019  Biso   1.000  O
  H6       1.0000 0.44500  0.38200  0.84000  Biso   1.000  H
  O23      1.0000 0.77900  0.27620  0.83344  Biso   1.000  O
  O24      1.0000 0.85610  0.48210  0.78751  Biso   1.000  O
  C5       1.0000 0.08030  0.00660  0.31480  Biso   1.000  C
  H7       1.0000 0.04500  0.91900  0.35600  Biso   1.000  H
  C6       1.0000 0.35150  0.97440  0.28150  Biso   1.000  C
  C7       1.0000 0.18970  0.30430  0.85400  Biso   1.000  C
  H8       1.0000 0.25600  0.22900  0.80900  Biso   1.000  H
  C8       1.0000 0.92340  0.35870  0.82357  Biso   1.000  C
