data_image0
_cell_length_a       10.23
_cell_length_b       11.059
_cell_length_c       13.818
_cell_angle_alpha    69.01
_cell_angle_beta     78.31
_cell_angle_gamma    72.15

_symmetry_space_group_name_H-M    "P 1"
_symmetry_int_tables_number       1

loop_
  _symmetry_equiv_pos_as_xyz
  'x, y, z'

loop_
  _atom_site_label
  _atom_site_occupancy
  _atom_site_fract_x
  _atom_site_fract_y
  _atom_site_fract_z
  _atom_site_thermal_displace_type
  _atom_site_B_iso_or_equiv
  _atom_site_type_symbol
  Zn1      1.0000 0.92146  0.14906  0.08523  Biso   1.000  Zn
  Zn2      1.0000 0.07750  0.35239  0.91430  Biso   1.000  Zn
  Zn3      1.0000 0.38253  0.01446  0.17298  Biso   1.000  Zn
  Zn4      1.0000 0.37969  0.51497  0.17448  Biso   1.000  Zn
  Zn5      1.0000 0.02136  0.72416  0.49037  Biso   1.000  Zn
  P1       1.0000 0.22299  0.03104  0.98165  Biso   1.000  P
  P2       1.0000 0.22296  0.53098  0.98146  Biso   1.000  P
  P3       1.0000 0.15649  0.97881  0.38131  Biso   1.000  P
  P4       1.0000 0.15654  0.48571  0.38395  Biso   1.000  P
  O1       1.0000 0.10060  0.15190  0.98620  Biso   1.000  O
  O2       1.0000 0.82120  0.09450  0.00210  Biso   1.000  O
  O3       1.0000 0.33140  0.00460  0.04980  Biso   1.000  O
  O4       1.0000 0.58410  0.02700  0.17070  Biso   1.000  O
  O5       1.0000 0.51050  0.81460  0.19750  Biso   1.000  O
  O6       1.0000 0.27900  0.30950  0.82530  Biso   1.000  O
  O7       1.0000 0.17940  0.40580  0.99700  Biso   1.000  O
  O8       1.0000 0.89980  0.34910  0.01440  Biso   1.000  O
  O9       1.0000 0.33000  0.50560  0.05080  Biso   1.000  O
  O10      1.0000 0.58210  0.52850  0.16910  Biso   1.000  O
  O11      1.0000 0.71930  0.19160  0.17390  Biso   1.000  O
  O12      1.0000 0.50780  0.31690  0.19720  Biso   1.000  O
  O13      1.0000 0.27970  0.94450  0.30700  Biso   1.000  O
  O14      1.0000 0.16760  0.08940  0.42110  Biso   1.000  O
  O15      1.0000 0.13380  0.85840  0.47150  Biso   1.000  O
  O16      1.0000 0.01480  0.16010  0.22000  Biso   1.000  O
  O17      1.0000 0.96600  0.96310  0.18840  Biso   1.000  O
  O18      1.0000 0.93930  0.84330  0.35380  Biso   1.000  O
  O19      1.0000 0.28090  0.45010  0.30990  Biso   1.000  O
  O20      1.0000 0.16660  0.59570  0.42220  Biso   1.000  O
  O21      1.0000 0.86730  0.63580  0.52550  Biso   1.000  O
  O22      1.0000 0.01820  0.66030  0.21770  Biso   1.000  O
  O23      1.0000 0.03060  0.53950  0.81020  Biso   1.000  O
  O24      1.0000 0.05620  0.65670  0.64650  Biso   1.000  O
  C1       1.0000 0.30520  0.08030  0.84740  Biso   1.000  C
  H1       1.0000 0.23620  0.10290  0.79950  Biso   1.000  H
  C2       1.0000 0.63850  0.79900  0.17660  Biso   1.000  C
  C3       1.0000 0.30750  0.57780  0.84860  Biso   1.000  C
  H2       1.0000 0.23940  0.60030  0.80010  Biso   1.000  H
  C4       1.0000 0.63580  0.30100  0.17580  Biso   1.000  C
  C5       1.0000 0.00020  0.05130  0.31430  Biso   1.000  C
  H3       1.0000 0.92320  0.08440  0.36120  Biso   1.000  H
  C6       1.0000 0.96590  0.94600  0.28370  Biso   1.000  C
  C7       1.0000 0.00160  0.55240  0.31290  Biso   1.000  C
  H4       1.0000 0.92270  0.58690  0.35780  Biso   1.000  H
  C8       1.0000 0.03040  0.55460  0.71590  Biso   1.000  C
  Zn6      1.0000 0.01660  0.23150  0.49360  Biso   1.000  Zn
  Zn7      1.0000 0.07854  0.85094  0.91477  Biso   1.000  Zn
  Zn8      1.0000 0.92250  0.64761  0.08570  Biso   1.000  Zn
  Zn9      1.0000 0.61747  0.98554  0.82702  Biso   1.000  Zn
  Zn10     1.0000 0.62031  0.48503  0.82552  Biso   1.000  Zn
  Zn11     1.0000 0.97864  0.27584  0.50963  Biso   1.000  Zn
  P5       1.0000 0.77701  0.96896  0.01835  Biso   1.000  P
  P6       1.0000 0.77704  0.46902  0.01854  Biso   1.000  P
  P7       1.0000 0.84351  0.02119  0.61869  Biso   1.000  P
  P8       1.0000 0.84346  0.51429  0.61605  Biso   1.000  P
  O25      1.0000 0.89940  0.84810  0.01380  Biso   1.000  O
  O26      1.0000 0.17880  0.90550  0.99790  Biso   1.000  O
  O27      1.0000 0.66860  0.99540  0.95020  Biso   1.000  O
  O28      1.0000 0.41590  0.97300  0.82930  Biso   1.000  O
  O29      1.0000 0.48950  0.18540  0.80250  Biso   1.000  O
  O30      1.0000 0.72100  0.69050  0.17470  Biso   1.000  O
  O31      1.0000 0.82060  0.59420  0.00300  Biso   1.000  O
  O32      1.0000 0.10020  0.65090  0.98560  Biso   1.000  O
  O33      1.0000 0.67000  0.49440  0.94920  Biso   1.000  O
  O34      1.0000 0.41790  0.47150  0.83090  Biso   1.000  O
  O35      1.0000 0.28070  0.80840  0.82610  Biso   1.000  O
  O36      1.0000 0.49220  0.68310  0.80280  Biso   1.000  O
  O37      1.0000 0.72030  0.05550  0.69300  Biso   1.000  O
  O38      1.0000 0.83240  0.91060  0.57890  Biso   1.000  O
  O39      1.0000 0.86620  0.14160  0.52850  Biso   1.000  O
  O40      1.0000 0.98520  0.83990  0.78000  Biso   1.000  O
  O41      1.0000 0.03400  0.03690  0.81160  Biso   1.000  O
  O42      1.0000 0.06070  0.15670  0.64620  Biso   1.000  O
  O43      1.0000 0.71910  0.54990  0.69010  Biso   1.000  O
  O44      1.0000 0.83340  0.40430  0.57780  Biso   1.000  O
  O45      1.0000 0.13270  0.36420  0.47450  Biso   1.000  O
  O46      1.0000 0.98180  0.33970  0.78230  Biso   1.000  O
  O47      1.0000 0.96940  0.46050  0.18980  Biso   1.000  O
  O48      1.0000 0.94380  0.34330  0.35350  Biso   1.000  O
  C9       1.0000 0.69480  0.91970  0.15260  Biso   1.000  C
  H5       1.0000 0.76380  0.89710  0.20050  Biso   1.000  H
  C10      1.0000 0.36150  0.20100  0.82340  Biso   1.000  C
  C11      1.0000 0.69250  0.42220  0.15140  Biso   1.000  C
  H6       1.0000 0.76060  0.39970  0.19990  Biso   1.000  H
  C12      1.0000 0.36420  0.69900  0.82420  Biso   1.000  C
  C13      1.0000 0.99980  0.94870  0.68570  Biso   1.000  C
  H7       1.0000 0.07680  0.91560  0.63880  Biso   1.000  H
  C14      1.0000 0.03410  0.05400  0.71630  Biso   1.000  C
  C15      1.0000 0.99840  0.44760  0.68710  Biso   1.000  C
  H8       1.0000 0.07730  0.41310  0.64220  Biso   1.000  H
  C16      1.0000 0.96960  0.44540  0.28410  Biso   1.000  C
  Zn12     1.0000 0.98340  0.76850  0.50640  Biso   1.000  Zn
