data_image0
_cell_length_a       21.888
_cell_length_b       33.7268
_cell_length_c       14.938
_cell_angle_alpha    90
_cell_angle_beta     130.54
_cell_angle_gamma    90

_symmetry_space_group_name_H-M    "P 1"
_symmetry_int_tables_number       1

loop_
  _symmetry_equiv_pos_as_xyz
  'x, y, z'

loop_
  _atom_site_label
  _atom_site_occupancy
  _atom_site_fract_x
  _atom_site_fract_y
  _atom_site_fract_z
  _atom_site_thermal_displace_type
  _atom_site_B_iso_or_equiv
  _atom_site_type_symbol
  Sm1      1.0000 0.30628  0.25733  0.73242  Biso   1.000  Sm
  Sm2      1.0000 0.37561  0.24524  0.14562  Biso   1.000  Sm
  Sm3      1.0000 0.36288  0.24615  0.44087  Biso   1.000  Sm
  Ag1      1.0000 0.47204  0.00558  0.94921  Biso   1.000  Ag
  Ag2      1.0000 0.27221  0.00093  0.63614  Biso   1.000  Ag
  Ag3      1.0000 0.36394  0.49941  0.98635  Biso   1.000  Ag
  Ag4      1.0000 0.15600  0.51300  0.63033  Biso   1.000  Ag
  Ag5      1.0000 0.57992  0.48563  0.44205  Biso   1.000  Ag
  O1       1.0000 0.36400  0.20794  0.88230  Biso   1.000  O
  O2       1.0000 0.37250  0.19287  0.03460  Biso   1.000  O
  O3       1.0000 0.27300  0.20820  0.12330  Biso   1.000  O
  O4       1.0000 0.28550  0.19908  0.28250  Biso   1.000  O
  O5       1.0000 0.44170  0.19440  0.29430  Biso   1.000  O
  O6       1.0000 0.45640  0.20434  0.45310  Biso   1.000  O
  O7       1.0000 0.35500  0.18982  0.53270  Biso   1.000  O
  O8       1.0000 0.31290  0.20809  0.62880  Biso   1.000  O
  O9       1.0000 0.21890  0.30535  0.71740  Biso   1.000  O
  O10      1.0000 0.18950  0.31890  0.83050  Biso   1.000  O
  O11      1.0000 0.39130  0.29510  0.90590  Biso   1.000  O
  O12      1.0000 0.40250  0.29371  0.06320  Biso   1.000  O
  O13      1.0000 0.29530  0.29869  0.13330  Biso   1.000  O
  O14      1.0000 0.28750  0.28792  0.27210  Biso   1.000  O
  O15      1.0000 0.45840  0.28384  0.31850  Biso   1.000  O
  O16      1.0000 0.45560  0.29494  0.46450  Biso   1.000  O
  O17      1.0000 0.34690  0.29359  0.53760  Biso   1.000  O
  O18      1.0000 0.32710  0.31315  0.65710  Biso   1.000  O
  O19      1.0000 0.58000  0.68380  0.27650  Biso   1.000  O
  O20      1.0000 0.57850  0.69668  0.41990  Biso   1.000  O
  N1       1.0000 0.44880  0.06652  0.95820  Biso   1.000  N
  N2       1.0000 0.26390  0.06130  0.15050  Biso   1.000  N
  N3       1.0000 0.47720  0.05770  0.43710  Biso   1.000  N
  N4       1.0000 0.29320  0.06098  0.62160  Biso   1.000  N
  N5       1.0000 0.15400  0.45020  0.65400  Biso   1.000  N
  N6       1.0000 0.36640  0.43663  0.97180  Biso   1.000  N
  N7       1.0000 0.17430  0.42409  0.13100  Biso   1.000  N
  N8       1.0000 0.56640  0.42180  0.44940  Biso   1.000  N
  N9       1.0000 0.36150  0.44029  0.52480  Biso   1.000  N
  N10      1.0000 0.58010  0.54900  0.41690  Biso   1.000  N
  C1       1.0000 0.46370  0.09660  0.91630  Biso   1.000  C
  H1       1.0000 0.48880  0.09130  0.88590  Biso   1.000  H
  C2       1.0000 0.44300  0.13510  0.91660  Biso   1.000  C
  H2       1.0000 0.45380  0.15530  0.88630  Biso   1.000  H
  C3       1.0000 0.40660  0.14362  0.96170  Biso   1.000  C
  C4       1.0000 0.39330  0.11340  0.00790  Biso   1.000  C
  H3       1.0000 0.37110  0.11850  0.04270  Biso   1.000  H
  C5       1.0000 0.41330  0.07460  0.00250  Biso   1.000  C
  H4       1.0000 0.40160  0.05400  0.03050  Biso   1.000  H
  C6       1.0000 0.37930  0.18513  0.95980  Biso   1.000  C
  C7       1.0000 0.25770  0.08600  0.07360  Biso   1.000  C
  H5       1.0000 0.25430  0.07510  0.01320  Biso   1.000  H
  C8       1.0000 0.25610  0.12670  0.08150  Biso   1.000  C
  H6       1.0000 0.25050  0.14280  0.02610  Biso   1.000  H
  C9       1.0000 0.26300  0.14300  0.17160  Biso   1.000  C
  C10      1.0000 0.26650  0.11770  0.24890  Biso   1.000  C
  H7       1.0000 0.26870  0.12800  0.30870  Biso   1.000  H
  C11      1.0000 0.26670  0.07700  0.23500  Biso   1.000  C
  H8       1.0000 0.26890  0.06020  0.28640  Biso   1.000  H
  C12      1.0000 0.27380  0.18690  0.19510  Biso   1.000  C
  C13      1.0000 0.47000  0.07410  0.34980  Biso   1.000  C
  H9       1.0000 0.46610  0.05750  0.29660  Biso   1.000  H
  C14      1.0000 0.46790  0.11420  0.33430  Biso   1.000  C
  H10      1.0000 0.46450  0.12430  0.27320  Biso   1.000  H
  C15      1.0000 0.47100  0.13909  0.40870  Biso   1.000  C
  C16      1.0000 0.47880  0.12240  0.50140  Biso   1.000  C
  H11      1.0000 0.48160  0.13860  0.55450  Biso   1.000  H
  C17      1.0000 0.48230  0.08150  0.51330  Biso   1.000  C
  H12      1.0000 0.48850  0.07040  0.57560  Biso   1.000  H
  C18      1.0000 0.45810  0.18360  0.38600  Biso   1.000  C
  C19      1.0000 0.32640  0.07140  0.57510  Biso   1.000  C
  H13      1.0000 0.34130  0.05150  0.54950  Biso   1.000  H
  C20      1.0000 0.33930  0.10980  0.56330  Biso   1.000  C
  H14      1.0000 0.36480  0.11550  0.53370  Biso   1.000  H
  C21      1.0000 0.31470  0.14050  0.59520  Biso   1.000  C
  C22      1.0000 0.27880  0.12987  0.64240  Biso   1.000  C
  H15      1.0000 0.26210  0.14930  0.66660  Biso   1.000  H
  C23      1.0000 0.26870  0.09050  0.65230  Biso   1.000  C
  H16      1.0000 0.24360  0.08390  0.68190  Biso   1.000  H
  C24      1.0000 0.32800  0.18286  0.58340  Biso   1.000  C
  C25      1.0000 0.16890  0.42370  0.60360  Biso   1.000  C
  H17      1.0000 0.17130  0.43250  0.54700  Biso   1.000  H
  C26      1.0000 0.18070  0.38390  0.63220  Biso   1.000  C
  H18      1.0000 0.19110  0.36640  0.59550  Biso   1.000  H
  C27      1.0000 0.17700  0.37040  0.71490  Biso   1.000  C
  C28      1.0000 0.15820  0.39780  0.76210  Biso   1.000  C
  H19      1.0000 0.15240  0.38990  0.81600  Biso   1.000  H
  C29      1.0000 0.14810  0.43620  0.72920  Biso   1.000  C
  H20      1.0000 0.13590  0.45410  0.76300  Biso   1.000  H
  C30      1.0000 0.19500  0.32760  0.75680  Biso   1.000  C
  C31      1.0000 0.38150  0.41890  0.90830  Biso   1.000  C
  H21      1.0000 0.38670  0.43430  0.86200  Biso   1.000  H
  C32      1.0000 0.38960  0.37850  0.90920  Biso   1.000  C
  H22      1.0000 0.39900  0.36690  0.86280  Biso   1.000  H
  C33      1.0000 0.38370  0.35566  0.97830  Biso   1.000  C
  C34      1.0000 0.36690  0.37360  0.04420  Biso   1.000  C
  H23      1.0000 0.36290  0.35880  0.09270  Biso   1.000  H
  C35      1.0000 0.35660  0.41390  0.03480  Biso   1.000  C
  H24      1.0000 0.34190  0.42600  0.07440  Biso   1.000  H
  C36      1.0000 0.39320  0.31120  0.98420  Biso   1.000  C
  C37      1.0000 0.18900  0.40910  0.06420  Biso   1.000  C
  H25      1.0000 0.17810  0.42480  0.00410  Biso   1.000  H
  C38      1.0000 0.21920  0.37210  0.07930  Biso   1.000  C
  H26      1.0000 0.22980  0.36340  0.03140  Biso   1.000  H
  C39      1.0000 0.23410  0.34741  0.16510  Biso   1.000  C
  C40      1.0000 0.21450  0.36150  0.22840  Biso   1.000  C
  H27      1.0000 0.22070  0.34530  0.28430  Biso   1.000  H
  C41      1.0000 0.18500  0.40000  0.21080  Biso   1.000  C
  H28      1.0000 0.17250  0.40910  0.25600  Biso   1.000  H
  C42      1.0000 0.27520  0.30780  0.19240  Biso   1.000  C
  C43      1.0000 0.54210  0.39920  0.35800  Biso   1.000  C
  H29      1.0000 0.54360  0.40990  0.30200  Biso   1.000  H
  C44      1.0000 0.51550  0.36130  0.34250  Biso   1.000  C
  H30      1.0000 0.50010  0.34650  0.27810  Biso   1.000  H
  C45      1.0000 0.51180  0.34510  0.42370  Biso   1.000  C
  C46      1.0000 0.53970  0.36710  0.52100  Biso   1.000  C
  H31      1.0000 0.54120  0.35670  0.58010  Biso   1.000  H
  C47      1.0000 0.56570  0.40570  0.52820  Biso   1.000  C
  H32      1.0000 0.58380  0.42090  0.59340  Biso   1.000  H
  C48      1.0000 0.47130  0.30430  0.40010  Biso   1.000  C
  C49      1.0000 0.38090  0.41090  0.48880  Biso   1.000  C
  H33      1.0000 0.39640  0.41690  0.44520  Biso   1.000  H
  C50      1.0000 0.37910  0.37160  0.51360  Biso   1.000  C
  H34      1.0000 0.39540  0.35170  0.48990  Biso   1.000  H
  C51      1.0000 0.35370  0.36237  0.57210  Biso   1.000  C
  C52      1.0000 0.33570  0.39280  0.61440  Biso   1.000  C
  H35      1.0000 0.32170  0.38740  0.66010  Biso   1.000  H
  C53      1.0000 0.33930  0.43100  0.58660  Biso   1.000  C
  H36      1.0000 0.32550  0.45150  0.61230  Biso   1.000  H
  C54      1.0000 0.34240  0.31912  0.59210  Biso   1.000  C
  C55      1.0000 0.58960  0.56180  0.34440  Biso   1.000  C
  H37      1.0000 0.59660  0.54320  0.30590  Biso   1.000  H
  C56      1.0000 0.59000  0.60350  0.32000  Biso   1.000  C
  H38      1.0000 0.59830  0.61150  0.26910  Biso   1.000  H
  C57      1.0000 0.57790  0.62970  0.37330  Biso   1.000  C
  C58      1.0000 0.56870  0.61610  0.45400  Biso   1.000  C
  H39      1.0000 0.56220  0.63380  0.49490  Biso   1.000  H
  C59      1.0000 0.56970  0.57610  0.46960  Biso   1.000  C
  H40      1.0000 0.56260  0.56730  0.52120  Biso   1.000  H
  C60      1.0000 0.57970  0.67360  0.35310  Biso   1.000  C
  Sm4      1.0000 0.80628  0.75733  0.73242  Biso   1.000  Sm
  Sm5      1.0000 0.87561  0.74524  0.14562  Biso   1.000  Sm
  Sm6      1.0000 0.86288  0.74615  0.44087  Biso   1.000  Sm
  Ag6      1.0000 0.97204  0.50558  0.94921  Biso   1.000  Ag
  Ag7      1.0000 0.77221  0.50093  0.63614  Biso   1.000  Ag
  Ag8      1.0000 0.86394  0.99941  0.98635  Biso   1.000  Ag
  Ag9      1.0000 0.65600  0.01300  0.63033  Biso   1.000  Ag
  Ag10     1.0000 0.07992  0.98563  0.44205  Biso   1.000  Ag
  O21      1.0000 0.86400  0.70794  0.88230  Biso   1.000  O
  O22      1.0000 0.87250  0.69287  0.03460  Biso   1.000  O
  O23      1.0000 0.77300  0.70820  0.12330  Biso   1.000  O
  O24      1.0000 0.78550  0.69908  0.28250  Biso   1.000  O
  O25      1.0000 0.94170  0.69440  0.29430  Biso   1.000  O
  O26      1.0000 0.95640  0.70434  0.45310  Biso   1.000  O
  O27      1.0000 0.85500  0.68982  0.53270  Biso   1.000  O
  O28      1.0000 0.81290  0.70809  0.62880  Biso   1.000  O
  O29      1.0000 0.71890  0.80535  0.71740  Biso   1.000  O
  O30      1.0000 0.68950  0.81890  0.83050  Biso   1.000  O
  O31      1.0000 0.89130  0.79510  0.90590  Biso   1.000  O
  O32      1.0000 0.90250  0.79371  0.06320  Biso   1.000  O
  O33      1.0000 0.79530  0.79869  0.13330  Biso   1.000  O
  O34      1.0000 0.78750  0.78792  0.27210  Biso   1.000  O
  O35      1.0000 0.95840  0.78384  0.31850  Biso   1.000  O
  O36      1.0000 0.95560  0.79494  0.46450  Biso   1.000  O
  O37      1.0000 0.84690  0.79359  0.53760  Biso   1.000  O
  O38      1.0000 0.82710  0.81315  0.65710  Biso   1.000  O
  O39      1.0000 0.08000  0.18380  0.27650  Biso   1.000  O
  O40      1.0000 0.07850  0.19668  0.41990  Biso   1.000  O
  N11      1.0000 0.94880  0.56652  0.95820  Biso   1.000  N
  N12      1.0000 0.76390  0.56130  0.15050  Biso   1.000  N
  N13      1.0000 0.97720  0.55770  0.43710  Biso   1.000  N
  N14      1.0000 0.79320  0.56098  0.62160  Biso   1.000  N
  N15      1.0000 0.65400  0.95020  0.65400  Biso   1.000  N
  N16      1.0000 0.86640  0.93663  0.97180  Biso   1.000  N
  N17      1.0000 0.67430  0.92409  0.13100  Biso   1.000  N
  N18      1.0000 0.06640  0.92180  0.44940  Biso   1.000  N
  N19      1.0000 0.86150  0.94029  0.52480  Biso   1.000  N
  N20      1.0000 0.08010  0.04900  0.41690  Biso   1.000  N
  C61      1.0000 0.96370  0.59660  0.91630  Biso   1.000  C
  H41      1.0000 0.98880  0.59130  0.88590  Biso   1.000  H
  C62      1.0000 0.94300  0.63510  0.91660  Biso   1.000  C
  H42      1.0000 0.95380  0.65530  0.88630  Biso   1.000  H
  C63      1.0000 0.90660  0.64362  0.96170  Biso   1.000  C
  C64      1.0000 0.89330  0.61340  0.00790  Biso   1.000  C
  H43      1.0000 0.87110  0.61850  0.04270  Biso   1.000  H
  C65      1.0000 0.91330  0.57460  0.00250  Biso   1.000  C
  H44      1.0000 0.90160  0.55400  0.03050  Biso   1.000  H
  C66      1.0000 0.87930  0.68513  0.95980  Biso   1.000  C
  C67      1.0000 0.75770  0.58600  0.07360  Biso   1.000  C
  H45      1.0000 0.75430  0.57510  0.01320  Biso   1.000  H
  C68      1.0000 0.75610  0.62670  0.08150  Biso   1.000  C
  H46      1.0000 0.75050  0.64280  0.02610  Biso   1.000  H
  C69      1.0000 0.76300  0.64300  0.17160  Biso   1.000  C
  C70      1.0000 0.76650  0.61770  0.24890  Biso   1.000  C
  H47      1.0000 0.76870  0.62800  0.30870  Biso   1.000  H
  C71      1.0000 0.76670  0.57700  0.23500  Biso   1.000  C
  H48      1.0000 0.76890  0.56020  0.28640  Biso   1.000  H
  C72      1.0000 0.77380  0.68690  0.19510  Biso   1.000  C
  C73      1.0000 0.97000  0.57410  0.34980  Biso   1.000  C
  H49      1.0000 0.96610  0.55750  0.29660  Biso   1.000  H
  C74      1.0000 0.96790  0.61420  0.33430  Biso   1.000  C
  H50      1.0000 0.96450  0.62430  0.27320  Biso   1.000  H
  C75      1.0000 0.97100  0.63909  0.40870  Biso   1.000  C
  C76      1.0000 0.97880  0.62240  0.50140  Biso   1.000  C
  H51      1.0000 0.98160  0.63860  0.55450  Biso   1.000  H
  C77      1.0000 0.98230  0.58150  0.51330  Biso   1.000  C
  H52      1.0000 0.98850  0.57040  0.57560  Biso   1.000  H
  C78      1.0000 0.95810  0.68360  0.38600  Biso   1.000  C
  C79      1.0000 0.82640  0.57140  0.57510  Biso   1.000  C
  H53      1.0000 0.84130  0.55150  0.54950  Biso   1.000  H
  C80      1.0000 0.83930  0.60980  0.56330  Biso   1.000  C
  H54      1.0000 0.86480  0.61550  0.53370  Biso   1.000  H
  C81      1.0000 0.81470  0.64050  0.59520  Biso   1.000  C
  C82      1.0000 0.77880  0.62987  0.64240  Biso   1.000  C
  H55      1.0000 0.76210  0.64930  0.66660  Biso   1.000  H
  C83      1.0000 0.76870  0.59050  0.65230  Biso   1.000  C
  H56      1.0000 0.74360  0.58390  0.68190  Biso   1.000  H
  C84      1.0000 0.82800  0.68286  0.58340  Biso   1.000  C
  C85      1.0000 0.66890  0.92370  0.60360  Biso   1.000  C
  H57      1.0000 0.67130  0.93250  0.54700  Biso   1.000  H
  C86      1.0000 0.68070  0.88390  0.63220  Biso   1.000  C
  H58      1.0000 0.69110  0.86640  0.59550  Biso   1.000  H
  C87      1.0000 0.67700  0.87040  0.71490  Biso   1.000  C
  C88      1.0000 0.65820  0.89780  0.76210  Biso   1.000  C
  H59      1.0000 0.65240  0.88990  0.81600  Biso   1.000  H
  C89      1.0000 0.64810  0.93620  0.72920  Biso   1.000  C
  H60      1.0000 0.63590  0.95410  0.76300  Biso   1.000  H
  C90      1.0000 0.69500  0.82760  0.75680  Biso   1.000  C
  C91      1.0000 0.88150  0.91890  0.90830  Biso   1.000  C
  H61      1.0000 0.88670  0.93430  0.86200  Biso   1.000  H
  C92      1.0000 0.88960  0.87850  0.90920  Biso   1.000  C
  H62      1.0000 0.89900  0.86690  0.86280  Biso   1.000  H
  C93      1.0000 0.88370  0.85566  0.97830  Biso   1.000  C
  C94      1.0000 0.86690  0.87360  0.04420  Biso   1.000  C
  H63      1.0000 0.86290  0.85880  0.09270  Biso   1.000  H
  C95      1.0000 0.85660  0.91390  0.03480  Biso   1.000  C
  H64      1.0000 0.84190  0.92600  0.07440  Biso   1.000  H
  C96      1.0000 0.89320  0.81120  0.98420  Biso   1.000  C
  C97      1.0000 0.68900  0.90910  0.06420  Biso   1.000  C
  H65      1.0000 0.67810  0.92480  0.00410  Biso   1.000  H
  C98      1.0000 0.71920  0.87210  0.07930  Biso   1.000  C
  H66      1.0000 0.72980  0.86340  0.03140  Biso   1.000  H
  C99      1.0000 0.73410  0.84741  0.16510  Biso   1.000  C
  C100     1.0000 0.71450  0.86150  0.22840  Biso   1.000  C
  H67      1.0000 0.72070  0.84530  0.28430  Biso   1.000  H
  C101     1.0000 0.68500  0.90000  0.21080  Biso   1.000  C
  H68      1.0000 0.67250  0.90910  0.25600  Biso   1.000  H
  C102     1.0000 0.77520  0.80780  0.19240  Biso   1.000  C
  C103     1.0000 0.04210  0.89920  0.35800  Biso   1.000  C
  H69      1.0000 0.04360  0.90990  0.30200  Biso   1.000  H
  C104     1.0000 0.01550  0.86130  0.34250  Biso   1.000  C
  H70      1.0000 0.00010  0.84650  0.27810  Biso   1.000  H
  C105     1.0000 0.01180  0.84510  0.42370  Biso   1.000  C
  C106     1.0000 0.03970  0.86710  0.52100  Biso   1.000  C
  H71      1.0000 0.04120  0.85670  0.58010  Biso   1.000  H
  C107     1.0000 0.06570  0.90570  0.52820  Biso   1.000  C
  H72      1.0000 0.08380  0.92090  0.59340  Biso   1.000  H
  C108     1.0000 0.97130  0.80430  0.40010  Biso   1.000  C
  C109     1.0000 0.88090  0.91090  0.48880  Biso   1.000  C
  H73      1.0000 0.89640  0.91690  0.44520  Biso   1.000  H
  C110     1.0000 0.87910  0.87160  0.51360  Biso   1.000  C
  H74      1.0000 0.89540  0.85170  0.48990  Biso   1.000  H
  C111     1.0000 0.85370  0.86237  0.57210  Biso   1.000  C
  C112     1.0000 0.83570  0.89280  0.61440  Biso   1.000  C
  H75      1.0000 0.82170  0.88740  0.66010  Biso   1.000  H
  C113     1.0000 0.83930  0.93100  0.58660  Biso   1.000  C
  H76      1.0000 0.82550  0.95150  0.61230  Biso   1.000  H
  C114     1.0000 0.84240  0.81912  0.59210  Biso   1.000  C
  C115     1.0000 0.08960  0.06180  0.34440  Biso   1.000  C
  H77      1.0000 0.09660  0.04320  0.30590  Biso   1.000  H
  C116     1.0000 0.09000  0.10350  0.32000  Biso   1.000  C
  H78      1.0000 0.09830  0.11150  0.26910  Biso   1.000  H
  C117     1.0000 0.07790  0.12970  0.37330  Biso   1.000  C
  C118     1.0000 0.06870  0.11610  0.45400  Biso   1.000  C
  H79      1.0000 0.06220  0.13380  0.49490  Biso   1.000  H
  C119     1.0000 0.06970  0.07610  0.46960  Biso   1.000  C
  H80      1.0000 0.06260  0.06730  0.52120  Biso   1.000  H
  C120     1.0000 0.07970  0.17360  0.35310  Biso   1.000  C
  Sm7      1.0000 0.30628  0.74267  0.23242  Biso   1.000  Sm
  Sm8      1.0000 0.37561  0.75476  0.64562  Biso   1.000  Sm
  Sm9      1.0000 0.36288  0.75385  0.94087  Biso   1.000  Sm
  Ag11     1.0000 0.47204  0.99442  0.44921  Biso   1.000  Ag
  Ag12     1.0000 0.27221  0.99907  0.13614  Biso   1.000  Ag
  Ag13     1.0000 0.36394  0.50059  0.48635  Biso   1.000  Ag
  Ag14     1.0000 0.15600  0.48700  0.13033  Biso   1.000  Ag
  Ag15     1.0000 0.57992  0.51437  0.94205  Biso   1.000  Ag
  O41      1.0000 0.36400  0.79206  0.38230  Biso   1.000  O
  O42      1.0000 0.37250  0.80713  0.53460  Biso   1.000  O
  O43      1.0000 0.27300  0.79180  0.62330  Biso   1.000  O
  O44      1.0000 0.28550  0.80092  0.78250  Biso   1.000  O
  O45      1.0000 0.44170  0.80560  0.79430  Biso   1.000  O
  O46      1.0000 0.45640  0.79566  0.95310  Biso   1.000  O
  O47      1.0000 0.35500  0.81018  0.03270  Biso   1.000  O
  O48      1.0000 0.31290  0.79191  0.12880  Biso   1.000  O
  O49      1.0000 0.21890  0.69465  0.21740  Biso   1.000  O
  O50      1.0000 0.18950  0.68110  0.33050  Biso   1.000  O
  O51      1.0000 0.39130  0.70490  0.40590  Biso   1.000  O
  O52      1.0000 0.40250  0.70629  0.56320  Biso   1.000  O
  O53      1.0000 0.29530  0.70131  0.63330  Biso   1.000  O
  O54      1.0000 0.28750  0.71208  0.77210  Biso   1.000  O
  O55      1.0000 0.45840  0.71616  0.81850  Biso   1.000  O
  O56      1.0000 0.45560  0.70506  0.96450  Biso   1.000  O
  O57      1.0000 0.34690  0.70641  0.03760  Biso   1.000  O
  O58      1.0000 0.32710  0.68685  0.15710  Biso   1.000  O
  O59      1.0000 0.58000  0.31620  0.77650  Biso   1.000  O
  O60      1.0000 0.57850  0.30332  0.91990  Biso   1.000  O
  N21      1.0000 0.44880  0.93348  0.45820  Biso   1.000  N
  N22      1.0000 0.26390  0.93870  0.65050  Biso   1.000  N
  N23      1.0000 0.47720  0.94230  0.93710  Biso   1.000  N
  N24      1.0000 0.29320  0.93902  0.12160  Biso   1.000  N
  N25      1.0000 0.15400  0.54980  0.15400  Biso   1.000  N
  N26      1.0000 0.36640  0.56337  0.47180  Biso   1.000  N
  N27      1.0000 0.17430  0.57591  0.63100  Biso   1.000  N
  N28      1.0000 0.56640  0.57820  0.94940  Biso   1.000  N
  N29      1.0000 0.36150  0.55971  0.02480  Biso   1.000  N
  N30      1.0000 0.58010  0.45100  0.91690  Biso   1.000  N
  C121     1.0000 0.46370  0.90340  0.41630  Biso   1.000  C
  H81      1.0000 0.48880  0.90870  0.38590  Biso   1.000  H
  C122     1.0000 0.44300  0.86490  0.41660  Biso   1.000  C
  H82      1.0000 0.45380  0.84470  0.38630  Biso   1.000  H
  C123     1.0000 0.40660  0.85638  0.46170  Biso   1.000  C
  C124     1.0000 0.39330  0.88660  0.50790  Biso   1.000  C
  H83      1.0000 0.37110  0.88150  0.54270  Biso   1.000  H
  C125     1.0000 0.41330  0.92540  0.50250  Biso   1.000  C
  H84      1.0000 0.40160  0.94600  0.53050  Biso   1.000  H
  C126     1.0000 0.37930  0.81487  0.45980  Biso   1.000  C
  C127     1.0000 0.25770  0.91400  0.57360  Biso   1.000  C
  H85      1.0000 0.25430  0.92490  0.51320  Biso   1.000  H
  C128     1.0000 0.25610  0.87330  0.58150  Biso   1.000  C
  H86      1.0000 0.25050  0.85720  0.52610  Biso   1.000  H
  C129     1.0000 0.26300  0.85700  0.67160  Biso   1.000  C
  C130     1.0000 0.26650  0.88230  0.74890  Biso   1.000  C
  H87      1.0000 0.26870  0.87200  0.80870  Biso   1.000  H
  C131     1.0000 0.26670  0.92300  0.73500  Biso   1.000  C
  H88      1.0000 0.26890  0.93980  0.78640  Biso   1.000  H
  C132     1.0000 0.27380  0.81310  0.69510  Biso   1.000  C
  C133     1.0000 0.47000  0.92590  0.84980  Biso   1.000  C
  H89      1.0000 0.46610  0.94250  0.79660  Biso   1.000  H
  C134     1.0000 0.46790  0.88580  0.83430  Biso   1.000  C
  H90      1.0000 0.46450  0.87570  0.77320  Biso   1.000  H
  C135     1.0000 0.47100  0.86091  0.90870  Biso   1.000  C
  C136     1.0000 0.47880  0.87760  0.00140  Biso   1.000  C
  H91      1.0000 0.48160  0.86140  0.05450  Biso   1.000  H
  C137     1.0000 0.48230  0.91850  0.01330  Biso   1.000  C
  H92      1.0000 0.48850  0.92960  0.07560  Biso   1.000  H
  C138     1.0000 0.45810  0.81640  0.88600  Biso   1.000  C
  C139     1.0000 0.32640  0.92860  0.07510  Biso   1.000  C
  H93      1.0000 0.34130  0.94850  0.04950  Biso   1.000  H
  C140     1.0000 0.33930  0.89020  0.06330  Biso   1.000  C
  H94      1.0000 0.36480  0.88450  0.03370  Biso   1.000  H
  C141     1.0000 0.31470  0.85950  0.09520  Biso   1.000  C
  C142     1.0000 0.27880  0.87013  0.14240  Biso   1.000  C
  H95      1.0000 0.26210  0.85070  0.16660  Biso   1.000  H
  C143     1.0000 0.26870  0.90950  0.15230  Biso   1.000  C
  H96      1.0000 0.24360  0.91610  0.18190  Biso   1.000  H
  C144     1.0000 0.32800  0.81714  0.08340  Biso   1.000  C
  C145     1.0000 0.16890  0.57630  0.10360  Biso   1.000  C
  H97      1.0000 0.17130  0.56750  0.04700  Biso   1.000  H
  C146     1.0000 0.18070  0.61610  0.13220  Biso   1.000  C
  H98      1.0000 0.19110  0.63360  0.09550  Biso   1.000  H
  C147     1.0000 0.17700  0.62960  0.21490  Biso   1.000  C
  C148     1.0000 0.15820  0.60220  0.26210  Biso   1.000  C
  H99      1.0000 0.15240  0.61010  0.31600  Biso   1.000  H
  C149     1.0000 0.14810  0.56380  0.22920  Biso   1.000  C
  H100     1.0000 0.13590  0.54590  0.26300  Biso   1.000  H
  C150     1.0000 0.19500  0.67240  0.25680  Biso   1.000  C
  C151     1.0000 0.38150  0.58110  0.40830  Biso   1.000  C
  H101     1.0000 0.38670  0.56570  0.36200  Biso   1.000  H
  C152     1.0000 0.38960  0.62150  0.40920  Biso   1.000  C
  H102     1.0000 0.39900  0.63310  0.36280  Biso   1.000  H
  C153     1.0000 0.38370  0.64434  0.47830  Biso   1.000  C
  C154     1.0000 0.36690  0.62640  0.54420  Biso   1.000  C
  H103     1.0000 0.36290  0.64120  0.59270  Biso   1.000  H
  C155     1.0000 0.35660  0.58610  0.53480  Biso   1.000  C
  H104     1.0000 0.34190  0.57400  0.57440  Biso   1.000  H
  C156     1.0000 0.39320  0.68880  0.48420  Biso   1.000  C
  C157     1.0000 0.18900  0.59090  0.56420  Biso   1.000  C
  H105     1.0000 0.17810  0.57520  0.50410  Biso   1.000  H
  C158     1.0000 0.21920  0.62790  0.57930  Biso   1.000  C
  H106     1.0000 0.22980  0.63660  0.53140  Biso   1.000  H
  C159     1.0000 0.23410  0.65259  0.66510  Biso   1.000  C
  C160     1.0000 0.21450  0.63850  0.72840  Biso   1.000  C
  H107     1.0000 0.22070  0.65470  0.78430  Biso   1.000  H
  C161     1.0000 0.18500  0.60000  0.71080  Biso   1.000  C
  H108     1.0000 0.17250  0.59090  0.75600  Biso   1.000  H
  C162     1.0000 0.27520  0.69220  0.69240  Biso   1.000  C
  C163     1.0000 0.54210  0.60080  0.85800  Biso   1.000  C
  H109     1.0000 0.54360  0.59010  0.80200  Biso   1.000  H
  C164     1.0000 0.51550  0.63870  0.84250  Biso   1.000  C
  H110     1.0000 0.50010  0.65350  0.77810  Biso   1.000  H
  C165     1.0000 0.51180  0.65490  0.92370  Biso   1.000  C
  C166     1.0000 0.53970  0.63290  0.02100  Biso   1.000  C
  H111     1.0000 0.54120  0.64330  0.08010  Biso   1.000  H
  C167     1.0000 0.56570  0.59430  0.02820  Biso   1.000  C
  H112     1.0000 0.58380  0.57910  0.09340  Biso   1.000  H
  C168     1.0000 0.47130  0.69570  0.90010  Biso   1.000  C
  C169     1.0000 0.38090  0.58910  0.98880  Biso   1.000  C
  H113     1.0000 0.39640  0.58310  0.94520  Biso   1.000  H
  C170     1.0000 0.37910  0.62840  0.01360  Biso   1.000  C
  H114     1.0000 0.39540  0.64830  0.98990  Biso   1.000  H
  C171     1.0000 0.35370  0.63763  0.07210  Biso   1.000  C
  C172     1.0000 0.33570  0.60720  0.11440  Biso   1.000  C
  H115     1.0000 0.32170  0.61260  0.16010  Biso   1.000  H
  C173     1.0000 0.33930  0.56900  0.08660  Biso   1.000  C
  H116     1.0000 0.32550  0.54850  0.11230  Biso   1.000  H
  C174     1.0000 0.34240  0.68088  0.09210  Biso   1.000  C
  C175     1.0000 0.58960  0.43820  0.84440  Biso   1.000  C
  H117     1.0000 0.59660  0.45680  0.80590  Biso   1.000  H
  C176     1.0000 0.59000  0.39650  0.82000  Biso   1.000  C
  H118     1.0000 0.59830  0.38850  0.76910  Biso   1.000  H
  C177     1.0000 0.57790  0.37030  0.87330  Biso   1.000  C
  C178     1.0000 0.56870  0.38390  0.95400  Biso   1.000  C
  H119     1.0000 0.56220  0.36620  0.99490  Biso   1.000  H
  C179     1.0000 0.56970  0.42390  0.96960  Biso   1.000  C
  H120     1.0000 0.56260  0.43270  0.02120  Biso   1.000  H
  C180     1.0000 0.57970  0.32640  0.85310  Biso   1.000  C
  Sm10     1.0000 0.80628  0.24267  0.23242  Biso   1.000  Sm
  Sm11     1.0000 0.87561  0.25476  0.64562  Biso   1.000  Sm
  Sm12     1.0000 0.86288  0.25385  0.94087  Biso   1.000  Sm
  Ag16     1.0000 0.97204  0.49442  0.44921  Biso   1.000  Ag
  Ag17     1.0000 0.77221  0.49907  0.13614  Biso   1.000  Ag
  Ag18     1.0000 0.86394  0.00059  0.48635  Biso   1.000  Ag
  Ag19     1.0000 0.65600  0.98700  0.13033  Biso   1.000  Ag
  Ag20     1.0000 0.07992  0.01437  0.94205  Biso   1.000  Ag
  O61      1.0000 0.86400  0.29206  0.38230  Biso   1.000  O
  O62      1.0000 0.87250  0.30713  0.53460  Biso   1.000  O
  O63      1.0000 0.77300  0.29180  0.62330  Biso   1.000  O
  O64      1.0000 0.78550  0.30092  0.78250  Biso   1.000  O
  O65      1.0000 0.94170  0.30560  0.79430  Biso   1.000  O
  O66      1.0000 0.95640  0.29566  0.95310  Biso   1.000  O
  O67      1.0000 0.85500  0.31018  0.03270  Biso   1.000  O
  O68      1.0000 0.81290  0.29191  0.12880  Biso   1.000  O
  O69      1.0000 0.71890  0.19465  0.21740  Biso   1.000  O
  O70      1.0000 0.68950  0.18110  0.33050  Biso   1.000  O
  O71      1.0000 0.89130  0.20490  0.40590  Biso   1.000  O
  O72      1.0000 0.90250  0.20629  0.56320  Biso   1.000  O
  O73      1.0000 0.79530  0.20131  0.63330  Biso   1.000  O
  O74      1.0000 0.78750  0.21208  0.77210  Biso   1.000  O
  O75      1.0000 0.95840  0.21616  0.81850  Biso   1.000  O
  O76      1.0000 0.95560  0.20506  0.96450  Biso   1.000  O
  O77      1.0000 0.84690  0.20641  0.03760  Biso   1.000  O
  O78      1.0000 0.82710  0.18685  0.15710  Biso   1.000  O
  O79      1.0000 0.08000  0.81620  0.77650  Biso   1.000  O
  O80      1.0000 0.07850  0.80332  0.91990  Biso   1.000  O
  N31      1.0000 0.94880  0.43348  0.45820  Biso   1.000  N
  N32      1.0000 0.76390  0.43870  0.65050  Biso   1.000  N
  N33      1.0000 0.97720  0.44230  0.93710  Biso   1.000  N
  N34      1.0000 0.79320  0.43902  0.12160  Biso   1.000  N
  N35      1.0000 0.65400  0.04980  0.15400  Biso   1.000  N
  N36      1.0000 0.86640  0.06337  0.47180  Biso   1.000  N
  N37      1.0000 0.67430  0.07591  0.63100  Biso   1.000  N
  N38      1.0000 0.06640  0.07820  0.94940  Biso   1.000  N
  N39      1.0000 0.86150  0.05971  0.02480  Biso   1.000  N
  N40      1.0000 0.08010  0.95100  0.91690  Biso   1.000  N
  C181     1.0000 0.96370  0.40340  0.41630  Biso   1.000  C
  H121     1.0000 0.98880  0.40870  0.38590  Biso   1.000  H
  C182     1.0000 0.94300  0.36490  0.41660  Biso   1.000  C
  H122     1.0000 0.95380  0.34470  0.38630  Biso   1.000  H
  C183     1.0000 0.90660  0.35638  0.46170  Biso   1.000  C
  C184     1.0000 0.89330  0.38660  0.50790  Biso   1.000  C
  H123     1.0000 0.87110  0.38150  0.54270  Biso   1.000  H
  C185     1.0000 0.91330  0.42540  0.50250  Biso   1.000  C
  H124     1.0000 0.90160  0.44600  0.53050  Biso   1.000  H
  C186     1.0000 0.87930  0.31487  0.45980  Biso   1.000  C
  C187     1.0000 0.75770  0.41400  0.57360  Biso   1.000  C
  H125     1.0000 0.75430  0.42490  0.51320  Biso   1.000  H
  C188     1.0000 0.75610  0.37330  0.58150  Biso   1.000  C
  H126     1.0000 0.75050  0.35720  0.52610  Biso   1.000  H
  C189     1.0000 0.76300  0.35700  0.67160  Biso   1.000  C
  C190     1.0000 0.76650  0.38230  0.74890  Biso   1.000  C
  H127     1.0000 0.76870  0.37200  0.80870  Biso   1.000  H
  C191     1.0000 0.76670  0.42300  0.73500  Biso   1.000  C
  H128     1.0000 0.76890  0.43980  0.78640  Biso   1.000  H
  C192     1.0000 0.77380  0.31310  0.69510  Biso   1.000  C
  C193     1.0000 0.97000  0.42590  0.84980  Biso   1.000  C
  H129     1.0000 0.96610  0.44250  0.79660  Biso   1.000  H
  C194     1.0000 0.96790  0.38580  0.83430  Biso   1.000  C
  H130     1.0000 0.96450  0.37570  0.77320  Biso   1.000  H
  C195     1.0000 0.97100  0.36091  0.90870  Biso   1.000  C
  C196     1.0000 0.97880  0.37760  0.00140  Biso   1.000  C
  H131     1.0000 0.98160  0.36140  0.05450  Biso   1.000  H
  C197     1.0000 0.98230  0.41850  0.01330  Biso   1.000  C
  H132     1.0000 0.98850  0.42960  0.07560  Biso   1.000  H
  C198     1.0000 0.95810  0.31640  0.88600  Biso   1.000  C
  C199     1.0000 0.82640  0.42860  0.07510  Biso   1.000  C
  H133     1.0000 0.84130  0.44850  0.04950  Biso   1.000  H
  C200     1.0000 0.83930  0.39020  0.06330  Biso   1.000  C
  H134     1.0000 0.86480  0.38450  0.03370  Biso   1.000  H
  C201     1.0000 0.81470  0.35950  0.09520  Biso   1.000  C
  C202     1.0000 0.77880  0.37013  0.14240  Biso   1.000  C
  H135     1.0000 0.76210  0.35070  0.16660  Biso   1.000  H
  C203     1.0000 0.76870  0.40950  0.15230  Biso   1.000  C
  H136     1.0000 0.74360  0.41610  0.18190  Biso   1.000  H
  C204     1.0000 0.82800  0.31714  0.08340  Biso   1.000  C
  C205     1.0000 0.66890  0.07630  0.10360  Biso   1.000  C
  H137     1.0000 0.67130  0.06750  0.04700  Biso   1.000  H
  C206     1.0000 0.68070  0.11610  0.13220  Biso   1.000  C
  H138     1.0000 0.69110  0.13360  0.09550  Biso   1.000  H
  C207     1.0000 0.67700  0.12960  0.21490  Biso   1.000  C
  C208     1.0000 0.65820  0.10220  0.26210  Biso   1.000  C
  H139     1.0000 0.65240  0.11010  0.31600  Biso   1.000  H
  C209     1.0000 0.64810  0.06380  0.22920  Biso   1.000  C
  H140     1.0000 0.63590  0.04590  0.26300  Biso   1.000  H
  C210     1.0000 0.69500  0.17240  0.25680  Biso   1.000  C
  C211     1.0000 0.88150  0.08110  0.40830  Biso   1.000  C
  H141     1.0000 0.88670  0.06570  0.36200  Biso   1.000  H
  C212     1.0000 0.88960  0.12150  0.40920  Biso   1.000  C
  H142     1.0000 0.89900  0.13310  0.36280  Biso   1.000  H
  C213     1.0000 0.88370  0.14434  0.47830  Biso   1.000  C
  C214     1.0000 0.86690  0.12640  0.54420  Biso   1.000  C
  H143     1.0000 0.86290  0.14120  0.59270  Biso   1.000  H
  C215     1.0000 0.85660  0.08610  0.53480  Biso   1.000  C
  H144     1.0000 0.84190  0.07400  0.57440  Biso   1.000  H
  C216     1.0000 0.89320  0.18880  0.48420  Biso   1.000  C
  C217     1.0000 0.68900  0.09090  0.56420  Biso   1.000  C
  H145     1.0000 0.67810  0.07520  0.50410  Biso   1.000  H
  C218     1.0000 0.71920  0.12790  0.57930  Biso   1.000  C
  H146     1.0000 0.72980  0.13660  0.53140  Biso   1.000  H
  C219     1.0000 0.73410  0.15259  0.66510  Biso   1.000  C
  C220     1.0000 0.71450  0.13850  0.72840  Biso   1.000  C
  H147     1.0000 0.72070  0.15470  0.78430  Biso   1.000  H
  C221     1.0000 0.68500  0.10000  0.71080  Biso   1.000  C
  H148     1.0000 0.67250  0.09090  0.75600  Biso   1.000  H
  C222     1.0000 0.77520  0.19220  0.69240  Biso   1.000  C
  C223     1.0000 0.04210  0.10080  0.85800  Biso   1.000  C
  H149     1.0000 0.04360  0.09010  0.80200  Biso   1.000  H
  C224     1.0000 0.01550  0.13870  0.84250  Biso   1.000  C
  H150     1.0000 0.00010  0.15350  0.77810  Biso   1.000  H
  C225     1.0000 0.01180  0.15490  0.92370  Biso   1.000  C
  C226     1.0000 0.03970  0.13290  0.02100  Biso   1.000  C
  H151     1.0000 0.04120  0.14330  0.08010  Biso   1.000  H
  C227     1.0000 0.06570  0.09430  0.02820  Biso   1.000  C
  H152     1.0000 0.08380  0.07910  0.09340  Biso   1.000  H
  C228     1.0000 0.97130  0.19570  0.90010  Biso   1.000  C
  C229     1.0000 0.88090  0.08910  0.98880  Biso   1.000  C
  H153     1.0000 0.89640  0.08310  0.94520  Biso   1.000  H
  C230     1.0000 0.87910  0.12840  0.01360  Biso   1.000  C
  H154     1.0000 0.89540  0.14830  0.98990  Biso   1.000  H
  C231     1.0000 0.85370  0.13763  0.07210  Biso   1.000  C
  C232     1.0000 0.83570  0.10720  0.11440  Biso   1.000  C
  H155     1.0000 0.82170  0.11260  0.16010  Biso   1.000  H
  C233     1.0000 0.83930  0.06900  0.08660  Biso   1.000  C
  H156     1.0000 0.82550  0.04850  0.11230  Biso   1.000  H
  C234     1.0000 0.84240  0.18088  0.09210  Biso   1.000  C
  C235     1.0000 0.08960  0.93820  0.84440  Biso   1.000  C
  H157     1.0000 0.09660  0.95680  0.80590  Biso   1.000  H
  C236     1.0000 0.09000  0.89650  0.82000  Biso   1.000  C
  H158     1.0000 0.09830  0.88850  0.76910  Biso   1.000  H
  C237     1.0000 0.07790  0.87030  0.87330  Biso   1.000  C
  C238     1.0000 0.06870  0.88390  0.95400  Biso   1.000  C
  H159     1.0000 0.06220  0.86620  0.99490  Biso   1.000  H
  C239     1.0000 0.06970  0.92390  0.96960  Biso   1.000  C
  H160     1.0000 0.06260  0.93270  0.02120  Biso   1.000  H
  C240     1.0000 0.07970  0.82640  0.85310  Biso   1.000  C
