data_OPURIB01_clean
_audit_creation_date              2014-07-02
_audit_creation_method            'Materials Studio'
_symmetry_space_group_name_H-M    'P1'
_symmetry_Int_Tables_number       1
_symmetry_cell_setting            triclinic
loop_
_symmetry_equiv_pos_as_xyz
  x,y,z
_cell_length_a                    4.8800
_cell_length_b                    13.1100
_cell_length_c                    13.2899
_cell_angle_alpha                 90.0000
_cell_angle_beta                  100.5790
_cell_angle_gamma                 90.0000
loop_
_atom_site_label
_atom_site_type_symbol
_atom_site_fract_x
_atom_site_fract_y
_atom_site_fract_z
_atom_site_U_iso_or_equiv
_atom_site_adp_type
_atom_site_occupancy
Ce1    Ce    0.97778   0.75880   0.21230   0.01267  Uiso   1.00
Ce2    Ce    0.02222   0.25880   0.78770   0.01267  Uiso   1.00
H1     H     0.93870   0.49630   0.66060   0.01267  Uiso   1.00
H2     H     0.09950   0.79430   0.86970   0.01267  Uiso   1.00
H3     H     0.69260   0.57880   0.94940   0.01267  Uiso   1.00
H4     H     0.47430   0.66130   0.65510   0.01267  Uiso   1.00
H5     H     0.96900   0.84340   0.69130   0.01267  Uiso   1.00
H6     H     0.00280   0.75320   0.61630   0.01267  Uiso   1.00
H7     H     0.40550   0.97240   0.72820   0.01267  Uiso   1.00
H8     H     0.27800   0.78530   0.48640   0.01267  Uiso   1.00
H9     H     0.82240   0.01780   0.49760   0.01267  Uiso   1.00
H10    H     0.06130   0.99630   0.33940   0.01267  Uiso   1.00
H11    H     0.90050   0.29430   0.13030   0.01267  Uiso   1.00
H12    H     0.30740   0.07880   0.05060   0.01267  Uiso   1.00
H13    H     0.52570   0.16130   0.34490   0.01267  Uiso   1.00
H14    H     0.03100   0.34340   0.30870   0.01267  Uiso   1.00
H15    H     0.99720   0.25320   0.38370   0.01267  Uiso   1.00
H16    H     0.59450   0.47240   0.27180   0.01267  Uiso   1.00
H17    H     0.72200   0.28530   0.51360   0.01267  Uiso   1.00
H18    H     0.17760   0.51780   0.50240   0.01267  Uiso   1.00
C1     C     0.23560   0.74870   0.85080   0.01267  Uiso   1.00
C2     C     0.39740   0.68680   0.92630   0.01267  Uiso   1.00
C3     C     0.58450   0.61850   0.89930   0.01267  Uiso   1.00
C4     C     0.61350   0.60840   0.79790   0.01267  Uiso   1.00
C5     C     0.45800   0.67000   0.72320   0.01267  Uiso   1.00
C6     C     0.27390   0.74630   0.74890   0.01267  Uiso   1.00
C7     C     0.10320   0.80070   0.66560   0.01267  Uiso   1.00
C8     C     0.30990   0.86930   0.61330   0.01267  Uiso   1.00
C9     C     0.44430   0.95320   0.66490   0.01267  Uiso   1.00
C10    C     0.63270   0.00700   0.62220   0.01267  Uiso   1.00
C11    C     0.36430   0.84190   0.52060   0.01267  Uiso   1.00
C12    C     0.55520   0.90110   0.47650   0.01267  Uiso   1.00
C13    C     0.69260   0.98110   0.52610   0.01267  Uiso   1.00
C14    C     0.61190   0.86440   0.37740   0.01267  Uiso   1.00
C15    C     0.78210   0.09480   0.68320   0.01267  Uiso   1.00
C16    C     0.80200   0.53550   0.76660   0.01267  Uiso   1.00
C17    C     0.38090   0.69940   0.03530   0.01267  Uiso   1.00
C18    C     0.76440   0.24870   0.14920   0.01267  Uiso   1.00
C19    C     0.60260   0.18680   0.07370   0.01267  Uiso   1.00
C20    C     0.41550   0.11850   0.10070   0.01267  Uiso   1.00
C21    C     0.38650   0.10840   0.20210   0.01267  Uiso   1.00
C22    C     0.54200   0.17000   0.27680   0.01267  Uiso   1.00
C23    C     0.72610   0.24630   0.25110   0.01267  Uiso   1.00
C24    C     0.89680   0.30070   0.33440   0.01267  Uiso   1.00
C25    C     0.69010   0.36930   0.38670   0.01267  Uiso   1.00
C26    C     0.55570   0.45320   0.33510   0.01267  Uiso   1.00
C27    C     0.36730   0.50700   0.37780   0.01267  Uiso   1.00
C28    C     0.63570   0.34190   0.47940   0.01267  Uiso   1.00
C29    C     0.44480   0.40110   0.52350   0.01267  Uiso   1.00
C30    C     0.30740   0.48110   0.47390   0.01267  Uiso   1.00
C31    C     0.38810   0.36440   0.62260   0.01267  Uiso   1.00
C32    C     0.21790   0.59480   0.31680   0.01267  Uiso   1.00
C33    C     0.19800   0.03550   0.23340   0.01267  Uiso   1.00
C34    C     0.61910   0.19940   0.96470   0.01267  Uiso   1.00
O1     O     0.60270   0.66870   0.10840   0.01267  Uiso   1.00
O2     O     0.16090   0.75390   0.05470   0.01267  Uiso   1.00
O3     O     0.84790   0.54520   0.67470   0.01267  Uiso   1.00
O4     O     0.91300   0.46060   0.82400   0.01267  Uiso   1.00
O5     O     0.73970   0.11480   0.77030   0.01267  Uiso   1.00
O6     O     0.94440   0.14850   0.64220   0.01267  Uiso   1.00
O7     O     0.44340   0.80810   0.32050   0.01267  Uiso   1.00
O8     O     0.86950   0.88700   0.35330   0.01267  Uiso   1.00
O9     O     0.39730   0.16870   0.89160   0.01267  Uiso   1.00
O10    O     0.83910   0.25390   0.94530   0.01267  Uiso   1.00
O11    O     0.15210   0.04520   0.32530   0.01267  Uiso   1.00
O12    O     0.08700   0.96060   0.17600   0.01267  Uiso   1.00
O13    O     0.26030   0.61480   0.22970   0.01267  Uiso   1.00
O14    O     0.05560   0.64850   0.35780   0.01267  Uiso   1.00
O15    O     0.55660   0.30810   0.67950   0.01267  Uiso   1.00
O16    O     0.13050   0.38700   0.64670   0.01267  Uiso   1.00
