data_OPURIB_clean
_audit_creation_date              2014-07-02
_audit_creation_method            'Materials Studio'
_symmetry_space_group_name_H-M    'P1'
_symmetry_Int_Tables_number       1
_symmetry_cell_setting            triclinic
loop_
_symmetry_equiv_pos_as_xyz
  x,y,z
_cell_length_a                    4.8730
_cell_length_b                    13.1330
_cell_length_c                    13.2997
_cell_angle_alpha                 90.0000
_cell_angle_beta                  100.5520
_cell_angle_gamma                 90.0000
loop_
_atom_site_label
_atom_site_type_symbol
_atom_site_fract_x
_atom_site_fract_y
_atom_site_fract_z
_atom_site_U_iso_or_equiv
_atom_site_adp_type
_atom_site_occupancy
Ce1    Ce    0.73576   0.39626   0.21198   0.01267  Uiso   1.00
Ce2    Ce    0.26424   0.89626   0.78802   0.01267  Uiso   1.00
H1     H     0.70620   0.92150   0.12910   0.01267  Uiso   1.00
H2     H     0.24770   0.71340   0.05250   0.01267  Uiso   1.00
H3     H     0.31570   0.79480   0.34620   0.01267  Uiso   1.00
H4     H     0.91400   0.88720   0.37750   0.01267  Uiso   1.00
H5     H     0.77530   0.98120   0.31390   0.01267  Uiso   1.00
H6     H     0.18970   0.10200   0.27350   0.01267  Uiso   1.00
H7     H     0.84750   0.15640   0.50100   0.01267  Uiso   1.00
H8     H     0.28400   0.93330   0.51280   0.01267  Uiso   1.00
H9     H     0.55720   0.65660   0.35430   0.01267  Uiso   1.00
H10    H     0.29380   0.42150   0.87090   0.01267  Uiso   1.00
H11    H     0.75230   0.21340   0.94750   0.01267  Uiso   1.00
H12    H     0.68430   0.29480   0.65380   0.01267  Uiso   1.00
H13    H     0.08600   0.38720   0.62250   0.01267  Uiso   1.00
H14    H     0.22470   0.48120   0.68610   0.01267  Uiso   1.00
H15    H     0.81030   0.60200   0.72650   0.01267  Uiso   1.00
H16    H     0.15250   0.65640   0.49900   0.01267  Uiso   1.00
H17    H     0.71600   0.43330   0.48720   0.01267  Uiso   1.00
H18    H     0.44280   0.15660   0.64570   0.01267  Uiso   1.00
C1     C     0.87830   0.89000   0.14940   0.01267  Uiso   1.00
C2     C     0.98570   0.82520   0.07540   0.01267  Uiso   1.00
C3     C     0.19600   0.75450   0.10280   0.01267  Uiso   1.00
C4     C     0.33140   0.74330   0.20280   0.01267  Uiso   1.00
C5     C     0.24490   0.80850   0.27780   0.01267  Uiso   1.00
C6     C     0.02700   0.90700   0.25170   0.01267  Uiso   1.00
C7     C     0.94660   0.94240   0.33260   0.01267  Uiso   1.00
C8     C     0.18410   0.01070   0.38510   0.01267  Uiso   1.00
C9     C     0.28510   0.08620   0.33880   0.01267  Uiso   1.00
C10    C     0.51730   0.14510   0.37550   0.01267  Uiso   1.00
C11    C     0.68470   0.12190   0.47320   0.01267  Uiso   1.00
C12    C     0.56670   0.03550   0.52500   0.01267  Uiso   1.00
C13    C     0.34260   0.98850   0.47840   0.01267  Uiso   1.00
C14    C     0.53440   0.67340   0.23100   0.01267  Uiso   1.00
C15    C     0.73700   0.00200   0.62610   0.01267  Uiso   1.00
C16    C     0.59960   0.23140   0.31590   0.01267  Uiso   1.00
C17    C     0.83680   0.84290   0.96520   0.01267  Uiso   1.00
C18    C     0.12170   0.39000   0.85060   0.01267  Uiso   1.00
C19    C     0.01430   0.32520   0.92460   0.01267  Uiso   1.00
C20    C     0.80400   0.25450   0.89720   0.01267  Uiso   1.00
C21    C     0.66860   0.24330   0.79720   0.01267  Uiso   1.00
C22    C     0.75510   0.30850   0.72220   0.01267  Uiso   1.00
C23    C     0.97300   0.40700   0.74830   0.01267  Uiso   1.00
C24    C     0.05340   0.44240   0.66740   0.01267  Uiso   1.00
C25    C     0.81590   0.51070   0.61490   0.01267  Uiso   1.00
C26    C     0.71490   0.58620   0.66120   0.01267  Uiso   1.00
C27    C     0.48270   0.64510   0.62450   0.01267  Uiso   1.00
C28    C     0.31530   0.62190   0.52680   0.01267  Uiso   1.00
C29    C     0.43330   0.53550   0.47500   0.01267  Uiso   1.00
C30    C     0.65740   0.48850   0.52160   0.01267  Uiso   1.00
C31    C     0.46560   0.17340   0.76900   0.01267  Uiso   1.00
C32    C     0.26300   0.50200   0.37390   0.01267  Uiso   1.00
C33    C     0.40040   0.73140   0.68410   0.01267  Uiso   1.00
C34    C     0.16320   0.34290   0.03480   0.01267  Uiso   1.00
O1     O     0.81850   0.28700   0.35510   0.01267  Uiso   1.00
O2     O     0.61050   0.89280   0.94590   0.01267  Uiso   1.00
O3     O     0.67440   0.68310   0.32190   0.01267  Uiso   1.00
O4     O     0.58690   0.59890   0.17770   0.01267  Uiso   1.00
O5     O     0.47550   0.25280   0.22780   0.01267  Uiso   1.00
O6     O     0.62750   0.94900   0.68070   0.01267  Uiso   1.00
O7     O     0.97500   0.81210   0.89130   0.01267  Uiso   1.00
O8     O     0.01500   0.02550   0.64800   0.01267  Uiso   1.00
O9     O     0.18150   0.78700   0.64490   0.01267  Uiso   1.00
O10    O     0.38950   0.39280   0.05410   0.01267  Uiso   1.00
O11    O     0.32560   0.18310   0.67810   0.01267  Uiso   1.00
O12    O     0.41310   0.09890   0.82230   0.01267  Uiso   1.00
O13    O     0.52450   0.75280   0.77220   0.01267  Uiso   1.00
O14    O     0.37250   0.44900   0.31930   0.01267  Uiso   1.00
O15    O     0.02500   0.31210   0.10870   0.01267  Uiso   1.00
O16    O     0.98500   0.52550   0.35200   0.01267  Uiso   1.00
