data_image0
_cell_length_a       7.2172
_cell_length_b       25.613
_cell_length_c       30.66
_cell_angle_alpha    90
_cell_angle_beta     96.392
_cell_angle_gamma    90

_symmetry_space_group_name_H-M    "P 1"
_symmetry_int_tables_number       1

loop_
  _symmetry_equiv_pos_as_xyz
  'x, y, z'

loop_
  _atom_site_label
  _atom_site_occupancy
  _atom_site_fract_x
  _atom_site_fract_y
  _atom_site_fract_z
  _atom_site_thermal_displace_type
  _atom_site_B_iso_or_equiv
  _atom_site_type_symbol
  O1       1.0000 0.31080  0.38310  0.27250  Biso   1.000  O
  O2       1.0000 0.89500  0.34330  0.19450  Biso   1.000  O
  O3       1.0000 0.35800  0.98740  0.20120  Biso   1.000  O
  O4       1.0000 0.65100  0.95490  0.19530  Biso   1.000  O
  N1       1.0000 0.86200  0.22020  0.05920  Biso   1.000  N
  N2       1.0000 0.95440  0.29850  0.99930  Biso   1.000  N
  C1       1.0000 0.79600  0.18070  0.08100  Biso   1.000  C
  C2       1.0000 0.91600  0.17640  0.12390  Biso   1.000  C
  H1       1.0000 0.89890  0.15360  0.14680  Biso   1.000  H
  C3       1.0000 0.04600  0.21010  0.12300  Biso   1.000  C
  H2       1.0000 0.14410  0.21360  0.14520  Biso   1.000  H
  C4       1.0000 0.02400  0.24350  0.08270  Biso   1.000  C
  C5       1.0000 0.14000  0.28060  0.07090  Biso   1.000  C
  C6       1.0000 0.11000  0.30480  0.03180  Biso   1.000  C
  C7       1.0000 0.22600  0.34490  0.02000  Biso   1.000  C
  H3       1.0000 0.33660  0.35530  0.03610  Biso   1.000  H
  C8       1.0000 0.14900  0.36710  0.97980  Biso   1.000  C
  H4       1.0000 0.19420  0.39490  0.96460  Biso   1.000  H
  C9       1.0000 0.98500  0.33650  0.96800  Biso   1.000  C
  C10      1.0000 0.63700  0.15450  0.07090  Biso   1.000  C
  C11      1.0000 0.29100  0.29880  0.10340  Biso   1.000  C
  C12      1.0000 0.25500  0.32750  0.14090  Biso   1.000  C
  H5       1.0000 0.13380  0.33760  0.14410  Biso   1.000  H
  C13      1.0000 0.39200  0.34040  0.17140  Biso   1.000  C
  H6       1.0000 0.36330  0.35620  0.19720  Biso   1.000  H
  C14      1.0000 0.57400  0.33080  0.16590  Biso   1.000  C
  C15      1.0000 0.62000  0.30300  0.12990  Biso   1.000  C
  H7       1.0000 0.74300  0.29540  0.12600  Biso   1.000  H
  C16      1.0000 0.47300  0.28710  0.10000  Biso   1.000  C
  H8       1.0000 0.50030  0.26720  0.07610  Biso   1.000  H
  C17      1.0000 0.73100  0.35470  0.19820  Biso   1.000  C
  C18      1.0000 0.59700  0.11120  0.09970  Biso   1.000  C
  C19      1.0000 0.44400  0.11190  0.12350  Biso   1.000  C
  H9       1.0000 0.36080  0.13980  0.12070  Biso   1.000  H
  C20      1.0000 0.41500  0.07080  0.15160  Biso   1.000  C
  H10      1.0000 0.31230  0.07130  0.16760  Biso   1.000  H
  C21      1.0000 0.53800  0.02910  0.15590  Biso   1.000  C
  C22      1.0000 0.69100  0.02840  0.13200  Biso   1.000  C
  H11      1.0000 0.77410  0.00050  0.13480  Biso   1.000  H
  C23      1.0000 0.72000  0.06950  0.10390  Biso   1.000  C
  H12      1.0000 0.82260  0.06900  0.08800  Biso   1.000  H
  C24      1.0000 0.51000  0.98700  0.18930  Biso   1.000  C
  O5       1.0000 0.68920  0.38310  0.22750  Biso   1.000  O
  O6       1.0000 0.10500  0.34330  0.30550  Biso   1.000  O
  O7       1.0000 0.64200  0.98740  0.29880  Biso   1.000  O
  O8       1.0000 0.34900  0.95490  0.30470  Biso   1.000  O
  N3       1.0000 0.13800  0.22020  0.44080  Biso   1.000  N
  N4       1.0000 0.04560  0.29850  0.50070  Biso   1.000  N
  C25      1.0000 0.20400  0.18070  0.41900  Biso   1.000  C
  C26      1.0000 0.08400  0.17640  0.37610  Biso   1.000  C
  H13      1.0000 0.10110  0.15360  0.35320  Biso   1.000  H
  C27      1.0000 0.95400  0.21010  0.37700  Biso   1.000  C
  H14      1.0000 0.85590  0.21360  0.35480  Biso   1.000  H
  C28      1.0000 0.97600  0.24350  0.41730  Biso   1.000  C
  C29      1.0000 0.86000  0.28060  0.42910  Biso   1.000  C
  C30      1.0000 0.89000  0.30480  0.46820  Biso   1.000  C
  C31      1.0000 0.77400  0.34490  0.48000  Biso   1.000  C
  H15      1.0000 0.66340  0.35530  0.46390  Biso   1.000  H
  C32      1.0000 0.85100  0.36710  0.52020  Biso   1.000  C
  H16      1.0000 0.80580  0.39490  0.53540  Biso   1.000  H
  C33      1.0000 0.01500  0.33650  0.53200  Biso   1.000  C
  C34      1.0000 0.36300  0.15450  0.42910  Biso   1.000  C
  C35      1.0000 0.70900  0.29880  0.39660  Biso   1.000  C
  C36      1.0000 0.74500  0.32750  0.35910  Biso   1.000  C
  H17      1.0000 0.86620  0.33760  0.35590  Biso   1.000  H
  C37      1.0000 0.60800  0.34040  0.32860  Biso   1.000  C
  H18      1.0000 0.63670  0.35620  0.30280  Biso   1.000  H
  C38      1.0000 0.42600  0.33080  0.33410  Biso   1.000  C
  C39      1.0000 0.38000  0.30300  0.37010  Biso   1.000  C
  H19      1.0000 0.25700  0.29540  0.37400  Biso   1.000  H
  C40      1.0000 0.52700  0.28710  0.40000  Biso   1.000  C
  H20      1.0000 0.49970  0.26720  0.42390  Biso   1.000  H
  C41      1.0000 0.26900  0.35470  0.30180  Biso   1.000  C
  C42      1.0000 0.40300  0.11120  0.40030  Biso   1.000  C
  C43      1.0000 0.55600  0.11190  0.37650  Biso   1.000  C
  H21      1.0000 0.63920  0.13980  0.37930  Biso   1.000  H
  C44      1.0000 0.58500  0.07080  0.34840  Biso   1.000  C
  H22      1.0000 0.68770  0.07130  0.33240  Biso   1.000  H
  C45      1.0000 0.46200  0.02910  0.34410  Biso   1.000  C
  C46      1.0000 0.30900  0.02840  0.36800  Biso   1.000  C
  H23      1.0000 0.22590  0.00050  0.36520  Biso   1.000  H
  C47      1.0000 0.28000  0.06950  0.39610  Biso   1.000  C
  H24      1.0000 0.17740  0.06900  0.41200  Biso   1.000  H
  C48      1.0000 0.49000  0.98700  0.31070  Biso   1.000  C
  O9       1.0000 0.18920  0.11690  0.72750  Biso   1.000  O
  O10      1.0000 0.60500  0.15670  0.80550  Biso   1.000  O
  O11      1.0000 0.14200  0.51260  0.79880  Biso   1.000  O
  O12      1.0000 0.84900  0.54510  0.80470  Biso   1.000  O
  N5       1.0000 0.63800  0.27980  0.94080  Biso   1.000  N
  N6       1.0000 0.54560  0.20150  0.00070  Biso   1.000  N
  C49      1.0000 0.70400  0.31930  0.91900  Biso   1.000  C
  C50      1.0000 0.58400  0.32360  0.87610  Biso   1.000  C
  H25      1.0000 0.60110  0.34640  0.85320  Biso   1.000  H
  C51      1.0000 0.45400  0.28990  0.87700  Biso   1.000  C
  H26      1.0000 0.35590  0.28640  0.85480  Biso   1.000  H
  C52      1.0000 0.47600  0.25650  0.91730  Biso   1.000  C
  C53      1.0000 0.36000  0.21940  0.92910  Biso   1.000  C
  C54      1.0000 0.39000  0.19520  0.96820  Biso   1.000  C
  C55      1.0000 0.27400  0.15510  0.98000  Biso   1.000  C
  H27      1.0000 0.16340  0.14470  0.96390  Biso   1.000  H
  C56      1.0000 0.35100  0.13290  0.02020  Biso   1.000  C
  H28      1.0000 0.30580  0.10510  0.03540  Biso   1.000  H
  C57      1.0000 0.51500  0.16350  0.03200  Biso   1.000  C
  C58      1.0000 0.86300  0.34550  0.92910  Biso   1.000  C
  C59      1.0000 0.20900  0.20120  0.89660  Biso   1.000  C
  C60      1.0000 0.24500  0.17250  0.85910  Biso   1.000  C
  H29      1.0000 0.36620  0.16240  0.85590  Biso   1.000  H
  C61      1.0000 0.10800  0.15960  0.82860  Biso   1.000  C
  H30      1.0000 0.13670  0.14380  0.80280  Biso   1.000  H
  C62      1.0000 0.92600  0.16920  0.83410  Biso   1.000  C
  C63      1.0000 0.88000  0.19700  0.87010  Biso   1.000  C
  H31      1.0000 0.75700  0.20460  0.87400  Biso   1.000  H
  C64      1.0000 0.02700  0.21290  0.90000  Biso   1.000  C
  H32      1.0000 0.99970  0.23280  0.92390  Biso   1.000  H
  C65      1.0000 0.76900  0.14530  0.80180  Biso   1.000  C
  C66      1.0000 0.90300  0.38880  0.90030  Biso   1.000  C
  C67      1.0000 0.05600  0.38810  0.87650  Biso   1.000  C
  H33      1.0000 0.13920  0.36020  0.87930  Biso   1.000  H
  C68      1.0000 0.08500  0.42920  0.84840  Biso   1.000  C
  H34      1.0000 0.18770  0.42870  0.83240  Biso   1.000  H
  C69      1.0000 0.96200  0.47090  0.84410  Biso   1.000  C
  C70      1.0000 0.80900  0.47160  0.86800  Biso   1.000  C
  H35      1.0000 0.72590  0.49950  0.86520  Biso   1.000  H
  C71      1.0000 0.78000  0.43050  0.89610  Biso   1.000  C
  H36      1.0000 0.67740  0.43100  0.91200  Biso   1.000  H
  C72      1.0000 0.99000  0.51300  0.81070  Biso   1.000  C
  O13      1.0000 0.81080  0.11690  0.77250  Biso   1.000  O
  O14      1.0000 0.39500  0.15670  0.69450  Biso   1.000  O
  O15      1.0000 0.85800  0.51260  0.70120  Biso   1.000  O
  O16      1.0000 0.15100  0.54510  0.69530  Biso   1.000  O
  N7       1.0000 0.36200  0.27980  0.55920  Biso   1.000  N
  N8       1.0000 0.45440  0.20150  0.49930  Biso   1.000  N
  C73      1.0000 0.29600  0.31930  0.58100  Biso   1.000  C
  C74      1.0000 0.41600  0.32360  0.62390  Biso   1.000  C
  H37      1.0000 0.39890  0.34640  0.64680  Biso   1.000  H
  C75      1.0000 0.54600  0.28990  0.62300  Biso   1.000  C
  H38      1.0000 0.64410  0.28640  0.64520  Biso   1.000  H
  C76      1.0000 0.52400  0.25650  0.58270  Biso   1.000  C
  C77      1.0000 0.64000  0.21940  0.57090  Biso   1.000  C
  C78      1.0000 0.61000  0.19520  0.53180  Biso   1.000  C
  C79      1.0000 0.72600  0.15510  0.52000  Biso   1.000  C
  H39      1.0000 0.83660  0.14470  0.53610  Biso   1.000  H
  C80      1.0000 0.64900  0.13290  0.47980  Biso   1.000  C
  H40      1.0000 0.69420  0.10510  0.46460  Biso   1.000  H
  C81      1.0000 0.48500  0.16350  0.46800  Biso   1.000  C
  C82      1.0000 0.13700  0.34550  0.57090  Biso   1.000  C
  C83      1.0000 0.79100  0.20120  0.60340  Biso   1.000  C
  C84      1.0000 0.75500  0.17250  0.64090  Biso   1.000  C
  H41      1.0000 0.63380  0.16240  0.64410  Biso   1.000  H
  C85      1.0000 0.89200  0.15960  0.67140  Biso   1.000  C
  H42      1.0000 0.86330  0.14380  0.69720  Biso   1.000  H
  C86      1.0000 0.07400  0.16920  0.66590  Biso   1.000  C
  C87      1.0000 0.12000  0.19700  0.62990  Biso   1.000  C
  H43      1.0000 0.24300  0.20460  0.62600  Biso   1.000  H
  C88      1.0000 0.97300  0.21290  0.60000  Biso   1.000  C
  H44      1.0000 0.00030  0.23280  0.57610  Biso   1.000  H
  C89      1.0000 0.23100  0.14530  0.69820  Biso   1.000  C
  C90      1.0000 0.09700  0.38880  0.59970  Biso   1.000  C
  C91      1.0000 0.94400  0.38810  0.62350  Biso   1.000  C
  H45      1.0000 0.86080  0.36020  0.62070  Biso   1.000  H
  C92      1.0000 0.91500  0.42920  0.65160  Biso   1.000  C
  H46      1.0000 0.81230  0.42870  0.66760  Biso   1.000  H
  C93      1.0000 0.03800  0.47090  0.65590  Biso   1.000  C
  C94      1.0000 0.19100  0.47160  0.63200  Biso   1.000  C
  H47      1.0000 0.27410  0.49950  0.63480  Biso   1.000  H
  C95      1.0000 0.22000  0.43050  0.60390  Biso   1.000  C
  H48      1.0000 0.32260  0.43100  0.58800  Biso   1.000  H
  C96      1.0000 0.01000  0.51300  0.68930  Biso   1.000  C
  Cd1      1.0000 0.00000  0.40505  0.25000  Biso   1.000  Cd
  Cd2      1.0000 0.50000  0.09495  0.75000  Biso   1.000  Cd
  Pd1      1.0000 0.75000  0.25000  0.00000  Biso   1.000  Pd
  Pd2      1.0000 0.25000  0.25000  0.50000  Biso   1.000  Pd
  O17      1.0000 0.81080  0.88310  0.27250  Biso   1.000  O
  O18      1.0000 0.39500  0.84330  0.19450  Biso   1.000  O
  O19      1.0000 0.85800  0.48740  0.20120  Biso   1.000  O
  O20      1.0000 0.15100  0.45490  0.19530  Biso   1.000  O
  N9       1.0000 0.36200  0.72020  0.05920  Biso   1.000  N
  N10      1.0000 0.45440  0.79850  0.99930  Biso   1.000  N
  C97      1.0000 0.29600  0.68070  0.08100  Biso   1.000  C
  C98      1.0000 0.41600  0.67640  0.12390  Biso   1.000  C
  H49      1.0000 0.39890  0.65360  0.14680  Biso   1.000  H
  C99      1.0000 0.54600  0.71010  0.12300  Biso   1.000  C
  H50      1.0000 0.64410  0.71360  0.14520  Biso   1.000  H
  C100     1.0000 0.52400  0.74350  0.08270  Biso   1.000  C
  C101     1.0000 0.64000  0.78060  0.07090  Biso   1.000  C
  C102     1.0000 0.61000  0.80480  0.03180  Biso   1.000  C
  C103     1.0000 0.72600  0.84490  0.02000  Biso   1.000  C
  H51      1.0000 0.83660  0.85530  0.03610  Biso   1.000  H
  C104     1.0000 0.64900  0.86710  0.97980  Biso   1.000  C
  H52      1.0000 0.69420  0.89490  0.96460  Biso   1.000  H
  C105     1.0000 0.48500  0.83650  0.96800  Biso   1.000  C
  C106     1.0000 0.13700  0.65450  0.07090  Biso   1.000  C
  C107     1.0000 0.79100  0.79880  0.10340  Biso   1.000  C
  C108     1.0000 0.75500  0.82750  0.14090  Biso   1.000  C
  H53      1.0000 0.63380  0.83760  0.14410  Biso   1.000  H
  C109     1.0000 0.89200  0.84040  0.17140  Biso   1.000  C
  H54      1.0000 0.86330  0.85620  0.19720  Biso   1.000  H
  C110     1.0000 0.07400  0.83080  0.16590  Biso   1.000  C
  C111     1.0000 0.12000  0.80300  0.12990  Biso   1.000  C
  H55      1.0000 0.24300  0.79540  0.12600  Biso   1.000  H
  C112     1.0000 0.97300  0.78710  0.10000  Biso   1.000  C
  H56      1.0000 0.00030  0.76720  0.07610  Biso   1.000  H
  C113     1.0000 0.23100  0.85470  0.19820  Biso   1.000  C
  C114     1.0000 0.09700  0.61120  0.09970  Biso   1.000  C
  C115     1.0000 0.94400  0.61190  0.12350  Biso   1.000  C
  H57      1.0000 0.86080  0.63980  0.12070  Biso   1.000  H
  C116     1.0000 0.91500  0.57080  0.15160  Biso   1.000  C
  H58      1.0000 0.81230  0.57130  0.16760  Biso   1.000  H
  C117     1.0000 0.03800  0.52910  0.15590  Biso   1.000  C
  C118     1.0000 0.19100  0.52840  0.13200  Biso   1.000  C
  H59      1.0000 0.27410  0.50050  0.13480  Biso   1.000  H
  C119     1.0000 0.22000  0.56950  0.10390  Biso   1.000  C
  H60      1.0000 0.32260  0.56900  0.08800  Biso   1.000  H
  C120     1.0000 0.01000  0.48700  0.18930  Biso   1.000  C
  O21      1.0000 0.18920  0.88310  0.22750  Biso   1.000  O
  O22      1.0000 0.60500  0.84330  0.30550  Biso   1.000  O
  O23      1.0000 0.14200  0.48740  0.29880  Biso   1.000  O
  O24      1.0000 0.84900  0.45490  0.30470  Biso   1.000  O
  N11      1.0000 0.63800  0.72020  0.44080  Biso   1.000  N
  N12      1.0000 0.54560  0.79850  0.50070  Biso   1.000  N
  C121     1.0000 0.70400  0.68070  0.41900  Biso   1.000  C
  C122     1.0000 0.58400  0.67640  0.37610  Biso   1.000  C
  H61      1.0000 0.60110  0.65360  0.35320  Biso   1.000  H
  C123     1.0000 0.45400  0.71010  0.37700  Biso   1.000  C
  H62      1.0000 0.35590  0.71360  0.35480  Biso   1.000  H
  C124     1.0000 0.47600  0.74350  0.41730  Biso   1.000  C
  C125     1.0000 0.36000  0.78060  0.42910  Biso   1.000  C
  C126     1.0000 0.39000  0.80480  0.46820  Biso   1.000  C
  C127     1.0000 0.27400  0.84490  0.48000  Biso   1.000  C
  H63      1.0000 0.16340  0.85530  0.46390  Biso   1.000  H
  C128     1.0000 0.35100  0.86710  0.52020  Biso   1.000  C
  H64      1.0000 0.30580  0.89490  0.53540  Biso   1.000  H
  C129     1.0000 0.51500  0.83650  0.53200  Biso   1.000  C
  C130     1.0000 0.86300  0.65450  0.42910  Biso   1.000  C
  C131     1.0000 0.20900  0.79880  0.39660  Biso   1.000  C
  C132     1.0000 0.24500  0.82750  0.35910  Biso   1.000  C
  H65      1.0000 0.36620  0.83760  0.35590  Biso   1.000  H
  C133     1.0000 0.10800  0.84040  0.32860  Biso   1.000  C
  H66      1.0000 0.13670  0.85620  0.30280  Biso   1.000  H
  C134     1.0000 0.92600  0.83080  0.33410  Biso   1.000  C
  C135     1.0000 0.88000  0.80300  0.37010  Biso   1.000  C
  H67      1.0000 0.75700  0.79540  0.37400  Biso   1.000  H
  C136     1.0000 0.02700  0.78710  0.40000  Biso   1.000  C
  H68      1.0000 0.99970  0.76720  0.42390  Biso   1.000  H
  C137     1.0000 0.76900  0.85470  0.30180  Biso   1.000  C
  C138     1.0000 0.90300  0.61120  0.40030  Biso   1.000  C
  C139     1.0000 0.05600  0.61190  0.37650  Biso   1.000  C
  H69      1.0000 0.13920  0.63980  0.37930  Biso   1.000  H
  C140     1.0000 0.08500  0.57080  0.34840  Biso   1.000  C
  H70      1.0000 0.18770  0.57130  0.33240  Biso   1.000  H
  C141     1.0000 0.96200  0.52910  0.34410  Biso   1.000  C
  C142     1.0000 0.80900  0.52840  0.36800  Biso   1.000  C
  H71      1.0000 0.72590  0.50050  0.36520  Biso   1.000  H
  C143     1.0000 0.78000  0.56950  0.39610  Biso   1.000  C
  H72      1.0000 0.67740  0.56900  0.41200  Biso   1.000  H
  C144     1.0000 0.99000  0.48700  0.31070  Biso   1.000  C
  O25      1.0000 0.68920  0.61690  0.72750  Biso   1.000  O
  O26      1.0000 0.10500  0.65670  0.80550  Biso   1.000  O
  O27      1.0000 0.64200  0.01260  0.79880  Biso   1.000  O
  O28      1.0000 0.34900  0.04510  0.80470  Biso   1.000  O
  N13      1.0000 0.13800  0.77980  0.94080  Biso   1.000  N
  N14      1.0000 0.04560  0.70150  0.00070  Biso   1.000  N
  C145     1.0000 0.20400  0.81930  0.91900  Biso   1.000  C
  C146     1.0000 0.08400  0.82360  0.87610  Biso   1.000  C
  H73      1.0000 0.10110  0.84640  0.85320  Biso   1.000  H
  C147     1.0000 0.95400  0.78990  0.87700  Biso   1.000  C
  H74      1.0000 0.85590  0.78640  0.85480  Biso   1.000  H
  C148     1.0000 0.97600  0.75650  0.91730  Biso   1.000  C
  C149     1.0000 0.86000  0.71940  0.92910  Biso   1.000  C
  C150     1.0000 0.89000  0.69520  0.96820  Biso   1.000  C
  C151     1.0000 0.77400  0.65510  0.98000  Biso   1.000  C
  H75      1.0000 0.66340  0.64470  0.96390  Biso   1.000  H
  C152     1.0000 0.85100  0.63290  0.02020  Biso   1.000  C
  H76      1.0000 0.80580  0.60510  0.03540  Biso   1.000  H
  C153     1.0000 0.01500  0.66350  0.03200  Biso   1.000  C
  C154     1.0000 0.36300  0.84550  0.92910  Biso   1.000  C
  C155     1.0000 0.70900  0.70120  0.89660  Biso   1.000  C
  C156     1.0000 0.74500  0.67250  0.85910  Biso   1.000  C
  H77      1.0000 0.86620  0.66240  0.85590  Biso   1.000  H
  C157     1.0000 0.60800  0.65960  0.82860  Biso   1.000  C
  H78      1.0000 0.63670  0.64380  0.80280  Biso   1.000  H
  C158     1.0000 0.42600  0.66920  0.83410  Biso   1.000  C
  C159     1.0000 0.38000  0.69700  0.87010  Biso   1.000  C
  H79      1.0000 0.25700  0.70460  0.87400  Biso   1.000  H
  C160     1.0000 0.52700  0.71290  0.90000  Biso   1.000  C
  H80      1.0000 0.49970  0.73280  0.92390  Biso   1.000  H
  C161     1.0000 0.26900  0.64530  0.80180  Biso   1.000  C
  C162     1.0000 0.40300  0.88880  0.90030  Biso   1.000  C
  C163     1.0000 0.55600  0.88810  0.87650  Biso   1.000  C
  H81      1.0000 0.63920  0.86020  0.87930  Biso   1.000  H
  C164     1.0000 0.58500  0.92920  0.84840  Biso   1.000  C
  H82      1.0000 0.68770  0.92870  0.83240  Biso   1.000  H
  C165     1.0000 0.46200  0.97090  0.84410  Biso   1.000  C
  C166     1.0000 0.30900  0.97160  0.86800  Biso   1.000  C
  H83      1.0000 0.22590  0.99950  0.86520  Biso   1.000  H
  C167     1.0000 0.28000  0.93050  0.89610  Biso   1.000  C
  H84      1.0000 0.17740  0.93100  0.91200  Biso   1.000  H
  C168     1.0000 0.49000  0.01300  0.81070  Biso   1.000  C
  O29      1.0000 0.31080  0.61690  0.77250  Biso   1.000  O
  O30      1.0000 0.89500  0.65670  0.69450  Biso   1.000  O
  O31      1.0000 0.35800  0.01260  0.70120  Biso   1.000  O
  O32      1.0000 0.65100  0.04510  0.69530  Biso   1.000  O
  N15      1.0000 0.86200  0.77980  0.55920  Biso   1.000  N
  N16      1.0000 0.95440  0.70150  0.49930  Biso   1.000  N
  C169     1.0000 0.79600  0.81930  0.58100  Biso   1.000  C
  C170     1.0000 0.91600  0.82360  0.62390  Biso   1.000  C
  H85      1.0000 0.89890  0.84640  0.64680  Biso   1.000  H
  C171     1.0000 0.04600  0.78990  0.62300  Biso   1.000  C
  H86      1.0000 0.14410  0.78640  0.64520  Biso   1.000  H
  C172     1.0000 0.02400  0.75650  0.58270  Biso   1.000  C
  C173     1.0000 0.14000  0.71940  0.57090  Biso   1.000  C
  C174     1.0000 0.11000  0.69520  0.53180  Biso   1.000  C
  C175     1.0000 0.22600  0.65510  0.52000  Biso   1.000  C
  H87      1.0000 0.33660  0.64470  0.53610  Biso   1.000  H
  C176     1.0000 0.14900  0.63290  0.47980  Biso   1.000  C
  H88      1.0000 0.19420  0.60510  0.46460  Biso   1.000  H
  C177     1.0000 0.98500  0.66350  0.46800  Biso   1.000  C
  C178     1.0000 0.63700  0.84550  0.57090  Biso   1.000  C
  C179     1.0000 0.29100  0.70120  0.60340  Biso   1.000  C
  C180     1.0000 0.25500  0.67250  0.64090  Biso   1.000  C
  H89      1.0000 0.13380  0.66240  0.64410  Biso   1.000  H
  C181     1.0000 0.39200  0.65960  0.67140  Biso   1.000  C
  H90      1.0000 0.36330  0.64380  0.69720  Biso   1.000  H
  C182     1.0000 0.57400  0.66920  0.66590  Biso   1.000  C
  C183     1.0000 0.62000  0.69700  0.62990  Biso   1.000  C
  H91      1.0000 0.74300  0.70460  0.62600  Biso   1.000  H
  C184     1.0000 0.47300  0.71290  0.60000  Biso   1.000  C
  H92      1.0000 0.50030  0.73280  0.57610  Biso   1.000  H
  C185     1.0000 0.73100  0.64530  0.69820  Biso   1.000  C
  C186     1.0000 0.59700  0.88880  0.59970  Biso   1.000  C
  C187     1.0000 0.44400  0.88810  0.62350  Biso   1.000  C
  H93      1.0000 0.36080  0.86020  0.62070  Biso   1.000  H
  C188     1.0000 0.41500  0.92920  0.65160  Biso   1.000  C
  H94      1.0000 0.31230  0.92870  0.66760  Biso   1.000  H
  C189     1.0000 0.53800  0.97090  0.65590  Biso   1.000  C
  C190     1.0000 0.69100  0.97160  0.63200  Biso   1.000  C
  H95      1.0000 0.77410  0.99950  0.63480  Biso   1.000  H
  C191     1.0000 0.72000  0.93050  0.60390  Biso   1.000  C
  H96      1.0000 0.82260  0.93100  0.58800  Biso   1.000  H
  C192     1.0000 0.51000  0.01300  0.68930  Biso   1.000  C
  Cd3      1.0000 0.50000  0.90505  0.25000  Biso   1.000  Cd
  Cd4      1.0000 0.00000  0.59495  0.75000  Biso   1.000  Cd
  Pd3      1.0000 0.25000  0.75000  0.00000  Biso   1.000  Pd
  Pd4      1.0000 0.75000  0.75000  0.50000  Biso   1.000  Pd
