data_OQEROS_clean
_audit_creation_date              2014-07-02
_audit_creation_method            'Materials Studio'
_symmetry_space_group_name_H-M    'P1'
_symmetry_Int_Tables_number       1
_symmetry_cell_setting            triclinic
loop_
_symmetry_equiv_pos_as_xyz
  x,y,z
_cell_length_a                    7.2953
_cell_length_b                    13.2981
_cell_length_c                    30.7597
_cell_angle_alpha                 88.2585
_cell_angle_beta                  83.6390
_cell_angle_gamma                 74.0798
loop_
_atom_site_label
_atom_site_type_symbol
_atom_site_fract_x
_atom_site_fract_y
_atom_site_fract_z
_atom_site_U_iso_or_equiv
_atom_site_adp_type
_atom_site_occupancy
Cd1    Cd    0.15524   0.68952   0.25000   0.01267  Uiso   1.00
Cd2    Cd    0.84476   0.31048   0.75000   0.01267  Uiso   1.00
H1     H     0.90320   0.19880   0.14430   0.01267  Uiso   1.00
H2     H     0.21220   0.07580   0.14480   0.01267  Uiso   1.00
H3     H     0.65360   0.78720   0.03640   0.01267  Uiso   1.00
H4     H     0.61990   0.71360   0.96670   0.01267  Uiso   1.00
H5     H     0.31660   0.84260   0.14580   0.01267  Uiso   1.00
H6     H     0.52880   0.78780   0.19660   0.01267  Uiso   1.00
H7     H     0.90570   0.91120   0.12670   0.01267  Uiso   1.00
H8     H     0.69490   0.96520   0.07560   0.01267  Uiso   1.00
H9     H     0.38770   0.21900   0.11810   0.01267  Uiso   1.00
H10    H     0.21980   0.35280   0.16590   0.01267  Uiso   1.00
H11    H     0.62370   0.50420   0.13540   0.01267  Uiso   1.00
H12    H     0.79140   0.37060   0.08760   0.01267  Uiso   1.00
H13    H     0.89800   0.19880   0.35570   0.01267  Uiso   1.00
H14    H     0.71200   0.07580   0.35520   0.01267  Uiso   1.00
H15    H     0.55920   0.78720   0.46360   0.01267  Uiso   1.00
H16    H     0.66650   0.71360   0.53330   0.01267  Uiso   1.00
H17    H     0.84080   0.84260   0.35420   0.01267  Uiso   1.00
H18    H     0.68340   0.78780   0.30340   0.01267  Uiso   1.00
H19    H     0.18310   0.91120   0.37330   0.01267  Uiso   1.00
H20    H     0.33990   0.96520   0.42440   0.01267  Uiso   1.00
H21    H     0.39330   0.21900   0.38190   0.01267  Uiso   1.00
H22    H     0.42740   0.35280   0.33410   0.01267  Uiso   1.00
H23    H     0.87210   0.50420   0.36460   0.01267  Uiso   1.00
H24    H     0.83800   0.37060   0.41240   0.01267  Uiso   1.00
H25    H     0.09680   0.80120   0.85570   0.01267  Uiso   1.00
H26    H     0.78780   0.92420   0.85520   0.01267  Uiso   1.00
H27    H     0.34640   0.21280   0.96360   0.01267  Uiso   1.00
H28    H     0.38010   0.28640   0.03330   0.01267  Uiso   1.00
H29    H     0.68340   0.15740   0.85420   0.01267  Uiso   1.00
H30    H     0.47120   0.21220   0.80340   0.01267  Uiso   1.00
H31    H     0.09430   0.08880   0.87330   0.01267  Uiso   1.00
H32    H     0.30510   0.03480   0.92440   0.01267  Uiso   1.00
H33    H     0.61230   0.78100   0.88190   0.01267  Uiso   1.00
H34    H     0.78020   0.64720   0.83410   0.01267  Uiso   1.00
H35    H     0.37630   0.49580   0.86460   0.01267  Uiso   1.00
H36    H     0.20860   0.62940   0.91240   0.01267  Uiso   1.00
H37    H     0.10200   0.80120   0.64430   0.01267  Uiso   1.00
H38    H     0.28800   0.92420   0.64480   0.01267  Uiso   1.00
H39    H     0.44080   0.21280   0.53640   0.01267  Uiso   1.00
H40    H     0.33350   0.28640   0.46670   0.01267  Uiso   1.00
H41    H     0.15920   0.15740   0.64580   0.01267  Uiso   1.00
H42    H     0.31660   0.21220   0.69660   0.01267  Uiso   1.00
H43    H     0.81690   0.08880   0.62670   0.01267  Uiso   1.00
H44    H     0.66010   0.03480   0.57560   0.01267  Uiso   1.00
H45    H     0.60670   0.78100   0.61810   0.01267  Uiso   1.00
H46    H     0.57260   0.64720   0.66590   0.01267  Uiso   1.00
H47    H     0.12790   0.49580   0.63540   0.01267  Uiso   1.00
H48    H     0.16200   0.62940   0.58760   0.01267  Uiso   1.00
Pd1    Pd    0.00000   0.00000   0.00000   0.01267  Uiso   1.00
Pd2    Pd    0.00000   0.00000   0.50000   0.01267  Uiso   1.00
C1     C     0.89440   0.13840   0.08160   0.01267  Uiso   1.00
C2     C     0.96530   0.15120   0.12230   0.01267  Uiso   1.00
C3     C     0.13370   0.08340   0.12240   0.01267  Uiso   1.00
C4     C     0.17930   0.02280   0.08320   0.01267  Uiso   1.00
C5     C     0.34360   0.94500   0.07130   0.01267  Uiso   1.00
C6     C     0.38440   0.88940   0.03200   0.01267  Uiso   1.00
C7     C     0.54900   0.80940   0.02030   0.01267  Uiso   1.00
C8     C     0.53200   0.76900   0.98180   0.01267  Uiso   1.00
C9     C     0.35470   0.82740   0.96910   0.01267  Uiso   1.00
C10    C     0.72070   0.19340   0.06950   0.01267  Uiso   1.00
C11    C     0.48230   0.91060   0.10500   0.01267  Uiso   1.00
C12    C     0.43550   0.85640   0.14170   0.01267  Uiso   1.00
C13    C     0.56320   0.82320   0.17190   0.01267  Uiso   1.00
C14    C     0.74230   0.84080   0.16640   0.01267  Uiso   1.00
C15    C     0.78770   0.89620   0.13050   0.01267  Uiso   1.00
C16    C     0.66050   0.92920   0.10020   0.01267  Uiso   1.00
C17    C     0.88720   0.79500   0.19870   0.01267  Uiso   1.00
C18    C     0.60620   0.28160   0.09810   0.01267  Uiso   1.00
C19    C     0.43500   0.27620   0.12160   0.01267  Uiso   1.00
C20    C     0.33440   0.35640   0.15020   0.01267  Uiso   1.00
C21    C     0.40510   0.44180   0.15540   0.01267  Uiso   1.00
C22    C     0.57650   0.44700   0.13190   0.01267  Uiso   1.00
C23    C     0.67690   0.36700   0.10330   0.01267  Uiso   1.00
C24    C     0.30830   0.52740   0.18880   0.01267  Uiso   1.00
C25    C     0.96720   0.13840   0.41840   0.01267  Uiso   1.00
C26    C     0.88350   0.15120   0.37770   0.01267  Uiso   1.00
C27    C     0.78290   0.08340   0.37760   0.01267  Uiso   1.00
C28    C     0.79790   0.02280   0.41680   0.01267  Uiso   1.00
C29    C     0.71140   0.94500   0.42870   0.01267  Uiso   1.00
C30    C     0.72620   0.88940   0.46800   0.01267  Uiso   1.00
C31    C     0.64160   0.80940   0.47970   0.01267  Uiso   1.00
C32    C     0.69900   0.76900   0.51820   0.01267  Uiso   1.00
C33    C     0.81790   0.82740   0.53090   0.01267  Uiso   1.00
C34    C     0.08590   0.19340   0.43050   0.01267  Uiso   1.00
C35    C     0.60710   0.91060   0.39500   0.01267  Uiso   1.00
C36    C     0.70810   0.85640   0.35830   0.01267  Uiso   1.00
C37    C     0.61360   0.82320   0.32810   0.01267  Uiso   1.00
C38    C     0.41690   0.84080   0.33360   0.01267  Uiso   1.00
C39    C     0.31610   0.89620   0.36950   0.01267  Uiso   1.00
C40    C     0.41030   0.92920   0.39980   0.01267  Uiso   1.00
C41    C     0.31780   0.79500   0.30130   0.01267  Uiso   1.00
C42    C     0.11220   0.28160   0.40190   0.01267  Uiso   1.00
C43    C     0.28880   0.27620   0.37840   0.01267  Uiso   1.00
C44    C     0.30920   0.35640   0.34980   0.01267  Uiso   1.00
C45    C     0.15310   0.44180   0.34460   0.01267  Uiso   1.00
C46    C     0.97650   0.44700   0.36810   0.01267  Uiso   1.00
C47    C     0.95610   0.36700   0.39670   0.01267  Uiso   1.00
C48    C     0.16430   0.52740   0.31120   0.01267  Uiso   1.00
C49    C     0.10560   0.86160   0.91840   0.01267  Uiso   1.00
C50    C     0.03470   0.84880   0.87770   0.01267  Uiso   1.00
C51    C     0.86630   0.91660   0.87760   0.01267  Uiso   1.00
C52    C     0.82070   0.97720   0.91680   0.01267  Uiso   1.00
C53    C     0.65640   0.05500   0.92870   0.01267  Uiso   1.00
C54    C     0.61560   0.11060   0.96800   0.01267  Uiso   1.00
C55    C     0.45100   0.19060   0.97970   0.01267  Uiso   1.00
C56    C     0.46800   0.23100   0.01820   0.01267  Uiso   1.00
C57    C     0.64530   0.17260   0.03090   0.01267  Uiso   1.00
C58    C     0.27930   0.80660   0.93050   0.01267  Uiso   1.00
C59    C     0.51770   0.08940   0.89500   0.01267  Uiso   1.00
C60    C     0.56450   0.14360   0.85830   0.01267  Uiso   1.00
C61    C     0.43680   0.17680   0.82810   0.01267  Uiso   1.00
C62    C     0.25770   0.15920   0.83360   0.01267  Uiso   1.00
C63    C     0.21230   0.10380   0.86950   0.01267  Uiso   1.00
C64    C     0.33950   0.07080   0.89980   0.01267  Uiso   1.00
C65    C     0.11280   0.20500   0.80130   0.01267  Uiso   1.00
C66    C     0.39380   0.71840   0.90190   0.01267  Uiso   1.00
C67    C     0.56500   0.72380   0.87840   0.01267  Uiso   1.00
C68    C     0.66560   0.64360   0.84980   0.01267  Uiso   1.00
C69    C     0.59490   0.55820   0.84460   0.01267  Uiso   1.00
C70    C     0.42350   0.55300   0.86810   0.01267  Uiso   1.00
C71    C     0.32310   0.63300   0.89670   0.01267  Uiso   1.00
C72    C     0.69170   0.47260   0.81120   0.01267  Uiso   1.00
C73    C     0.03280   0.86160   0.58160   0.01267  Uiso   1.00
C74    C     0.11650   0.84880   0.62230   0.01267  Uiso   1.00
C75    C     0.21710   0.91660   0.62240   0.01267  Uiso   1.00
C76    C     0.20210   0.97720   0.58320   0.01267  Uiso   1.00
C77    C     0.28860   0.05500   0.57130   0.01267  Uiso   1.00
C78    C     0.27380   0.11060   0.53200   0.01267  Uiso   1.00
C79    C     0.35840   0.19060   0.52030   0.01267  Uiso   1.00
C80    C     0.30100   0.23100   0.48180   0.01267  Uiso   1.00
C81    C     0.18210   0.17260   0.46910   0.01267  Uiso   1.00
C82    C     0.91410   0.80660   0.56950   0.01267  Uiso   1.00
C83    C     0.39290   0.08940   0.60500   0.01267  Uiso   1.00
C84    C     0.29190   0.14360   0.64170   0.01267  Uiso   1.00
C85    C     0.38640   0.17680   0.67190   0.01267  Uiso   1.00
C86    C     0.58310   0.15920   0.66640   0.01267  Uiso   1.00
C87    C     0.68390   0.10380   0.63050   0.01267  Uiso   1.00
C88    C     0.58970   0.07080   0.60020   0.01267  Uiso   1.00
C89    C     0.68220   0.20500   0.69870   0.01267  Uiso   1.00
C90    C     0.88780   0.71840   0.59810   0.01267  Uiso   1.00
C91    C     0.71120   0.72380   0.62160   0.01267  Uiso   1.00
C92    C     0.69080   0.64360   0.65020   0.01267  Uiso   1.00
C93    C     0.84690   0.55820   0.65540   0.01267  Uiso   1.00
C94    C     0.02350   0.55300   0.63190   0.01267  Uiso   1.00
C95    C     0.04390   0.63300   0.60330   0.01267  Uiso   1.00
C96    C     0.83570   0.47260   0.68880   0.01267  Uiso   1.00
N1     N     0.02580   0.05900   0.05850   0.01267  Uiso   1.00
N2     N     0.26310   0.90040   0.99970   0.01267  Uiso   1.00
N3     N     0.91520   0.05900   0.44150   0.01267  Uiso   1.00
N4     N     0.83650   0.90040   0.50030   0.01267  Uiso   1.00
N5     N     0.97420   0.94100   0.94150   0.01267  Uiso   1.00
N6     N     0.73690   0.09960   0.00030   0.01267  Uiso   1.00
N7     N     0.08480   0.94100   0.55850   0.01267  Uiso   1.00
N8     N     0.16350   0.09960   0.49970   0.01267  Uiso   1.00
O1     O     0.84630   0.73720   0.22808   0.01267  Uiso   1.00
O2     O     0.04340   0.81620   0.19430   0.01267  Uiso   1.00
O3     O     0.14900   0.52800   0.20220   0.01267  Uiso   1.00
O4     O     0.39970   0.59460   0.19610   0.01267  Uiso   1.00
O5     O     0.41650   0.73720   0.27192   0.01267  Uiso   1.00
O6     O     0.14040   0.81620   0.30570   0.01267  Uiso   1.00
O7     O     0.32300   0.52800   0.29780   0.01267  Uiso   1.00
O8     O     0.00570   0.59460   0.30390   0.01267  Uiso   1.00
O9     O     0.15370   0.26280   0.77192   0.01267  Uiso   1.00
O10    O     0.95660   0.18380   0.80570   0.01267  Uiso   1.00
O11    O     0.85100   0.47200   0.79780   0.01267  Uiso   1.00
O12    O     0.60030   0.40540   0.80390   0.01267  Uiso   1.00
O13    O     0.58350   0.26280   0.72808   0.01267  Uiso   1.00
O14    O     0.85960   0.18380   0.69430   0.01267  Uiso   1.00
O15    O     0.67700   0.47200   0.70220   0.01267  Uiso   1.00
O16    O     0.99430   0.40540   0.69610   0.01267  Uiso   1.00
