data_OQESEJ_clean
_audit_creation_date              2014-07-02
_audit_creation_method            'Materials Studio'
_symmetry_space_group_name_H-M    'P1'
_symmetry_Int_Tables_number       1
_symmetry_cell_setting            triclinic
loop_
_symmetry_equiv_pos_as_xyz
  x,y,z
_cell_length_a                    7.2751
_cell_length_b                    13.3023
_cell_length_c                    30.7749
_cell_angle_alpha                 88.2321
_cell_angle_beta                  83.5221
_cell_angle_gamma                 74.1302
loop_
_atom_site_label
_atom_site_type_symbol
_atom_site_fract_x
_atom_site_fract_y
_atom_site_fract_z
_atom_site_U_iso_or_equiv
_atom_site_adp_type
_atom_site_occupancy
Cd1    Cd    0.15573   0.68854   0.25000   0.01267  Uiso   1.00
Cd2    Cd    0.84427   0.31146   0.75000   0.01267  Uiso   1.00
H1     H     0.89750   0.19760   0.14430   0.01267  Uiso   1.00
H2     H     0.20380   0.07460   0.14560   0.01267  Uiso   1.00
H3     H     0.65130   0.78240   0.03820   0.01267  Uiso   1.00
H4     H     0.62280   0.71500   0.96430   0.01267  Uiso   1.00
H5     H     0.31730   0.83560   0.14440   0.01267  Uiso   1.00
H6     H     0.53120   0.78000   0.19580   0.01267  Uiso   1.00
H7     H     0.90050   0.91620   0.12850   0.01267  Uiso   1.00
H8     H     0.69450   0.96880   0.07600   0.01267  Uiso   1.00
H9     H     0.38850   0.21400   0.11960   0.01267  Uiso   1.00
H10    H     0.21090   0.34760   0.16640   0.01267  Uiso   1.00
H11    H     0.60140   0.50820   0.13490   0.01267  Uiso   1.00
H12    H     0.77890   0.37480   0.08810   0.01267  Uiso   1.00
H13    H     0.90490   0.19760   0.35570   0.01267  Uiso   1.00
H14    H     0.72160   0.07460   0.35440   0.01267  Uiso   1.00
H15    H     0.56630   0.78240   0.46180   0.01267  Uiso   1.00
H16    H     0.66220   0.71500   0.53570   0.01267  Uiso   1.00
H17    H     0.84710   0.83560   0.35560   0.01267  Uiso   1.00
H18    H     0.68880   0.78000   0.30420   0.01267  Uiso   1.00
H19    H     0.18330   0.91620   0.37150   0.01267  Uiso   1.00
H20    H     0.33670   0.96880   0.42400   0.01267  Uiso   1.00
H21    H     0.39750   0.21400   0.38040   0.01267  Uiso   1.00
H22    H     0.44150   0.34760   0.33360   0.01267  Uiso   1.00
H23    H     0.89040   0.50820   0.36510   0.01267  Uiso   1.00
H24    H     0.84630   0.37480   0.41190   0.01267  Uiso   1.00
H25    H     0.10250   0.80240   0.85570   0.01267  Uiso   1.00
H26    H     0.79620   0.92540   0.85440   0.01267  Uiso   1.00
H27    H     0.34870   0.21760   0.96180   0.01267  Uiso   1.00
H28    H     0.37720   0.28500   0.03570   0.01267  Uiso   1.00
H29    H     0.68270   0.16440   0.85560   0.01267  Uiso   1.00
H30    H     0.46880   0.22000   0.80420   0.01267  Uiso   1.00
H31    H     0.09950   0.08380   0.87150   0.01267  Uiso   1.00
H32    H     0.30550   0.03120   0.92400   0.01267  Uiso   1.00
H33    H     0.61150   0.78600   0.88040   0.01267  Uiso   1.00
H34    H     0.78910   0.65240   0.83360   0.01267  Uiso   1.00
H35    H     0.39860   0.49180   0.86510   0.01267  Uiso   1.00
H36    H     0.22110   0.62520   0.91190   0.01267  Uiso   1.00
H37    H     0.09510   0.80240   0.64430   0.01267  Uiso   1.00
H38    H     0.27840   0.92540   0.64560   0.01267  Uiso   1.00
H39    H     0.43370   0.21760   0.53820   0.01267  Uiso   1.00
H40    H     0.33780   0.28500   0.46430   0.01267  Uiso   1.00
H41    H     0.15290   0.16440   0.64440   0.01267  Uiso   1.00
H42    H     0.31120   0.22000   0.69580   0.01267  Uiso   1.00
H43    H     0.81670   0.08380   0.62850   0.01267  Uiso   1.00
H44    H     0.66330   0.03120   0.57600   0.01267  Uiso   1.00
H45    H     0.60250   0.78600   0.61960   0.01267  Uiso   1.00
H46    H     0.55850   0.65240   0.66640   0.01267  Uiso   1.00
H47    H     0.10960   0.49180   0.63490   0.01267  Uiso   1.00
H48    H     0.15370   0.62520   0.58810   0.01267  Uiso   1.00
Pd1    Pd    0.00000   0.00000   0.00000   0.01267  Uiso   1.00
Pd2    Pd    0.00000   0.00000   0.50000   0.01267  Uiso   1.00
C1     C     0.89440   0.13500   0.08160   0.01267  Uiso   1.00
C2     C     0.96120   0.14960   0.12250   0.01267  Uiso   1.00
C3     C     0.12700   0.08200   0.12290   0.01267  Uiso   1.00
C4     C     0.17890   0.01880   0.08330   0.01267  Uiso   1.00
C5     C     0.34330   0.94100   0.07140   0.01267  Uiso   1.00
C6     C     0.38270   0.88900   0.03320   0.01267  Uiso   1.00
C7     C     0.54860   0.80680   0.02160   0.01267  Uiso   1.00
C8     C     0.53220   0.76760   0.98040   0.01267  Uiso   1.00
C9     C     0.35280   0.82420   0.96880   0.01267  Uiso   1.00
C10    C     0.71970   0.19360   0.06880   0.01267  Uiso   1.00
C11    C     0.48190   0.91060   0.10540   0.01267  Uiso   1.00
C12    C     0.43470   0.85180   0.14120   0.01267  Uiso   1.00
C13    C     0.56340   0.81800   0.17160   0.01267  Uiso   1.00
C14    C     0.74170   0.84000   0.16660   0.01267  Uiso   1.00
C15    C     0.78450   0.89860   0.13130   0.01267  Uiso   1.00
C16    C     0.66010   0.93200   0.10030   0.01267  Uiso   1.00
C17    C     0.88380   0.79340   0.19870   0.01267  Uiso   1.00
C18    C     0.60140   0.28120   0.09920   0.01267  Uiso   1.00
C19    C     0.43110   0.27300   0.12270   0.01267  Uiso   1.00
C20    C     0.32450   0.35300   0.15070   0.01267  Uiso   1.00
C21    C     0.38840   0.44120   0.15530   0.01267  Uiso   1.00
C22    C     0.55830   0.44940   0.13180   0.01267  Uiso   1.00
C23    C     0.66540   0.36920   0.10380   0.01267  Uiso   1.00
C24    C     0.28560   0.52680   0.18910   0.01267  Uiso   1.00
C25    C     0.97060   0.13500   0.41840   0.01267  Uiso   1.00
C26    C     0.88920   0.14960   0.37750   0.01267  Uiso   1.00
C27    C     0.79100   0.08200   0.37710   0.01267  Uiso   1.00
C28    C     0.80230   0.01880   0.41670   0.01267  Uiso   1.00
C29    C     0.71570   0.94100   0.42860   0.01267  Uiso   1.00
C30    C     0.72830   0.88900   0.46680   0.01267  Uiso   1.00
C31    C     0.64460   0.80680   0.47840   0.01267  Uiso   1.00
C32    C     0.70020   0.76760   0.51960   0.01267  Uiso   1.00
C33    C     0.82300   0.82420   0.53120   0.01267  Uiso   1.00
C34    C     0.08670   0.19360   0.43120   0.01267  Uiso   1.00
C35    C     0.60750   0.91060   0.39460   0.01267  Uiso   1.00
C36    C     0.71350   0.85180   0.35880   0.01267  Uiso   1.00
C37    C     0.61860   0.81800   0.32840   0.01267  Uiso   1.00
C38    C     0.41830   0.84000   0.33340   0.01267  Uiso   1.00
C39    C     0.31690   0.89860   0.36870   0.01267  Uiso   1.00
C40    C     0.40790   0.93200   0.39970   0.01267  Uiso   1.00
C41    C     0.32280   0.79340   0.30130   0.01267  Uiso   1.00
C42    C     0.11740   0.28120   0.40080   0.01267  Uiso   1.00
C43    C     0.29590   0.27300   0.37730   0.01267  Uiso   1.00
C44    C     0.32250   0.35300   0.34930   0.01267  Uiso   1.00
C45    C     0.17040   0.44120   0.34470   0.01267  Uiso   1.00
C46    C     0.99230   0.44940   0.36820   0.01267  Uiso   1.00
C47    C     0.96540   0.36920   0.39620   0.01267  Uiso   1.00
C48    C     0.18760   0.52680   0.31090   0.01267  Uiso   1.00
C49    C     0.10560   0.86500   0.91840   0.01267  Uiso   1.00
C50    C     0.03880   0.85040   0.87750   0.01267  Uiso   1.00
C51    C     0.87300   0.91800   0.87710   0.01267  Uiso   1.00
C52    C     0.82110   0.98120   0.91670   0.01267  Uiso   1.00
C53    C     0.65670   0.05900   0.92860   0.01267  Uiso   1.00
C54    C     0.61730   0.11100   0.96680   0.01267  Uiso   1.00
C55    C     0.45140   0.19320   0.97840   0.01267  Uiso   1.00
C56    C     0.46780   0.23240   0.01960   0.01267  Uiso   1.00
C57    C     0.64720   0.17580   0.03120   0.01267  Uiso   1.00
C58    C     0.28030   0.80640   0.93120   0.01267  Uiso   1.00
C59    C     0.51810   0.08940   0.89460   0.01267  Uiso   1.00
C60    C     0.56530   0.14820   0.85880   0.01267  Uiso   1.00
C61    C     0.43660   0.18200   0.82840   0.01267  Uiso   1.00
C62    C     0.25830   0.16000   0.83340   0.01267  Uiso   1.00
C63    C     0.21550   0.10140   0.86870   0.01267  Uiso   1.00
C64    C     0.33990   0.06800   0.89970   0.01267  Uiso   1.00
C65    C     0.11620   0.20660   0.80130   0.01267  Uiso   1.00
C66    C     0.39860   0.71880   0.90080   0.01267  Uiso   1.00
C67    C     0.56890   0.72700   0.87730   0.01267  Uiso   1.00
C68    C     0.67550   0.64700   0.84930   0.01267  Uiso   1.00
C69    C     0.61160   0.55880   0.84470   0.01267  Uiso   1.00
C70    C     0.44170   0.55060   0.86820   0.01267  Uiso   1.00
C71    C     0.33460   0.63080   0.89620   0.01267  Uiso   1.00
C72    C     0.71440   0.47320   0.81090   0.01267  Uiso   1.00
C73    C     0.02940   0.86500   0.58160   0.01267  Uiso   1.00
C74    C     0.11080   0.85040   0.62250   0.01267  Uiso   1.00
C75    C     0.20900   0.91800   0.62290   0.01267  Uiso   1.00
C76    C     0.19770   0.98120   0.58330   0.01267  Uiso   1.00
C77    C     0.28430   0.05900   0.57140   0.01267  Uiso   1.00
C78    C     0.27170   0.11100   0.53320   0.01267  Uiso   1.00
C79    C     0.35540   0.19320   0.52160   0.01267  Uiso   1.00
C80    C     0.29980   0.23240   0.48040   0.01267  Uiso   1.00
C81    C     0.17700   0.17580   0.46880   0.01267  Uiso   1.00
C82    C     0.91330   0.80640   0.56880   0.01267  Uiso   1.00
C83    C     0.39250   0.08940   0.60540   0.01267  Uiso   1.00
C84    C     0.28650   0.14820   0.64120   0.01267  Uiso   1.00
C85    C     0.38140   0.18200   0.67160   0.01267  Uiso   1.00
C86    C     0.58170   0.16000   0.66660   0.01267  Uiso   1.00
C87    C     0.68310   0.10140   0.63130   0.01267  Uiso   1.00
C88    C     0.59210   0.06800   0.60030   0.01267  Uiso   1.00
C89    C     0.67720   0.20660   0.69870   0.01267  Uiso   1.00
C90    C     0.88260   0.71880   0.59920   0.01267  Uiso   1.00
C91    C     0.70410   0.72700   0.62270   0.01267  Uiso   1.00
C92    C     0.67750   0.64700   0.65070   0.01267  Uiso   1.00
C93    C     0.82960   0.55880   0.65530   0.01267  Uiso   1.00
C94    C     0.00770   0.55060   0.63180   0.01267  Uiso   1.00
C95    C     0.03460   0.63080   0.60380   0.01267  Uiso   1.00
C96    C     0.81240   0.47320   0.68910   0.01267  Uiso   1.00
N1     N     0.02480   0.05680   0.05880   0.01267  Uiso   1.00
N2     N     0.25910   0.90080   0.99990   0.01267  Uiso   1.00
N3     N     0.91840   0.05680   0.44120   0.01267  Uiso   1.00
N4     N     0.84010   0.90080   0.50010   0.01267  Uiso   1.00
N5     N     0.97520   0.94320   0.94120   0.01267  Uiso   1.00
N6     N     0.74090   0.09920   0.00010   0.01267  Uiso   1.00
N7     N     0.08160   0.94320   0.55880   0.01267  Uiso   1.00
N8     N     0.15990   0.09920   0.49990   0.01267  Uiso   1.00
O1     O     0.42030   0.73380   0.27220   0.01267  Uiso   1.00
O2     O     0.04200   0.81580   0.19410   0.01267  Uiso   1.00
O3     O     0.12990   0.51820   0.20270   0.01267  Uiso   1.00
O4     O     0.38800   0.59000   0.19340   0.01267  Uiso   1.00
O5     O     0.84590   0.73380   0.22780   0.01267  Uiso   1.00
O6     O     0.14220   0.81580   0.30590   0.01267  Uiso   1.00
O7     O     0.35190   0.51820   0.29730   0.01267  Uiso   1.00
O8     O     0.02200   0.59000   0.30660   0.01267  Uiso   1.00
O9     O     0.57970   0.26620   0.72780   0.01267  Uiso   1.00
O10    O     0.95800   0.18420   0.80590   0.01267  Uiso   1.00
O11    O     0.87010   0.48180   0.79730   0.01267  Uiso   1.00
O12    O     0.61200   0.41000   0.80660   0.01267  Uiso   1.00
O13    O     0.15410   0.26620   0.77220   0.01267  Uiso   1.00
O14    O     0.85780   0.18420   0.69410   0.01267  Uiso   1.00
O15    O     0.64810   0.48180   0.70270   0.01267  Uiso   1.00
O16    O     0.97800   0.41000   0.69340   0.01267  Uiso   1.00
