data_OQESAF_clean
_audit_creation_date              2014-07-02
_audit_creation_method            'Materials Studio'
_symmetry_space_group_name_H-M    'P1'
_symmetry_Int_Tables_number       1
_symmetry_cell_setting            triclinic
loop_
_symmetry_equiv_pos_as_xyz
  x,y,z
_cell_length_a                    7.1564
_cell_length_b                    13.0405
_cell_length_c                    31.1920
_cell_angle_alpha                 88.2781
_cell_angle_beta                  83.7130
_cell_angle_gamma                 74.0743
loop_
_atom_site_label
_atom_site_type_symbol
_atom_site_fract_x
_atom_site_fract_y
_atom_site_fract_z
_atom_site_U_iso_or_equiv
_atom_site_adp_type
_atom_site_occupancy
Cd1    Cd    0.59868   0.80264   0.25000   0.01267  Uiso   1.00
Cd2    Cd    0.40132   0.19736   0.75000   0.01267  Uiso   1.00
H1     H     0.95500   0.28780   0.13950   0.01267  Uiso   1.00
H2     H     0.64900   0.42580   0.14220   0.01267  Uiso   1.00
H3     H     0.30820   0.72460   0.03800   0.01267  Uiso   1.00
H4     H     0.40060   0.80020   0.96770   0.01267  Uiso   1.00
H5     H     0.54090   0.66340   0.14410   0.01267  Uiso   1.00
H6     H     0.27510   0.72500   0.19340   0.01267  Uiso   1.00
H7     H     0.96900   0.57800   0.12890   0.01267  Uiso   1.00
H8     H     0.23570   0.53020   0.07690   0.01267  Uiso   1.00
H9     H     0.49610   0.27660   0.11800   0.01267  Uiso   1.00
H10    H     0.61980   0.14440   0.16680   0.01267  Uiso   1.00
H11    H     0.25810   0.97920   0.13420   0.01267  Uiso   1.00
H12    H     0.13450   0.11140   0.08530   0.01267  Uiso   1.00
H13    H     0.75720   0.28780   0.36050   0.01267  Uiso   1.00
H14    H     0.92520   0.42580   0.35780   0.01267  Uiso   1.00
H15    H     0.96720   0.72460   0.46200   0.01267  Uiso   1.00
H16    H     0.79920   0.80020   0.53230   0.01267  Uiso   1.00
H17    H     0.79570   0.66340   0.35590   0.01267  Uiso   1.00
H18    H     0.99990   0.72500   0.30660   0.01267  Uiso   1.00
H19    H     0.45300   0.57800   0.37110   0.01267  Uiso   1.00
H20    H     0.23410   0.53020   0.42310   0.01267  Uiso   1.00
H21    H     0.22730   0.27660   0.38200   0.01267  Uiso   1.00
H22    H     0.23580   0.14440   0.33320   0.01267  Uiso   1.00
H23    H     0.76270   0.97920   0.36580   0.01267  Uiso   1.00
H24    H     0.75410   0.11140   0.41470   0.01267  Uiso   1.00
H25    H     0.04500   0.71220   0.86050   0.01267  Uiso   1.00
H26    H     0.35100   0.57420   0.85780   0.01267  Uiso   1.00
H27    H     0.69180   0.27540   0.96200   0.01267  Uiso   1.00
H28    H     0.59940   0.19980   0.03230   0.01267  Uiso   1.00
H29    H     0.45910   0.33660   0.85590   0.01267  Uiso   1.00
H30    H     0.72490   0.27500   0.80660   0.01267  Uiso   1.00
H31    H     0.03100   0.42200   0.87110   0.01267  Uiso   1.00
H32    H     0.76430   0.46980   0.92310   0.01267  Uiso   1.00
H33    H     0.50390   0.72340   0.88200   0.01267  Uiso   1.00
H34    H     0.38020   0.85560   0.83320   0.01267  Uiso   1.00
H35    H     0.74190   0.02080   0.86580   0.01267  Uiso   1.00
H36    H     0.86550   0.88860   0.91470   0.01267  Uiso   1.00
H37    H     0.24280   0.71220   0.63950   0.01267  Uiso   1.00
H38    H     0.07480   0.57420   0.64220   0.01267  Uiso   1.00
H39    H     0.03280   0.27540   0.53800   0.01267  Uiso   1.00
H40    H     0.20080   0.19980   0.46770   0.01267  Uiso   1.00
H41    H     0.20430   0.33660   0.64410   0.01267  Uiso   1.00
H42    H     0.00010   0.27500   0.69340   0.01267  Uiso   1.00
H43    H     0.54700   0.42200   0.62890   0.01267  Uiso   1.00
H44    H     0.76590   0.46980   0.57690   0.01267  Uiso   1.00
H45    H     0.77270   0.72340   0.61800   0.01267  Uiso   1.00
H46    H     0.76420   0.85560   0.66680   0.01267  Uiso   1.00
H47    H     0.23730   0.02080   0.63420   0.01267  Uiso   1.00
H48    H     0.24590   0.88860   0.58530   0.01267  Uiso   1.00
Pd1    Pd    0.00000   0.50000   1.00000   0.01267  Uiso   1.00
Pd2    Pd    0.50000   0.50000   0.50000   0.01267  Uiso   1.00
C1     C     0.02780   0.35640   0.07940   0.01267  Uiso   1.00
C2     C     0.91690   0.34020   0.11890   0.01267  Uiso   1.00
C3     C     0.74910   0.41580   0.11970   0.01267  Uiso   1.00
C4     C     0.74170   0.47860   0.08220   0.01267  Uiso   1.00
C5     C     0.58840   0.56020   0.07050   0.01267  Uiso   1.00
C6     C     0.58350   0.61700   0.03310   0.01267  Uiso   1.00
C7     C     0.42850   0.70100   0.02150   0.01267  Uiso   1.00
C8     C     0.47720   0.74360   0.98240   0.01267  Uiso   1.00
C9     C     0.67500   0.68000   0.96920   0.01267  Uiso   1.00
C10    C     0.21690   0.30020   0.06710   0.01267  Uiso   1.00
C11    C     0.41000   0.59420   0.10350   0.01267  Uiso   1.00
C12    C     0.42320   0.64960   0.14010   0.01267  Uiso   1.00
C13    C     0.26490   0.68420   0.17020   0.01267  Uiso   1.00
C14    C     0.09750   0.66100   0.16690   0.01267  Uiso   1.00
C15    C     0.08180   0.59840   0.13140   0.01267  Uiso   1.00
C16    C     0.24440   0.56920   0.10070   0.01267  Uiso   1.00
C17    C     0.92450   0.69700   0.19860   0.01267  Uiso   1.00
C18    C     0.30340   0.20720   0.09680   0.01267  Uiso   1.00
C19    C     0.44850   0.21700   0.12120   0.01267  Uiso   1.00
C20    C     0.52210   0.13780   0.15050   0.01267  Uiso   1.00
C21    C     0.45170   0.04860   0.15530   0.01267  Uiso   1.00
C22    C     0.30560   0.03880   0.13090   0.01267  Uiso   1.00
C23    C     0.23200   0.11800   0.10170   0.01267  Uiso   1.00
C24    C     0.51820   0.95960   0.18850   0.01267  Uiso   1.00
C25    C     0.61580   0.35640   0.42060   0.01267  Uiso   1.00
C26    C     0.74290   0.34020   0.38110   0.01267  Uiso   1.00
C27    C     0.83510   0.41580   0.38030   0.01267  Uiso   1.00
C28    C     0.77970   0.47860   0.41780   0.01267  Uiso   1.00
C29    C     0.85140   0.56020   0.42950   0.01267  Uiso   1.00
C30    C     0.79950   0.61700   0.46690   0.01267  Uiso   1.00
C31    C     0.87050   0.70100   0.47850   0.01267  Uiso   1.00
C32    C     0.77920   0.74360   0.51760   0.01267  Uiso   1.00
C33    C     0.64500   0.68000   0.53080   0.01267  Uiso   1.00
C34    C     0.48290   0.30020   0.43290   0.01267  Uiso   1.00
C35    C     0.99580   0.59420   0.39650   0.01267  Uiso   1.00
C36    C     0.92720   0.64960   0.35990   0.01267  Uiso   1.00
C37    C     0.05090   0.68420   0.32980   0.01267  Uiso   1.00
C38    C     0.24150   0.66100   0.33310   0.01267  Uiso   1.00
C39    C     0.31980   0.59840   0.36860   0.01267  Uiso   1.00
C40    C     0.18640   0.56920   0.39930   0.01267  Uiso   1.00
C41    C     0.37850   0.69700   0.30140   0.01267  Uiso   1.00
C42    C     0.48940   0.20720   0.40320   0.01267  Uiso   1.00
C43    C     0.33450   0.21700   0.37880   0.01267  Uiso   1.00
C44    C     0.34010   0.13780   0.34950   0.01267  Uiso   1.00
C45    C     0.49970   0.04860   0.34470   0.01267  Uiso   1.00
C46    C     0.65560   0.03880   0.36910   0.01267  Uiso   1.00
C47    C     0.65000   0.11800   0.39830   0.01267  Uiso   1.00
C48    C     0.52220   0.95960   0.31150   0.01267  Uiso   1.00
C49    C     0.97220   0.64360   0.92060   0.01267  Uiso   1.00
C50    C     0.08310   0.65980   0.88110   0.01267  Uiso   1.00
C51    C     0.25090   0.58420   0.88030   0.01267  Uiso   1.00
C52    C     0.25830   0.52140   0.91780   0.01267  Uiso   1.00
C53    C     0.41160   0.43980   0.92950   0.01267  Uiso   1.00
C54    C     0.41650   0.38300   0.96690   0.01267  Uiso   1.00
C55    C     0.57150   0.29900   0.97850   0.01267  Uiso   1.00
C56    C     0.52280   0.25640   0.01760   0.01267  Uiso   1.00
C57    C     0.32500   0.32000   0.03080   0.01267  Uiso   1.00
C58    C     0.78310   0.69980   0.93290   0.01267  Uiso   1.00
C59    C     0.59000   0.40580   0.89650   0.01267  Uiso   1.00
C60    C     0.57680   0.35040   0.85990   0.01267  Uiso   1.00
C61    C     0.73510   0.31580   0.82980   0.01267  Uiso   1.00
C62    C     0.90250   0.33900   0.83310   0.01267  Uiso   1.00
C63    C     0.91820   0.40160   0.86860   0.01267  Uiso   1.00
C64    C     0.75560   0.43080   0.89930   0.01267  Uiso   1.00
C65    C     0.07550   0.30300   0.80140   0.01267  Uiso   1.00
C66    C     0.69660   0.79280   0.90320   0.01267  Uiso   1.00
C67    C     0.55150   0.78300   0.87880   0.01267  Uiso   1.00
C68    C     0.47790   0.86220   0.84950   0.01267  Uiso   1.00
C69    C     0.54830   0.95140   0.84470   0.01267  Uiso   1.00
C70    C     0.69440   0.96120   0.86910   0.01267  Uiso   1.00
C71    C     0.76800   0.88200   0.89830   0.01267  Uiso   1.00
C72    C     0.48180   0.04040   0.81150   0.01267  Uiso   1.00
C73    C     0.38420   0.64360   0.57940   0.01267  Uiso   1.00
C74    C     0.25710   0.65980   0.61890   0.01267  Uiso   1.00
C75    C     0.16490   0.58420   0.61970   0.01267  Uiso   1.00
C76    C     0.22030   0.52140   0.58220   0.01267  Uiso   1.00
C77    C     0.14860   0.43980   0.57050   0.01267  Uiso   1.00
C78    C     0.20050   0.38300   0.53310   0.01267  Uiso   1.00
C79    C     0.12950   0.29900   0.52150   0.01267  Uiso   1.00
C80    C     0.22080   0.25640   0.48240   0.01267  Uiso   1.00
C81    C     0.35500   0.32000   0.46920   0.01267  Uiso   1.00
C82    C     0.51710   0.69980   0.56710   0.01267  Uiso   1.00
C83    C     0.00420   0.40580   0.60350   0.01267  Uiso   1.00
C84    C     0.07280   0.35040   0.64010   0.01267  Uiso   1.00
C85    C     0.94910   0.31580   0.67020   0.01267  Uiso   1.00
C86    C     0.75850   0.33900   0.66690   0.01267  Uiso   1.00
C87    C     0.68020   0.40160   0.63140   0.01267  Uiso   1.00
C88    C     0.81360   0.43080   0.60070   0.01267  Uiso   1.00
C89    C     0.62150   0.30300   0.69860   0.01267  Uiso   1.00
C90    C     0.51060   0.79280   0.59680   0.01267  Uiso   1.00
C91    C     0.66550   0.78300   0.62120   0.01267  Uiso   1.00
C92    C     0.65990   0.86220   0.65050   0.01267  Uiso   1.00
C93    C     0.50030   0.95140   0.65530   0.01267  Uiso   1.00
C94    C     0.34440   0.96120   0.63090   0.01267  Uiso   1.00
C95    C     0.35000   0.88200   0.60170   0.01267  Uiso   1.00
C96    C     0.47780   0.04040   0.68850   0.01267  Uiso   1.00
N1     N     0.91720   0.43720   0.05760   0.01267  Uiso   1.00
N2     N     0.74270   0.60160   0.00100   0.01267  Uiso   1.00
N3     N     0.64560   0.43720   0.44240   0.01267  Uiso   1.00
N4     N     0.65570   0.60160   0.49900   0.01267  Uiso   1.00
N5     N     0.08280   0.56280   0.94240   0.01267  Uiso   1.00
N6     N     0.25730   0.39840   0.99900   0.01267  Uiso   1.00
N7     N     0.35440   0.56280   0.55760   0.01267  Uiso   1.00
N8     N     0.34430   0.39840   0.50100   0.01267  Uiso   1.00
O1     O     0.93410   0.75840   0.22750   0.01267  Uiso   1.00
O2     O     0.77190   0.66980   0.19550   0.01267  Uiso   1.00
O3     O     0.66160   0.97280   0.20090   0.01267  Uiso   1.00
O4     O     0.41640   0.89320   0.19930   0.01267  Uiso   1.00
O5     O     0.30750   0.75840   0.27250   0.01267  Uiso   1.00
O6     O     0.55830   0.66980   0.30450   0.01267  Uiso   1.00
O7     O     0.36560   0.97280   0.29910   0.01267  Uiso   1.00
O8     O     0.69040   0.89320   0.30070   0.01267  Uiso   1.00
O9     O     0.06590   0.24160   0.77250   0.01267  Uiso   1.00
O10    O     0.22810   0.33020   0.80450   0.01267  Uiso   1.00
O11    O     0.33840   0.02720   0.79910   0.01267  Uiso   1.00
O12    O     0.58360   0.10680   0.80070   0.01267  Uiso   1.00
O13    O     0.69250   0.24160   0.72750   0.01267  Uiso   1.00
O14    O     0.44170   0.33020   0.69550   0.01267  Uiso   1.00
O15    O     0.63440   0.02720   0.70090   0.01267  Uiso   1.00
O16    O     0.30960   0.10680   0.69930   0.01267  Uiso   1.00
