data_image0
_cell_length_a       17.4095
_cell_length_b       10.1198
_cell_length_c       17.547
_cell_angle_alpha    90
_cell_angle_beta     90
_cell_angle_gamma    90

_symmetry_space_group_name_H-M    "P 1"
_symmetry_int_tables_number       1

loop_
  _symmetry_equiv_pos_as_xyz
  'x, y, z'

loop_
  _atom_site_label
  _atom_site_occupancy
  _atom_site_fract_x
  _atom_site_fract_y
  _atom_site_fract_z
  _atom_site_thermal_displace_type
  _atom_site_B_iso_or_equiv
  _atom_site_type_symbol
  Er1      1.0000 0.82147  0.87987  0.27263  Biso   1.000  Er
  Er2      1.0000 0.52092  0.84113  0.25839  Biso   1.000  Er
  O1       1.0000 0.92100  0.89510  0.19550  Biso   1.000  O
  O2       1.0000 0.08550  0.07230  0.86280  Biso   1.000  O
  O3       1.0000 0.74780  0.94900  0.16870  Biso   1.000  O
  O4       1.0000 0.69760  0.22010  0.86840  Biso   1.000  O
  O5       1.0000 0.71590  0.93720  0.33250  Biso   1.000  O
  C1       1.0000 0.67960  0.93220  0.15200  Biso   1.000  C
  O6       1.0000 0.62980  0.87970  0.19560  Biso   1.000  O
  O7       1.0000 0.59290  0.91190  0.36460  Biso   1.000  O
  C2       1.0000 0.66100  0.93830  0.37790  Biso   1.000  C
  C3       1.0000 0.68000  0.99430  0.45460  Biso   1.000  C
  C4       1.0000 0.74870  0.03910  0.48010  Biso   1.000  C
  H1       1.0000 0.79370  0.03470  0.45150  Biso   1.000  H
  C5       1.0000 0.65140  0.97460  0.07620  Biso   1.000  C
  S1       1.0000 0.70251  0.07890  0.01899  Biso   1.000  S
  O8       1.0000 0.57410  0.11550  0.67030  Biso   1.000  O
  C6       1.0000 0.63890  0.15430  0.87890  Biso   1.000  C
  O9       1.0000 0.69160  0.19070  0.70140  Biso   1.000  O
  O10      1.0000 0.58370  0.14720  0.83340  Biso   1.000  O
  C7       1.0000 0.64470  0.13340  0.65770  Biso   1.000  C
  S2       1.0000 0.60997  0.01570  0.52158  Biso   1.000  S
  S3       1.0000 0.04056  0.96230  0.01085  Biso   1.000  S
  O11      1.0000 0.03640  0.82390  0.16300  Biso   1.000  O
  C8       1.0000 0.58460  0.93430  0.04160  Biso   1.000  C
  H2       1.0000 0.55000  0.87540  0.06340  Biso   1.000  H
  C9       1.0000 0.96720  0.95470  0.07600  Biso   1.000  C
  C10      1.0000 0.57460  0.99270  0.96920  Biso   1.000  C
  H3       1.0000 0.53240  0.97710  0.93810  Biso   1.000  H
  C11      1.0000 0.63290  0.07330  0.95040  Biso   1.000  C
  C12      1.0000 0.97750  0.88890  0.14960  Biso   1.000  C
  C13      1.0000 0.90350  0.01700  0.05030  Biso   1.000  C
  H4       1.0000 0.85810  0.02330  0.07800  Biso   1.000  H
  C14      1.0000 0.67380  0.08830  0.58330  Biso   1.000  C
  C15      1.0000 0.74550  0.09240  0.55350  Biso   1.000  C
  H5       1.0000 0.78780  0.12680  0.57900  Biso   1.000  H
  O12      1.0000 0.97060  0.15320  0.82950  Biso   1.000  O
  C16      1.0000 0.98380  0.05030  0.94880  Biso   1.000  C
  C17      1.0000 0.91330  0.07120  0.97710  Biso   1.000  C
  H6       1.0000 0.87490  0.11660  0.95110  Biso   1.000  H
  C18      1.0000 0.01670  0.09520  0.87470  Biso   1.000  C
  Er3      1.0000 0.17853  0.12013  0.77263  Biso   1.000  Er
  Er4      1.0000 0.47908  0.15887  0.75839  Biso   1.000  Er
  O13      1.0000 0.07900  0.10490  0.69550  Biso   1.000  O
  O14      1.0000 0.91450  0.92770  0.36280  Biso   1.000  O
  O15      1.0000 0.25220  0.05100  0.66870  Biso   1.000  O
  O16      1.0000 0.30240  0.77990  0.36840  Biso   1.000  O
  O17      1.0000 0.28410  0.06280  0.83250  Biso   1.000  O
  C19      1.0000 0.32040  0.06780  0.65200  Biso   1.000  C
  O18      1.0000 0.37020  0.12030  0.69560  Biso   1.000  O
  O19      1.0000 0.40710  0.08810  0.86460  Biso   1.000  O
  C20      1.0000 0.33900  0.06170  0.87790  Biso   1.000  C
  C21      1.0000 0.32000  0.00570  0.95460  Biso   1.000  C
  C22      1.0000 0.25130  0.96090  0.98010  Biso   1.000  C
  H7       1.0000 0.20630  0.96530  0.95150  Biso   1.000  H
  C23      1.0000 0.34860  0.02540  0.57620  Biso   1.000  C
  S4       1.0000 0.29749  0.92110  0.51899  Biso   1.000  S
  O20      1.0000 0.42590  0.88450  0.17030  Biso   1.000  O
  C24      1.0000 0.36110  0.84570  0.37890  Biso   1.000  C
  O21      1.0000 0.30840  0.80930  0.20140  Biso   1.000  O
  O22      1.0000 0.41630  0.85280  0.33340  Biso   1.000  O
  C25      1.0000 0.35530  0.86660  0.15770  Biso   1.000  C
  S5       1.0000 0.39003  0.98430  0.02158  Biso   1.000  S
  S6       1.0000 0.95944  0.03770  0.51085  Biso   1.000  S
  O23      1.0000 0.96360  0.17610  0.66300  Biso   1.000  O
  C26      1.0000 0.41540  0.06570  0.54160  Biso   1.000  C
  H8       1.0000 0.45000  0.12460  0.56340  Biso   1.000  H
  C27      1.0000 0.03280  0.04530  0.57600  Biso   1.000  C
  C28      1.0000 0.42540  0.00730  0.46920  Biso   1.000  C
  H9       1.0000 0.46760  0.02290  0.43810  Biso   1.000  H
  C29      1.0000 0.36710  0.92670  0.45040  Biso   1.000  C
  C30      1.0000 0.02250  0.11110  0.64960  Biso   1.000  C
  C31      1.0000 0.09650  0.98300  0.55030  Biso   1.000  C
  H10      1.0000 0.14190  0.97670  0.57800  Biso   1.000  H
  C32      1.0000 0.32620  0.91170  0.08330  Biso   1.000  C
  C33      1.0000 0.25450  0.90760  0.05350  Biso   1.000  C
  H11      1.0000 0.21220  0.87320  0.07900  Biso   1.000  H
  O24      1.0000 0.02940  0.84680  0.32950  Biso   1.000  O
  C34      1.0000 0.01620  0.94970  0.44880  Biso   1.000  C
  C35      1.0000 0.08670  0.92880  0.47710  Biso   1.000  C
  H12      1.0000 0.12510  0.88340  0.45110  Biso   1.000  H
  C36      1.0000 0.98330  0.90480  0.37470  Biso   1.000  C
  Er5      1.0000 0.32147  0.62013  0.27263  Biso   1.000  Er
  Er6      1.0000 0.02092  0.65887  0.25839  Biso   1.000  Er
  O25      1.0000 0.42100  0.60490  0.19550  Biso   1.000  O
  O26      1.0000 0.58550  0.42770  0.86280  Biso   1.000  O
  O27      1.0000 0.24780  0.55100  0.16870  Biso   1.000  O
  O28      1.0000 0.19760  0.27990  0.86840  Biso   1.000  O
  O29      1.0000 0.21590  0.56280  0.33250  Biso   1.000  O
  C37      1.0000 0.17960  0.56780  0.15200  Biso   1.000  C
  O30      1.0000 0.12980  0.62030  0.19560  Biso   1.000  O
  O31      1.0000 0.09290  0.58810  0.36460  Biso   1.000  O
  C38      1.0000 0.16100  0.56170  0.37790  Biso   1.000  C
  C39      1.0000 0.18000  0.50570  0.45460  Biso   1.000  C
  C40      1.0000 0.24870  0.46090  0.48010  Biso   1.000  C
  H13      1.0000 0.29370  0.46530  0.45150  Biso   1.000  H
  C41      1.0000 0.15140  0.52540  0.07620  Biso   1.000  C
  S7       1.0000 0.20251  0.42110  0.01899  Biso   1.000  S
  O32      1.0000 0.07410  0.38450  0.67030  Biso   1.000  O
  C42      1.0000 0.13890  0.34570  0.87890  Biso   1.000  C
  O33      1.0000 0.19160  0.30930  0.70140  Biso   1.000  O
  O34      1.0000 0.08370  0.35280  0.83340  Biso   1.000  O
  C43      1.0000 0.14470  0.36660  0.65770  Biso   1.000  C
  S8       1.0000 0.10997  0.48430  0.52158  Biso   1.000  S
  S9       1.0000 0.54056  0.53770  0.01085  Biso   1.000  S
  O35      1.0000 0.53640  0.67610  0.16300  Biso   1.000  O
  C44      1.0000 0.08460  0.56570  0.04160  Biso   1.000  C
  H14      1.0000 0.05000  0.62460  0.06340  Biso   1.000  H
  C45      1.0000 0.46720  0.54530  0.07600  Biso   1.000  C
  C46      1.0000 0.07460  0.50730  0.96920  Biso   1.000  C
  H15      1.0000 0.03240  0.52290  0.93810  Biso   1.000  H
  C47      1.0000 0.13290  0.42670  0.95040  Biso   1.000  C
  C48      1.0000 0.47750  0.61110  0.14960  Biso   1.000  C
  C49      1.0000 0.40350  0.48300  0.05030  Biso   1.000  C
  H16      1.0000 0.35810  0.47670  0.07800  Biso   1.000  H
  C50      1.0000 0.17380  0.41170  0.58330  Biso   1.000  C
  C51      1.0000 0.24550  0.40760  0.55350  Biso   1.000  C
  H17      1.0000 0.28780  0.37320  0.57900  Biso   1.000  H
  O36      1.0000 0.47060  0.34680  0.82950  Biso   1.000  O
  C52      1.0000 0.48380  0.44970  0.94880  Biso   1.000  C
  C53      1.0000 0.41330  0.42880  0.97710  Biso   1.000  C
  H18      1.0000 0.37490  0.38340  0.95110  Biso   1.000  H
  C54      1.0000 0.51670  0.40480  0.87470  Biso   1.000  C
  Er7      1.0000 0.67854  0.37987  0.77263  Biso   1.000  Er
  Er8      1.0000 0.97908  0.34113  0.75839  Biso   1.000  Er
  O37      1.0000 0.57900  0.39510  0.69550  Biso   1.000  O
  O38      1.0000 0.41450  0.57230  0.36280  Biso   1.000  O
  O39      1.0000 0.75220  0.44900  0.66870  Biso   1.000  O
  O40      1.0000 0.80240  0.72010  0.36840  Biso   1.000  O
  O41      1.0000 0.78410  0.43720  0.83250  Biso   1.000  O
  C55      1.0000 0.82040  0.43220  0.65200  Biso   1.000  C
  O42      1.0000 0.87020  0.37970  0.69560  Biso   1.000  O
  O43      1.0000 0.90710  0.41190  0.86460  Biso   1.000  O
  C56      1.0000 0.83900  0.43830  0.87790  Biso   1.000  C
  C57      1.0000 0.82000  0.49430  0.95460  Biso   1.000  C
  C58      1.0000 0.75130  0.53910  0.98010  Biso   1.000  C
  H19      1.0000 0.70630  0.53470  0.95150  Biso   1.000  H
  C59      1.0000 0.84860  0.47460  0.57620  Biso   1.000  C
  S10      1.0000 0.79749  0.57890  0.51899  Biso   1.000  S
  O44      1.0000 0.92590  0.61550  0.17030  Biso   1.000  O
  C60      1.0000 0.86110  0.65430  0.37890  Biso   1.000  C
  O45      1.0000 0.80840  0.69070  0.20140  Biso   1.000  O
  O46      1.0000 0.91630  0.64720  0.33340  Biso   1.000  O
  C61      1.0000 0.85530  0.63340  0.15770  Biso   1.000  C
  S11      1.0000 0.89003  0.51570  0.02158  Biso   1.000  S
  S12      1.0000 0.45944  0.46230  0.51085  Biso   1.000  S
  O47      1.0000 0.46360  0.32390  0.66300  Biso   1.000  O
  C62      1.0000 0.91540  0.43430  0.54160  Biso   1.000  C
  H20      1.0000 0.95000  0.37540  0.56340  Biso   1.000  H
  C63      1.0000 0.53280  0.45470  0.57600  Biso   1.000  C
  C64      1.0000 0.92540  0.49270  0.46920  Biso   1.000  C
  H21      1.0000 0.96760  0.47710  0.43810  Biso   1.000  H
  C65      1.0000 0.86710  0.57330  0.45040  Biso   1.000  C
  C66      1.0000 0.52250  0.38890  0.64960  Biso   1.000  C
  C67      1.0000 0.59650  0.51700  0.55030  Biso   1.000  C
  H22      1.0000 0.64190  0.52330  0.57800  Biso   1.000  H
  C68      1.0000 0.82620  0.58830  0.08330  Biso   1.000  C
  C69      1.0000 0.75450  0.59240  0.05350  Biso   1.000  C
  H23      1.0000 0.71220  0.62680  0.07900  Biso   1.000  H
  O48      1.0000 0.52940  0.65320  0.32950  Biso   1.000  O
  C70      1.0000 0.51620  0.55030  0.44880  Biso   1.000  C
  C71      1.0000 0.58670  0.57120  0.47710  Biso   1.000  C
  H24      1.0000 0.62510  0.61660  0.45110  Biso   1.000  H
  C72      1.0000 0.48330  0.59520  0.37470  Biso   1.000  C
