data_image0
_cell_length_a       8.3104
_cell_length_b       12.4546
_cell_length_c       33.5852
_cell_angle_alpha    90
_cell_angle_beta     90
_cell_angle_gamma    90

_symmetry_space_group_name_H-M    "P 1"
_symmetry_int_tables_number       1

loop_
  _symmetry_equiv_pos_as_xyz
  'x, y, z'

loop_
  _atom_site_label
  _atom_site_occupancy
  _atom_site_fract_x
  _atom_site_fract_y
  _atom_site_fract_z
  _atom_site_thermal_displace_type
  _atom_site_B_iso_or_equiv
  _atom_site_type_symbol
  C1       1.0000 0.37060  0.57172  0.18486  Biso   1.000  C
  H1       1.0000 0.31570  0.52070  0.20340  Biso   1.000  H
  C2       1.0000 0.48880  0.50387  0.15928  Biso   1.000  C
  H2       1.0000 0.44500  0.43090  0.15500  Biso   1.000  H
  H3       1.0000 0.50570  0.53820  0.13300  Biso   1.000  H
  C3       1.0000 0.64910  0.49798  0.18251  Biso   1.000  C
  H4       1.0000 0.68220  0.42250  0.18690  Biso   1.000  H
  H5       1.0000 0.73590  0.53620  0.16810  Biso   1.000  H
  C4       1.0000 0.61040  0.55351  0.22202  Biso   1.000  C
  H6       1.0000 0.55050  0.49960  0.23830  Biso   1.000  H
  C5       1.0000 0.74970  0.59120  0.24768  Biso   1.000  C
  H7       1.0000 0.81090  0.64750  0.23280  Biso   1.000  H
  C6       1.0000 0.86370  0.49803  0.25728  Biso   1.000  C
  H8       1.0000 0.80040  0.43780  0.26840  Biso   1.000  H
  H9       1.0000 0.91440  0.47280  0.23230  Biso   1.000  H
  C7       1.0000 0.99550  0.52864  0.28682  Biso   1.000  C
  H10      1.0000 0.07110  0.57910  0.27380  Biso   1.000  H
  H11      1.0000 0.05660  0.46340  0.29420  Biso   1.000  H
  C8       1.0000 0.92830  0.58106  0.32468  Biso   1.000  C
  H12      1.0000 0.02220  0.60940  0.34000  Biso   1.000  H
  C9       1.0000 0.84400  0.49860  0.35126  Biso   1.000  C
  H13      1.0000 0.75600  0.46440  0.33600  Biso   1.000  H
  H14      1.0000 0.92200  0.44180  0.35850  Biso   1.000  H
  C10      1.0000 0.77480  0.54705  0.38911  Biso   1.000  C
  H15      1.0000 0.86510  0.57530  0.40580  Biso   1.000  H
  C11      1.0000 0.66090  0.63873  0.37943  Biso   1.000  C
  H16      1.0000 0.62150  0.67210  0.40430  Biso   1.000  H
  H17      1.0000 0.56700  0.61130  0.36440  Biso   1.000  H
  C12      1.0000 0.75090  0.72167  0.35454  Biso   1.000  C
  H18      1.0000 0.84130  0.75040  0.37050  Biso   1.000  H
  H19      1.0000 0.67720  0.78210  0.34870  Biso   1.000  H
  C13      1.0000 0.81810  0.67825  0.31491  Biso   1.000  C
  C14      1.0000 0.41970  0.68613  0.24983  Biso   1.000  C
  H20      1.0000 0.35820  0.62930  0.26370  Biso   1.000  H
  H21      1.0000 0.34490  0.74590  0.24390  Biso   1.000  H
  C15      1.0000 0.55440  0.72685  0.27730  Biso   1.000  C
  H22      1.0000 0.60720  0.78940  0.26460  Biso   1.000  H
  H23      1.0000 0.50620  0.75150  0.30270  Biso   1.000  H
  C16      1.0000 0.68210  0.64123  0.28635  Biso   1.000  C
  H24      1.0000 0.62440  0.58190  0.30050  Biso   1.000  H
  C17      1.0000 0.48630  0.64130  0.21077  Biso   1.000  C
  C18      1.0000 0.23830  0.62348  0.15934  Biso   1.000  C
  H25      1.0000 0.29110  0.66420  0.13730  Biso   1.000  H
  C19      1.0000 0.13670  0.53284  0.14079  Biso   1.000  C
  H26      1.0000 0.20980  0.48430  0.12600  Biso   1.000  H
  H27      1.0000 0.08780  0.49070  0.16270  Biso   1.000  H
  C20      1.0000 0.00250  0.56820  0.11257  Biso   1.000  C
  H28      1.0000 0.94120  0.50400  0.10410  Biso   1.000  H
  H29      1.0000 0.92760  0.61570  0.12730  Biso   1.000  H
  C21      1.0000 0.06170  0.62693  0.07582  Biso   1.000  C
  O1       1.0000 0.98675  0.71048  0.06578  Biso   1.000  O
  O2       1.0000 0.17957  0.58872  0.05707  Biso   1.000  O
  C22      1.0000 0.13130  0.70100  0.18253  Biso   1.000  C
  H30      1.0000 0.04450  0.72680  0.16520  Biso   1.000  H
  H31      1.0000 0.19570  0.76220  0.19170  Biso   1.000  H
  H32      1.0000 0.08500  0.66400  0.20560  Biso   1.000  H
  C23      1.0000 0.91870  0.76931  0.29625  Biso   1.000  C
  H33      1.0000 0.95970  0.74610  0.27030  Biso   1.000  H
  H34      1.0000 0.00920  0.78660  0.31380  Biso   1.000  H
  H35      1.0000 0.85100  0.83310  0.29280  Biso   1.000  H
  C24      1.0000 0.56000  0.73139  0.18535  Biso   1.000  C
  H36      1.0000 0.59640  0.70180  0.15990  Biso   1.000  H
  H37      1.0000 0.65180  0.76290  0.19950  Biso   1.000  H
  H38      1.0000 0.47880  0.78690  0.18050  Biso   1.000  H
  O3       1.0000 0.70074  0.45826  0.40955  Biso   1.000  O
  C25      1.0000 0.60960  0.48272  0.44352  Biso   1.000  C
  H39      1.0000 0.65170  0.55010  0.45590  Biso   1.000  H
  C26      1.0000 0.62600  0.39065  0.47276  Biso   1.000  C
  H40      1.0000 0.55610  0.40510  0.49640  Biso   1.000  H
  C27      1.0000 0.57050  0.28689  0.45282  Biso   1.000  C
  H41      1.0000 0.63570  0.27420  0.42820  Biso   1.000  H
  C28      1.0000 0.39490  0.30308  0.44141  Biso   1.000  C
  H42      1.0000 0.32870  0.31180  0.46610  Biso   1.000  H
  C29      1.0000 0.37690  0.40309  0.41523  Biso   1.000  C
  H43      1.0000 0.43340  0.39030  0.38940  Biso   1.000  H
  O4       1.0000 0.44446  0.49645  0.43384  Biso   1.000  O
  O5       1.0000 0.78769  0.38071  0.48566  Biso   1.000  O
  H44      1.0000 0.80230  0.41940  0.50580  Biso   1.000  H
  O6       1.0000 0.58729  0.19728  0.47900  Biso   1.000  O
  H45      1.0000 0.66850  0.16130  0.47240  Biso   1.000  H
  O7       1.0000 0.33769  0.21276  0.41928  Biso   1.000  O
  H46      1.0000 0.23910  0.20400  0.42370  Biso   1.000  H
  C30      1.0000 0.20230  0.42950  0.40690  Biso   1.000  C
  H47      1.0000 0.19680  0.49580  0.39070  Biso   1.000  H
  H48      1.0000 0.15370  0.37050  0.39120  Biso   1.000  H
  O8       1.0000 0.11176  0.44461  0.44245  Biso   1.000  O
  H49      1.0000 0.14470  0.49980  0.45430  Biso   1.000  H
  Li1      1.0000 0.00980  0.82870  0.03130  Biso   1.000  Li
  C31      1.0000 0.12940  0.42828  0.68486  Biso   1.000  C
  H50      1.0000 0.18430  0.47930  0.70340  Biso   1.000  H
  C32      1.0000 0.01120  0.49613  0.65928  Biso   1.000  C
  H51      1.0000 0.05500  0.56910  0.65500  Biso   1.000  H
  H52      1.0000 0.99430  0.46180  0.63300  Biso   1.000  H
  C33      1.0000 0.85090  0.50202  0.68251  Biso   1.000  C
  H53      1.0000 0.81780  0.57750  0.68690  Biso   1.000  H
  H54      1.0000 0.76410  0.46380  0.66810  Biso   1.000  H
  C34      1.0000 0.88960  0.44649  0.72202  Biso   1.000  C
  H55      1.0000 0.94950  0.50040  0.73830  Biso   1.000  H
  C35      1.0000 0.75030  0.40880  0.74768  Biso   1.000  C
  H56      1.0000 0.68910  0.35250  0.73280  Biso   1.000  H
  C36      1.0000 0.63630  0.50197  0.75728  Biso   1.000  C
  H57      1.0000 0.69960  0.56220  0.76840  Biso   1.000  H
  H58      1.0000 0.58560  0.52720  0.73230  Biso   1.000  H
  C37      1.0000 0.50450  0.47136  0.78682  Biso   1.000  C
  H59      1.0000 0.42890  0.42090  0.77380  Biso   1.000  H
  H60      1.0000 0.44340  0.53660  0.79420  Biso   1.000  H
  C38      1.0000 0.57170  0.41894  0.82468  Biso   1.000  C
  H61      1.0000 0.47780  0.39060  0.84000  Biso   1.000  H
  C39      1.0000 0.65600  0.50140  0.85126  Biso   1.000  C
  H62      1.0000 0.74400  0.53560  0.83600  Biso   1.000  H
  H63      1.0000 0.57800  0.55820  0.85850  Biso   1.000  H
  C40      1.0000 0.72520  0.45295  0.88911  Biso   1.000  C
  H64      1.0000 0.63490  0.42470  0.90580  Biso   1.000  H
  C41      1.0000 0.83910  0.36127  0.87943  Biso   1.000  C
  H65      1.0000 0.87850  0.32790  0.90430  Biso   1.000  H
  H66      1.0000 0.93300  0.38870  0.86440  Biso   1.000  H
  C42      1.0000 0.74910  0.27833  0.85454  Biso   1.000  C
  H67      1.0000 0.65870  0.24960  0.87050  Biso   1.000  H
  H68      1.0000 0.82280  0.21790  0.84870  Biso   1.000  H
  C43      1.0000 0.68190  0.32175  0.81491  Biso   1.000  C
  C44      1.0000 0.08030  0.31387  0.74983  Biso   1.000  C
  H69      1.0000 0.14180  0.37070  0.76370  Biso   1.000  H
  H70      1.0000 0.15510  0.25410  0.74390  Biso   1.000  H
  C45      1.0000 0.94560  0.27315  0.77730  Biso   1.000  C
  H71      1.0000 0.89280  0.21060  0.76460  Biso   1.000  H
  H72      1.0000 0.99380  0.24850  0.80270  Biso   1.000  H
  C46      1.0000 0.81790  0.35877  0.78635  Biso   1.000  C
  H73      1.0000 0.87560  0.41810  0.80050  Biso   1.000  H
  C47      1.0000 0.01370  0.35870  0.71077  Biso   1.000  C
  C48      1.0000 0.26170  0.37652  0.65934  Biso   1.000  C
  H74      1.0000 0.20890  0.33580  0.63730  Biso   1.000  H
  C49      1.0000 0.36330  0.46716  0.64079  Biso   1.000  C
  H75      1.0000 0.29020  0.51570  0.62600  Biso   1.000  H
  H76      1.0000 0.41220  0.50930  0.66270  Biso   1.000  H
  C50      1.0000 0.49750  0.43180  0.61257  Biso   1.000  C
  H77      1.0000 0.55880  0.49600  0.60410  Biso   1.000  H
  H78      1.0000 0.57240  0.38430  0.62730  Biso   1.000  H
  C51      1.0000 0.43830  0.37307  0.57582  Biso   1.000  C
  O9       1.0000 0.51325  0.28952  0.56578  Biso   1.000  O
  O10      1.0000 0.32043  0.41128  0.55707  Biso   1.000  O
  C52      1.0000 0.36870  0.29900  0.68253  Biso   1.000  C
  H79      1.0000 0.45550  0.27320  0.66520  Biso   1.000  H
  H80      1.0000 0.30430  0.23780  0.69170  Biso   1.000  H
  H81      1.0000 0.41500  0.33600  0.70560  Biso   1.000  H
  C53      1.0000 0.58130  0.23069  0.79625  Biso   1.000  C
  H82      1.0000 0.54030  0.25390  0.77030  Biso   1.000  H
  H83      1.0000 0.49080  0.21340  0.81380  Biso   1.000  H
  H84      1.0000 0.64900  0.16690  0.79280  Biso   1.000  H
  C54      1.0000 0.94000  0.26861  0.68535  Biso   1.000  C
  H85      1.0000 0.90360  0.29820  0.65990  Biso   1.000  H
  H86      1.0000 0.84820  0.23710  0.69950  Biso   1.000  H
  H87      1.0000 0.02120  0.21310  0.68050  Biso   1.000  H
  O11      1.0000 0.79926  0.54174  0.90955  Biso   1.000  O
  C55      1.0000 0.89040  0.51728  0.94352  Biso   1.000  C
  H88      1.0000 0.84830  0.44990  0.95590  Biso   1.000  H
  C56      1.0000 0.87400  0.60935  0.97276  Biso   1.000  C
  H89      1.0000 0.94390  0.59490  0.99640  Biso   1.000  H
  C57      1.0000 0.92950  0.71311  0.95282  Biso   1.000  C
  H90      1.0000 0.86430  0.72580  0.92820  Biso   1.000  H
  C58      1.0000 0.10510  0.69692  0.94141  Biso   1.000  C
  H91      1.0000 0.17130  0.68820  0.96610  Biso   1.000  H
  C59      1.0000 0.12310  0.59691  0.91523  Biso   1.000  C
  H92      1.0000 0.06660  0.60970  0.88940  Biso   1.000  H
  O12      1.0000 0.05554  0.50355  0.93384  Biso   1.000  O
  O13      1.0000 0.71231  0.61929  0.98566  Biso   1.000  O
  H93      1.0000 0.69770  0.58060  0.00580  Biso   1.000  H
  O14      1.0000 0.91271  0.80272  0.97900  Biso   1.000  O
  H94      1.0000 0.83150  0.83870  0.97240  Biso   1.000  H
  O15      1.0000 0.16231  0.78724  0.91928  Biso   1.000  O
  H95      1.0000 0.26090  0.79600  0.92370  Biso   1.000  H
  C60      1.0000 0.29770  0.57050  0.90690  Biso   1.000  C
  H96      1.0000 0.30320  0.50420  0.89070  Biso   1.000  H
  H97      1.0000 0.34630  0.62950  0.89120  Biso   1.000  H
  O16      1.0000 0.38824  0.55539  0.94245  Biso   1.000  O
  H98      1.0000 0.35530  0.50020  0.95430  Biso   1.000  H
  Li2      1.0000 0.49020  0.17130  0.53130  Biso   1.000  Li
  C61      1.0000 0.62940  0.07172  0.31514  Biso   1.000  C
  H99      1.0000 0.68430  0.02070  0.29660  Biso   1.000  H
  C62      1.0000 0.51120  0.00387  0.34072  Biso   1.000  C
  H100     1.0000 0.55500  0.93090  0.34500  Biso   1.000  H
  H101     1.0000 0.49430  0.03820  0.36700  Biso   1.000  H
  C63      1.0000 0.35090  0.99798  0.31749  Biso   1.000  C
  H102     1.0000 0.31780  0.92250  0.31310  Biso   1.000  H
  H103     1.0000 0.26410  0.03620  0.33190  Biso   1.000  H
  C64      1.0000 0.38960  0.05351  0.27798  Biso   1.000  C
  H104     1.0000 0.44950  0.99960  0.26170  Biso   1.000  H
  C65      1.0000 0.25030  0.09120  0.25232  Biso   1.000  C
  H105     1.0000 0.18910  0.14750  0.26720  Biso   1.000  H
  C66      1.0000 0.13630  0.99803  0.24272  Biso   1.000  C
  H106     1.0000 0.19960  0.93780  0.23160  Biso   1.000  H
  H107     1.0000 0.08560  0.97280  0.26770  Biso   1.000  H
  C67      1.0000 0.00450  0.02864  0.21318  Biso   1.000  C
  H108     1.0000 0.92890  0.07910  0.22620  Biso   1.000  H
  H109     1.0000 0.94340  0.96340  0.20580  Biso   1.000  H
  C68      1.0000 0.07170  0.08106  0.17532  Biso   1.000  C
  H110     1.0000 0.97780  0.10940  0.16000  Biso   1.000  H
  C69      1.0000 0.15600  0.99860  0.14874  Biso   1.000  C
  H111     1.0000 0.24400  0.96440  0.16400  Biso   1.000  H
  H112     1.0000 0.07800  0.94180  0.14150  Biso   1.000  H
  C70      1.0000 0.22520  0.04705  0.11089  Biso   1.000  C
  H113     1.0000 0.13490  0.07530  0.09420  Biso   1.000  H
  C71      1.0000 0.33910  0.13873  0.12057  Biso   1.000  C
  H114     1.0000 0.37850  0.17210  0.09570  Biso   1.000  H
  H115     1.0000 0.43300  0.11130  0.13560  Biso   1.000  H
  C72      1.0000 0.24910  0.22167  0.14546  Biso   1.000  C
  H116     1.0000 0.15870  0.25040  0.12950  Biso   1.000  H
  H117     1.0000 0.32280  0.28210  0.15130  Biso   1.000  H
  C73      1.0000 0.18190  0.17825  0.18509  Biso   1.000  C
  C74      1.0000 0.58030  0.18613  0.25017  Biso   1.000  C
  H118     1.0000 0.64180  0.12930  0.23630  Biso   1.000  H
  H119     1.0000 0.65510  0.24590  0.25610  Biso   1.000  H
  C75      1.0000 0.44560  0.22685  0.22270  Biso   1.000  C
  H120     1.0000 0.39280  0.28940  0.23540  Biso   1.000  H
  H121     1.0000 0.49380  0.25150  0.19730  Biso   1.000  H
  C76      1.0000 0.31790  0.14123  0.21365  Biso   1.000  C
  H122     1.0000 0.37560  0.08190  0.19950  Biso   1.000  H
  C77      1.0000 0.51370  0.14130  0.28923  Biso   1.000  C
  C78      1.0000 0.76170  0.12348  0.34066  Biso   1.000  C
  H123     1.0000 0.70890  0.16420  0.36270  Biso   1.000  H
  C79      1.0000 0.86330  0.03284  0.35921  Biso   1.000  C
  H124     1.0000 0.79020  0.98430  0.37400  Biso   1.000  H
  H125     1.0000 0.91220  0.99070  0.33730  Biso   1.000  H
  C80      1.0000 0.99750  0.06820  0.38743  Biso   1.000  C
  H126     1.0000 0.05880  0.00400  0.39590  Biso   1.000  H
  H127     1.0000 0.07240  0.11570  0.37270  Biso   1.000  H
  C81      1.0000 0.93830  0.12693  0.42418  Biso   1.000  C
  O17      1.0000 0.01325  0.21048  0.43422  Biso   1.000  O
  O18      1.0000 0.82043  0.08872  0.44293  Biso   1.000  O
  C82      1.0000 0.86870  0.20100  0.31747  Biso   1.000  C
  H128     1.0000 0.95550  0.22680  0.33480  Biso   1.000  H
  H129     1.0000 0.80430  0.26220  0.30830  Biso   1.000  H
  H130     1.0000 0.91500  0.16400  0.29440  Biso   1.000  H
  C83      1.0000 0.08130  0.26931  0.20375  Biso   1.000  C
  H131     1.0000 0.04030  0.24610  0.22970  Biso   1.000  H
  H132     1.0000 0.99080  0.28660  0.18620  Biso   1.000  H
  H133     1.0000 0.14900  0.33310  0.20720  Biso   1.000  H
  C84      1.0000 0.44000  0.23139  0.31465  Biso   1.000  C
  H134     1.0000 0.40360  0.20180  0.34010  Biso   1.000  H
  H135     1.0000 0.34820  0.26290  0.30050  Biso   1.000  H
  H136     1.0000 0.52120  0.28690  0.31950  Biso   1.000  H
  O19      1.0000 0.29926  0.95826  0.09045  Biso   1.000  O
  C85      1.0000 0.39040  0.98272  0.05648  Biso   1.000  C
  H137     1.0000 0.34830  0.05010  0.04410  Biso   1.000  H
  C86      1.0000 0.37400  0.89065  0.02724  Biso   1.000  C
  H138     1.0000 0.44390  0.90510  0.00360  Biso   1.000  H
  C87      1.0000 0.42950  0.78689  0.04718  Biso   1.000  C
  H139     1.0000 0.36430  0.77420  0.07180  Biso   1.000  H
  C88      1.0000 0.60510  0.80308  0.05859  Biso   1.000  C
  H140     1.0000 0.67130  0.81180  0.03390  Biso   1.000  H
  C89      1.0000 0.62310  0.90309  0.08477  Biso   1.000  C
  H141     1.0000 0.56660  0.89030  0.11060  Biso   1.000  H
  O20      1.0000 0.55554  0.99645  0.06616  Biso   1.000  O
  O21      1.0000 0.21231  0.88071  0.01434  Biso   1.000  O
  H142     1.0000 0.19770  0.91940  0.99420  Biso   1.000  H
  O22      1.0000 0.41271  0.69728  0.02100  Biso   1.000  O
  H143     1.0000 0.33150  0.66130  0.02760  Biso   1.000  H
  O23      1.0000 0.66231  0.71276  0.08072  Biso   1.000  O
  H144     1.0000 0.76090  0.70400  0.07630  Biso   1.000  H
  C90      1.0000 0.79770  0.92950  0.09310  Biso   1.000  C
  H145     1.0000 0.80320  0.99580  0.10930  Biso   1.000  H
  H146     1.0000 0.84630  0.87050  0.10880  Biso   1.000  H
  O24      1.0000 0.88824  0.94461  0.05755  Biso   1.000  O
  H147     1.0000 0.85530  0.99980  0.04570  Biso   1.000  H
  Li3      1.0000 0.99020  0.32870  0.46870  Biso   1.000  Li
  C91      1.0000 0.87060  0.92828  0.81514  Biso   1.000  C
  H148     1.0000 0.81570  0.97930  0.79660  Biso   1.000  H
  C92      1.0000 0.98880  0.99613  0.84072  Biso   1.000  C
  H149     1.0000 0.94500  0.06910  0.84500  Biso   1.000  H
  H150     1.0000 0.00570  0.96180  0.86700  Biso   1.000  H
  C93      1.0000 0.14910  0.00202  0.81749  Biso   1.000  C
  H151     1.0000 0.18220  0.07750  0.81310  Biso   1.000  H
  H152     1.0000 0.23590  0.96380  0.83190  Biso   1.000  H
  C94      1.0000 0.11040  0.94649  0.77798  Biso   1.000  C
  H153     1.0000 0.05050  0.00040  0.76170  Biso   1.000  H
  C95      1.0000 0.24970  0.90880  0.75232  Biso   1.000  C
  H154     1.0000 0.31090  0.85250  0.76720  Biso   1.000  H
  C96      1.0000 0.36370  0.00197  0.74272  Biso   1.000  C
  H155     1.0000 0.30040  0.06220  0.73160  Biso   1.000  H
  H156     1.0000 0.41440  0.02720  0.76770  Biso   1.000  H
  C97      1.0000 0.49550  0.97136  0.71318  Biso   1.000  C
  H157     1.0000 0.57110  0.92090  0.72620  Biso   1.000  H
  H158     1.0000 0.55660  0.03660  0.70580  Biso   1.000  H
  C98      1.0000 0.42830  0.91894  0.67532  Biso   1.000  C
  H159     1.0000 0.52220  0.89060  0.66000  Biso   1.000  H
  C99      1.0000 0.34400  0.00140  0.64874  Biso   1.000  C
  H160     1.0000 0.25600  0.03560  0.66400  Biso   1.000  H
  H161     1.0000 0.42200  0.05820  0.64150  Biso   1.000  H
  C100     1.0000 0.27480  0.95295  0.61089  Biso   1.000  C
  H162     1.0000 0.36510  0.92470  0.59420  Biso   1.000  H
  C101     1.0000 0.16090  0.86127  0.62057  Biso   1.000  C
  H163     1.0000 0.12150  0.82790  0.59570  Biso   1.000  H
  H164     1.0000 0.06700  0.88870  0.63560  Biso   1.000  H
  C102     1.0000 0.25090  0.77833  0.64546  Biso   1.000  C
  H165     1.0000 0.34130  0.74960  0.62950  Biso   1.000  H
  H166     1.0000 0.17720  0.71790  0.65130  Biso   1.000  H
  C103     1.0000 0.31810  0.82175  0.68509  Biso   1.000  C
  C104     1.0000 0.91970  0.81387  0.75017  Biso   1.000  C
  H167     1.0000 0.85820  0.87070  0.73630  Biso   1.000  H
  H168     1.0000 0.84490  0.75410  0.75610  Biso   1.000  H
  C105     1.0000 0.05440  0.77315  0.72270  Biso   1.000  C
  H169     1.0000 0.10720  0.71060  0.73540  Biso   1.000  H
  H170     1.0000 0.00620  0.74850  0.69730  Biso   1.000  H
  C106     1.0000 0.18210  0.85877  0.71365  Biso   1.000  C
  H171     1.0000 0.12440  0.91810  0.69950  Biso   1.000  H
  C107     1.0000 0.98630  0.85870  0.78923  Biso   1.000  C
  C108     1.0000 0.73830  0.87652  0.84066  Biso   1.000  C
  H172     1.0000 0.79110  0.83580  0.86270  Biso   1.000  H
  C109     1.0000 0.63670  0.96716  0.85921  Biso   1.000  C
  H173     1.0000 0.70980  0.01570  0.87400  Biso   1.000  H
  H174     1.0000 0.58780  0.00930  0.83730  Biso   1.000  H
  C110     1.0000 0.50250  0.93180  0.88743  Biso   1.000  C
  H175     1.0000 0.44120  0.99600  0.89590  Biso   1.000  H
  H176     1.0000 0.42760  0.88430  0.87270  Biso   1.000  H
  C111     1.0000 0.56170  0.87307  0.92418  Biso   1.000  C
  O25      1.0000 0.48675  0.78952  0.93422  Biso   1.000  O
  O26      1.0000 0.67957  0.91128  0.94293  Biso   1.000  O
  C112     1.0000 0.63130  0.79900  0.81747  Biso   1.000  C
  H177     1.0000 0.54450  0.77320  0.83480  Biso   1.000  H
  H178     1.0000 0.69570  0.73780  0.80830  Biso   1.000  H
  H179     1.0000 0.58500  0.83600  0.79440  Biso   1.000  H
  C113     1.0000 0.41870  0.73069  0.70375  Biso   1.000  C
  H180     1.0000 0.45970  0.75390  0.72970  Biso   1.000  H
  H181     1.0000 0.50920  0.71340  0.68620  Biso   1.000  H
  H182     1.0000 0.35100  0.66690  0.70720  Biso   1.000  H
  C114     1.0000 0.06000  0.76861  0.81465  Biso   1.000  C
  H183     1.0000 0.09640  0.79820  0.84010  Biso   1.000  H
  H184     1.0000 0.15180  0.73710  0.80050  Biso   1.000  H
  H185     1.0000 0.97880  0.71310  0.81950  Biso   1.000  H
  O27      1.0000 0.20074  0.04174  0.59045  Biso   1.000  O
  C115     1.0000 0.10960  0.01728  0.55648  Biso   1.000  C
  H186     1.0000 0.15170  0.94990  0.54410  Biso   1.000  H
  C116     1.0000 0.12600  0.10935  0.52724  Biso   1.000  C
  H187     1.0000 0.05610  0.09490  0.50360  Biso   1.000  H
  C117     1.0000 0.07050  0.21311  0.54718  Biso   1.000  C
  H188     1.0000 0.13570  0.22580  0.57180  Biso   1.000  H
  C118     1.0000 0.89490  0.19692  0.55859  Biso   1.000  C
  H189     1.0000 0.82870  0.18820  0.53390  Biso   1.000  H
  C119     1.0000 0.87690  0.09691  0.58477  Biso   1.000  C
  H190     1.0000 0.93340  0.10970  0.61060  Biso   1.000  H
  O28      1.0000 0.94446  0.00355  0.56616  Biso   1.000  O
  O29      1.0000 0.28769  0.11929  0.51434  Biso   1.000  O
  H191     1.0000 0.30230  0.08060  0.49420  Biso   1.000  H
  O30      1.0000 0.08729  0.30272  0.52100  Biso   1.000  O
  H192     1.0000 0.16850  0.33870  0.52760  Biso   1.000  H
  O31      1.0000 0.83769  0.28724  0.58072  Biso   1.000  O
  H193     1.0000 0.73910  0.29600  0.57630  Biso   1.000  H
  C120     1.0000 0.70230  0.07050  0.59310  Biso   1.000  C
  H194     1.0000 0.69680  0.00420  0.60930  Biso   1.000  H
  H195     1.0000 0.65370  0.12950  0.60880  Biso   1.000  H
  O32      1.0000 0.61176  0.05539  0.55755  Biso   1.000  O
  H196     1.0000 0.64470  0.00020  0.54570  Biso   1.000  H
  Li4      1.0000 0.50980  0.67130  0.96870  Biso   1.000  Li
