data_image0
_cell_length_a       6.5873
_cell_length_b       12.9396
_cell_length_c       13.0141
_cell_angle_alpha    90
_cell_angle_beta     90.023
_cell_angle_gamma    90

_symmetry_space_group_name_H-M    "P 1"
_symmetry_int_tables_number       1

loop_
  _symmetry_equiv_pos_as_xyz
  'x, y, z'

loop_
  _atom_site_label
  _atom_site_occupancy
  _atom_site_fract_x
  _atom_site_fract_y
  _atom_site_fract_z
  _atom_site_thermal_displace_type
  _atom_site_B_iso_or_equiv
  _atom_site_type_symbol
  Zn1      1.0000 0.20294  0.45775  0.95198  Biso   1.000  Zn
  F1       1.0000 0.11100  0.55170  0.06030  Biso   1.000  F
  F2       1.0000 0.24680  0.93460  0.93560  Biso   1.000  F
  N1       1.0000 0.24590  0.30510  0.97480  Biso   1.000  N
  N2       1.0000 0.08250  0.24080  0.97880  Biso   1.000  N
  N3       1.0000 0.15040  0.14760  0.98500  Biso   1.000  N
  N4       1.0000 0.35340  0.14590  0.98560  Biso   1.000  N
  C1       1.0000 0.40980  0.24410  0.97980  Biso   1.000  C
  N5       1.0000 0.60390  0.27720  0.97360  Biso   1.000  N
  H1       1.0000 0.70170  0.23310  0.97320  Biso   1.000  H
  H2       1.0000 0.62970  0.34220  0.97000  Biso   1.000  H
  N6       1.0000 0.24480  0.50180  0.80520  Biso   1.000  N
  N7       1.0000 0.08110  0.50580  0.74040  Biso   1.000  N
  N8       1.0000 0.15210  0.51430  0.64610  Biso   1.000  N
  N9       1.0000 0.35360  0.51770  0.64790  Biso   1.000  N
  C2       1.0000 0.40660  0.50970  0.74400  Biso   1.000  C
  N10      1.0000 0.60270  0.50790  0.77780  Biso   1.000  N
  H3       1.0000 0.70090  0.51210  0.73450  Biso   1.000  H
  H4       1.0000 0.62800  0.50250  0.84240  Biso   1.000  H
  Zn2      1.0000 0.79706  0.95775  0.54802  Biso   1.000  Zn
  F3       1.0000 0.88900  0.05170  0.43970  Biso   1.000  F
  F4       1.0000 0.75320  0.43460  0.56440  Biso   1.000  F
  N11      1.0000 0.75410  0.80510  0.52520  Biso   1.000  N
  N12      1.0000 0.91750  0.74080  0.52120  Biso   1.000  N
  N13      1.0000 0.84960  0.64760  0.51500  Biso   1.000  N
  N14      1.0000 0.64660  0.64590  0.51440  Biso   1.000  N
  C3       1.0000 0.59020  0.74410  0.52020  Biso   1.000  C
  N15      1.0000 0.39610  0.77720  0.52640  Biso   1.000  N
  H5       1.0000 0.29830  0.73310  0.52680  Biso   1.000  H
  H6       1.0000 0.37030  0.84220  0.53000  Biso   1.000  H
  N16      1.0000 0.75520  0.00180  0.69480  Biso   1.000  N
  N17      1.0000 0.91890  0.00580  0.75960  Biso   1.000  N
  N18      1.0000 0.84790  0.01430  0.85390  Biso   1.000  N
  N19      1.0000 0.64640  0.01770  0.85210  Biso   1.000  N
  C4       1.0000 0.59340  0.00970  0.75600  Biso   1.000  C
  N20      1.0000 0.39730  0.00790  0.72220  Biso   1.000  N
  H7       1.0000 0.29910  0.01210  0.76550  Biso   1.000  H
  H8       1.0000 0.37200  0.00250  0.65760  Biso   1.000  H
  Zn3      1.0000 0.79706  0.54225  0.04802  Biso   1.000  Zn
  F5       1.0000 0.88900  0.44830  0.93970  Biso   1.000  F
  F6       1.0000 0.75320  0.06540  0.06440  Biso   1.000  F
  N21      1.0000 0.75410  0.69490  0.02520  Biso   1.000  N
  N22      1.0000 0.91750  0.75920  0.02120  Biso   1.000  N
  N23      1.0000 0.84960  0.85240  0.01500  Biso   1.000  N
  N24      1.0000 0.64660  0.85410  0.01440  Biso   1.000  N
  C5       1.0000 0.59020  0.75590  0.02020  Biso   1.000  C
  N25      1.0000 0.39610  0.72280  0.02640  Biso   1.000  N
  H9       1.0000 0.29830  0.76690  0.02680  Biso   1.000  H
  H10      1.0000 0.37030  0.65780  0.03000  Biso   1.000  H
  N26      1.0000 0.75520  0.49820  0.19480  Biso   1.000  N
  N27      1.0000 0.91890  0.49420  0.25960  Biso   1.000  N
  N28      1.0000 0.84790  0.48570  0.35390  Biso   1.000  N
  N29      1.0000 0.64640  0.48230  0.35210  Biso   1.000  N
  C6       1.0000 0.59340  0.49030  0.25600  Biso   1.000  C
  N30      1.0000 0.39730  0.49210  0.22220  Biso   1.000  N
  H11      1.0000 0.29910  0.48790  0.26550  Biso   1.000  H
  H12      1.0000 0.37200  0.49750  0.15760  Biso   1.000  H
  Zn4      1.0000 0.20294  0.04225  0.45198  Biso   1.000  Zn
  F7       1.0000 0.11100  0.94830  0.56030  Biso   1.000  F
  F8       1.0000 0.24680  0.56540  0.43560  Biso   1.000  F
  N31      1.0000 0.24590  0.19490  0.47480  Biso   1.000  N
  N32      1.0000 0.08250  0.25920  0.47880  Biso   1.000  N
  N33      1.0000 0.15040  0.35240  0.48500  Biso   1.000  N
  N34      1.0000 0.35340  0.35410  0.48560  Biso   1.000  N
  C7       1.0000 0.40980  0.25590  0.47980  Biso   1.000  C
  N35      1.0000 0.60390  0.22280  0.47360  Biso   1.000  N
  H13      1.0000 0.70170  0.26690  0.47320  Biso   1.000  H
  H14      1.0000 0.62970  0.15780  0.47000  Biso   1.000  H
  N36      1.0000 0.24480  0.99820  0.30520  Biso   1.000  N
  N37      1.0000 0.08110  0.99420  0.24040  Biso   1.000  N
  N38      1.0000 0.15210  0.98570  0.14610  Biso   1.000  N
  N39      1.0000 0.35360  0.98230  0.14790  Biso   1.000  N
  C8       1.0000 0.40660  0.99030  0.24400  Biso   1.000  C
  N40      1.0000 0.60270  0.99210  0.27780  Biso   1.000  N
  H15      1.0000 0.70090  0.98790  0.23450  Biso   1.000  H
  H16      1.0000 0.62800  0.99750  0.34240  Biso   1.000  H
  Zn5      1.0000 0.00000  0.00000  0.00000  Biso   1.000  Zn
  Zn6      1.0000 0.00000  0.50000  0.50000  Biso   1.000  Zn
  Zn7      1.0000 0.50000  0.00000  0.00000  Biso   1.000  Zn
  Zn8      1.0000 0.50000  0.50000  0.50000  Biso   1.000  Zn
