data_image0
_cell_length_a       25.6433
_cell_length_b       13.3904
_cell_length_c       15.1209
_cell_angle_alpha    90
_cell_angle_beta     92.753
_cell_angle_gamma    90

_symmetry_space_group_name_H-M    "P 1"
_symmetry_int_tables_number       1

loop_
  _symmetry_equiv_pos_as_xyz
  'x, y, z'

loop_
  _atom_site_label
  _atom_site_occupancy
  _atom_site_fract_x
  _atom_site_fract_y
  _atom_site_fract_z
  _atom_site_thermal_displace_type
  _atom_site_B_iso_or_equiv
  _atom_site_type_symbol
  Cd1      1.0000 0.76136  0.04973  0.99770  Biso   1.000  Cd
  O1       1.0000 0.68630  0.00100  0.11570  Biso   1.000  O
  O2       1.0000 0.81730  0.01870  0.11310  Biso   1.000  O
  O3       1.0000 0.59550  0.41040  0.09300  Biso   1.000  O
  O4       1.0000 0.56190  0.98640  0.37030  Biso   1.000  O
  C1       1.0000 0.68390  0.09310  0.12210  Biso   1.000  C
  C2       1.0000 0.56520  0.07720  0.37640  Biso   1.000  C
  C3       1.0000 0.82690  0.00430  0.19390  Biso   1.000  C
  C4       1.0000 0.59830  0.23910  0.31780  Biso   1.000  C
  H1       1.0000 0.58000  0.27180  0.36100  Biso   1.000  H
  C5       1.0000 0.62460  0.08740  0.24980  Biso   1.000  C
  H2       1.0000 0.62370  0.01810  0.24630  Biso   1.000  H
  O5       1.0000 0.76910  0.38020  0.06030  Biso   1.000  O
  O6       1.0000 0.70760  0.14870  0.06930  Biso   1.000  O
  C6       1.0000 0.63560  0.45540  0.11720  Biso   1.000  C
  C7       1.0000 0.79190  0.42890  0.12240  Biso   1.000  C
  O7       1.0000 0.95150  0.37690  0.42860  Biso   1.000  O
  O8       1.0000 0.92900  0.52030  0.37120  Biso   1.000  O
  C8       1.0000 0.65460  0.24600  0.19560  Biso   1.000  C
  H3       1.0000 0.67450  0.28240  0.15710  Biso   1.000  H
  C9       1.0000 0.65300  0.14140  0.19090  Biso   1.000  C
  C10      1.0000 0.83610  0.22360  0.28070  Biso   1.000  C
  C11      1.0000 0.82120  0.37470  0.19560  Biso   1.000  C
  C12      1.0000 0.62580  0.29460  0.25880  Biso   1.000  C
  O9       1.0000 0.62330  0.39650  0.26950  Biso   1.000  O
  O10      1.0000 0.82740  0.12840  0.30960  Biso   1.000  O
  C13      1.0000 0.65330  0.45890  0.21390  Biso   1.000  C
  H4       1.0000 0.69000  0.43900  0.22010  Biso   1.000  H
  C14      1.0000 0.88440  0.37360  0.31780  Biso   1.000  C
  C15      1.0000 0.81030  0.27340  0.20980  Biso   1.000  C
  H5       1.0000 0.78630  0.23970  0.17260  Biso   1.000  H
  O11      1.0000 0.54170  0.12700  0.43430  Biso   1.000  O
  C16      1.0000 0.87460  0.27640  0.33450  Biso   1.000  C
  H6       1.0000 0.89270  0.24390  0.38070  Biso   1.000  H
  C17      1.0000 0.92420  0.42710  0.37670  Biso   1.000  C
  C18      1.0000 0.85620  0.42520  0.24880  Biso   1.000  C
  H7       1.0000 0.86170  0.49310  0.24010  Biso   1.000  H
  O12      1.0000 0.86200  0.94790  0.22090  Biso   1.000  O
  C19      1.0000 0.76990  0.99130  0.32080  Biso   1.000  C
  H8       1.0000 0.74750  0.94650  0.28700  Biso   1.000  H
  H9       1.0000 0.79660  0.95380  0.35270  Biso   1.000  H
  H10      1.0000 0.74970  0.02770  0.36180  Biso   1.000  H
  C20      1.0000 0.59720  0.13600  0.31420  Biso   1.000  C
  O13      1.0000 0.79020  0.52350  0.12600  Biso   1.000  O
  C21      1.0000 0.79460  0.06260  0.25980  Biso   1.000  C
  H11      1.0000 0.76730  0.10100  0.22730  Biso   1.000  H
  C22      1.0000 0.64760  0.56490  0.24980  Biso   1.000  C
  H12      1.0000 0.66700  0.61040  0.21500  Biso   1.000  H
  H13      1.0000 0.61140  0.58350  0.24670  Biso   1.000  H
  H14      1.0000 0.66080  0.56730  0.31030  Biso   1.000  H
  O14      1.0000 0.66380  0.49910  0.06430  Biso   1.000  O
  Cd2      1.0000 0.26136  0.54973  0.99770  Biso   1.000  Cd
  O15      1.0000 0.18630  0.50100  0.11570  Biso   1.000  O
  O16      1.0000 0.31730  0.51870  0.11310  Biso   1.000  O
  O17      1.0000 0.09550  0.91040  0.09300  Biso   1.000  O
  O18      1.0000 0.06190  0.48640  0.37030  Biso   1.000  O
  C23      1.0000 0.18390  0.59310  0.12210  Biso   1.000  C
  C24      1.0000 0.06520  0.57720  0.37640  Biso   1.000  C
  C25      1.0000 0.32690  0.50430  0.19390  Biso   1.000  C
  C26      1.0000 0.09830  0.73910  0.31780  Biso   1.000  C
  H15      1.0000 0.08000  0.77180  0.36100  Biso   1.000  H
  C27      1.0000 0.12460  0.58740  0.24980  Biso   1.000  C
  H16      1.0000 0.12370  0.51810  0.24630  Biso   1.000  H
  O19      1.0000 0.26910  0.88020  0.06030  Biso   1.000  O
  O20      1.0000 0.20760  0.64870  0.06930  Biso   1.000  O
  C28      1.0000 0.13560  0.95540  0.11720  Biso   1.000  C
  C29      1.0000 0.29190  0.92890  0.12240  Biso   1.000  C
  O21      1.0000 0.45150  0.87690  0.42860  Biso   1.000  O
  O22      1.0000 0.42900  0.02030  0.37120  Biso   1.000  O
  C30      1.0000 0.15460  0.74600  0.19560  Biso   1.000  C
  H17      1.0000 0.17450  0.78240  0.15710  Biso   1.000  H
  C31      1.0000 0.15300  0.64140  0.19090  Biso   1.000  C
  C32      1.0000 0.33610  0.72360  0.28070  Biso   1.000  C
  C33      1.0000 0.32120  0.87470  0.19560  Biso   1.000  C
  C34      1.0000 0.12580  0.79460  0.25880  Biso   1.000  C
  O23      1.0000 0.12330  0.89650  0.26950  Biso   1.000  O
  O24      1.0000 0.32740  0.62840  0.30960  Biso   1.000  O
  C35      1.0000 0.15330  0.95890  0.21390  Biso   1.000  C
  H18      1.0000 0.19000  0.93900  0.22010  Biso   1.000  H
  C36      1.0000 0.38440  0.87360  0.31780  Biso   1.000  C
  C37      1.0000 0.31030  0.77340  0.20980  Biso   1.000  C
  H19      1.0000 0.28630  0.73970  0.17260  Biso   1.000  H
  O25      1.0000 0.04170  0.62700  0.43430  Biso   1.000  O
  C38      1.0000 0.37460  0.77640  0.33450  Biso   1.000  C
  H20      1.0000 0.39270  0.74390  0.38070  Biso   1.000  H
  C39      1.0000 0.42420  0.92710  0.37670  Biso   1.000  C
  C40      1.0000 0.35620  0.92520  0.24880  Biso   1.000  C
  H21      1.0000 0.36170  0.99310  0.24010  Biso   1.000  H
  O26      1.0000 0.36200  0.44790  0.22090  Biso   1.000  O
  C41      1.0000 0.26990  0.49130  0.32080  Biso   1.000  C
  H22      1.0000 0.24750  0.44650  0.28700  Biso   1.000  H
  H23      1.0000 0.29660  0.45380  0.35270  Biso   1.000  H
  H24      1.0000 0.24970  0.52770  0.36180  Biso   1.000  H
  C42      1.0000 0.09720  0.63600  0.31420  Biso   1.000  C
  O27      1.0000 0.29020  0.02350  0.12600  Biso   1.000  O
  C43      1.0000 0.29460  0.56260  0.25980  Biso   1.000  C
  H25      1.0000 0.26730  0.60100  0.22730  Biso   1.000  H
  C44      1.0000 0.14760  0.06490  0.24980  Biso   1.000  C
  H26      1.0000 0.16700  0.11040  0.21500  Biso   1.000  H
  H27      1.0000 0.11140  0.08350  0.24670  Biso   1.000  H
  H28      1.0000 0.16080  0.06730  0.31030  Biso   1.000  H
  O28      1.0000 0.16380  0.99910  0.06430  Biso   1.000  O
  Cd3      1.0000 0.23864  0.04973  0.00230  Biso   1.000  Cd
  O29      1.0000 0.31370  0.00100  0.88430  Biso   1.000  O
  O30      1.0000 0.18270  0.01870  0.88690  Biso   1.000  O
  O31      1.0000 0.40450  0.41040  0.90700  Biso   1.000  O
  O32      1.0000 0.43810  0.98640  0.62970  Biso   1.000  O
  C45      1.0000 0.31610  0.09310  0.87790  Biso   1.000  C
  C46      1.0000 0.43480  0.07720  0.62360  Biso   1.000  C
  C47      1.0000 0.17310  0.00430  0.80610  Biso   1.000  C
  C48      1.0000 0.40170  0.23910  0.68220  Biso   1.000  C
  H29      1.0000 0.42000  0.27180  0.63900  Biso   1.000  H
  C49      1.0000 0.37540  0.08740  0.75020  Biso   1.000  C
  H30      1.0000 0.37630  0.01810  0.75370  Biso   1.000  H
  O33      1.0000 0.23090  0.38020  0.93970  Biso   1.000  O
  O34      1.0000 0.29240  0.14870  0.93070  Biso   1.000  O
  C50      1.0000 0.36440  0.45540  0.88280  Biso   1.000  C
  C51      1.0000 0.20810  0.42890  0.87760  Biso   1.000  C
  O35      1.0000 0.04850  0.37690  0.57140  Biso   1.000  O
  O36      1.0000 0.07100  0.52030  0.62880  Biso   1.000  O
  C52      1.0000 0.34540  0.24600  0.80440  Biso   1.000  C
  H31      1.0000 0.32550  0.28240  0.84290  Biso   1.000  H
  C53      1.0000 0.34700  0.14140  0.80910  Biso   1.000  C
  C54      1.0000 0.16390  0.22360  0.71930  Biso   1.000  C
  C55      1.0000 0.17880  0.37470  0.80440  Biso   1.000  C
  C56      1.0000 0.37420  0.29460  0.74120  Biso   1.000  C
  O37      1.0000 0.37670  0.39650  0.73050  Biso   1.000  O
  O38      1.0000 0.17260  0.12840  0.69040  Biso   1.000  O
  C57      1.0000 0.34670  0.45890  0.78610  Biso   1.000  C
  H32      1.0000 0.31000  0.43900  0.77990  Biso   1.000  H
  C58      1.0000 0.11560  0.37360  0.68220  Biso   1.000  C
  C59      1.0000 0.18970  0.27340  0.79020  Biso   1.000  C
  H33      1.0000 0.21370  0.23970  0.82740  Biso   1.000  H
  O39      1.0000 0.45830  0.12700  0.56570  Biso   1.000  O
  C60      1.0000 0.12540  0.27640  0.66550  Biso   1.000  C
  H34      1.0000 0.10730  0.24390  0.61930  Biso   1.000  H
  C61      1.0000 0.07580  0.42710  0.62330  Biso   1.000  C
  C62      1.0000 0.14380  0.42520  0.75120  Biso   1.000  C
  H35      1.0000 0.13830  0.49310  0.75990  Biso   1.000  H
  O40      1.0000 0.13800  0.94790  0.77910  Biso   1.000  O
  C63      1.0000 0.23010  0.99130  0.67920  Biso   1.000  C
  H36      1.0000 0.25250  0.94650  0.71300  Biso   1.000  H
  H37      1.0000 0.20340  0.95380  0.64730  Biso   1.000  H
  H38      1.0000 0.25030  0.02770  0.63820  Biso   1.000  H
  C64      1.0000 0.40280  0.13600  0.68580  Biso   1.000  C
  O41      1.0000 0.20980  0.52350  0.87400  Biso   1.000  O
  C65      1.0000 0.20540  0.06260  0.74020  Biso   1.000  C
  H39      1.0000 0.23270  0.10100  0.77270  Biso   1.000  H
  C66      1.0000 0.35240  0.56490  0.75020  Biso   1.000  C
  H40      1.0000 0.33300  0.61040  0.78500  Biso   1.000  H
  H41      1.0000 0.38860  0.58350  0.75330  Biso   1.000  H
  H42      1.0000 0.33920  0.56730  0.68970  Biso   1.000  H
  O42      1.0000 0.33620  0.49910  0.93570  Biso   1.000  O
  Cd4      1.0000 0.73864  0.54973  0.00230  Biso   1.000  Cd
  O43      1.0000 0.81370  0.50100  0.88430  Biso   1.000  O
  O44      1.0000 0.68270  0.51870  0.88690  Biso   1.000  O
  O45      1.0000 0.90450  0.91040  0.90700  Biso   1.000  O
  O46      1.0000 0.93810  0.48640  0.62970  Biso   1.000  O
  C67      1.0000 0.81610  0.59310  0.87790  Biso   1.000  C
  C68      1.0000 0.93480  0.57720  0.62360  Biso   1.000  C
  C69      1.0000 0.67310  0.50430  0.80610  Biso   1.000  C
  C70      1.0000 0.90170  0.73910  0.68220  Biso   1.000  C
  H43      1.0000 0.92000  0.77180  0.63900  Biso   1.000  H
  C71      1.0000 0.87540  0.58740  0.75020  Biso   1.000  C
  H44      1.0000 0.87630  0.51810  0.75370  Biso   1.000  H
  O47      1.0000 0.73090  0.88020  0.93970  Biso   1.000  O
  O48      1.0000 0.79240  0.64870  0.93070  Biso   1.000  O
  C72      1.0000 0.86440  0.95540  0.88280  Biso   1.000  C
  C73      1.0000 0.70810  0.92890  0.87760  Biso   1.000  C
  O49      1.0000 0.54850  0.87690  0.57140  Biso   1.000  O
  O50      1.0000 0.57100  0.02030  0.62880  Biso   1.000  O
  C74      1.0000 0.84540  0.74600  0.80440  Biso   1.000  C
  H45      1.0000 0.82550  0.78240  0.84290  Biso   1.000  H
  C75      1.0000 0.84700  0.64140  0.80910  Biso   1.000  C
  C76      1.0000 0.66390  0.72360  0.71930  Biso   1.000  C
  C77      1.0000 0.67880  0.87470  0.80440  Biso   1.000  C
  C78      1.0000 0.87420  0.79460  0.74120  Biso   1.000  C
  O51      1.0000 0.87670  0.89650  0.73050  Biso   1.000  O
  O52      1.0000 0.67260  0.62840  0.69040  Biso   1.000  O
  C79      1.0000 0.84670  0.95890  0.78610  Biso   1.000  C
  H46      1.0000 0.81000  0.93900  0.77990  Biso   1.000  H
  C80      1.0000 0.61560  0.87360  0.68220  Biso   1.000  C
  C81      1.0000 0.68970  0.77340  0.79020  Biso   1.000  C
  H47      1.0000 0.71370  0.73970  0.82740  Biso   1.000  H
  O53      1.0000 0.95830  0.62700  0.56570  Biso   1.000  O
  C82      1.0000 0.62540  0.77640  0.66550  Biso   1.000  C
  H48      1.0000 0.60730  0.74390  0.61930  Biso   1.000  H
  C83      1.0000 0.57580  0.92710  0.62330  Biso   1.000  C
  C84      1.0000 0.64380  0.92520  0.75120  Biso   1.000  C
  H49      1.0000 0.63830  0.99310  0.75990  Biso   1.000  H
  O54      1.0000 0.63800  0.44790  0.77910  Biso   1.000  O
  C85      1.0000 0.73010  0.49130  0.67920  Biso   1.000  C
  H50      1.0000 0.75250  0.44650  0.71300  Biso   1.000  H
  H51      1.0000 0.70340  0.45380  0.64730  Biso   1.000  H
  H52      1.0000 0.75030  0.52770  0.63820  Biso   1.000  H
  C86      1.0000 0.90280  0.63600  0.68580  Biso   1.000  C
  O55      1.0000 0.70980  0.02350  0.87400  Biso   1.000  O
  C87      1.0000 0.70540  0.56260  0.74020  Biso   1.000  C
  H53      1.0000 0.73270  0.60100  0.77270  Biso   1.000  H
  C88      1.0000 0.85240  0.06490  0.75020  Biso   1.000  C
  H54      1.0000 0.83300  0.11040  0.78500  Biso   1.000  H
  H55      1.0000 0.88860  0.08350  0.75330  Biso   1.000  H
  H56      1.0000 0.83920  0.06730  0.68970  Biso   1.000  H
  O56      1.0000 0.83620  0.99910  0.93570  Biso   1.000  O
  Cd5      1.0000 0.50000  0.99342  0.50000  Biso   1.000  Cd
  Cd6      1.0000 0.00000  0.49342  0.50000  Biso   1.000  Cd
