data_image0
_cell_length_a       24.3936
_cell_length_b       24.3936
_cell_length_c       14.571
_cell_angle_alpha    90
_cell_angle_beta     90
_cell_angle_gamma    90

_symmetry_space_group_name_H-M    "P 1"
_symmetry_int_tables_number       1

loop_
  _symmetry_equiv_pos_as_xyz
  'x, y, z'

loop_
  _atom_site_label
  _atom_site_occupancy
  _atom_site_fract_x
  _atom_site_fract_y
  _atom_site_fract_z
  _atom_site_thermal_displace_type
  _atom_site_B_iso_or_equiv
  _atom_site_type_symbol
  F1       1.0000 0.29130  0.33870  0.07150  Biso   1.000  F
  F2       1.0000 0.34940  0.36690  0.18440  Biso   1.000  F
  F3       1.0000 0.38200  0.32720  0.05290  Biso   1.000  F
  O1       1.0000 0.44580  0.14630  0.09230  Biso   1.000  O
  O2       1.0000 0.39780  0.08310  0.16930  Biso   1.000  O
  C1       1.0000 0.29600  0.25370  0.23700  Biso   1.000  C
  C2       1.0000 0.33510  0.26500  0.16990  Biso   1.000  C
  C3       1.0000 0.37250  0.22650  0.14010  Biso   1.000  C
  H1       1.0000 0.39890  0.23500  0.09440  Biso   1.000  H
  C4       1.0000 0.36980  0.17380  0.18050  Biso   1.000  C
  C5       1.0000 0.33210  0.16140  0.24640  Biso   1.000  C
  H2       1.0000 0.33100  0.12580  0.27280  Biso   1.000  H
  C6       1.0000 0.29510  0.20140  0.27450  Biso   1.000  C
  H3       1.0000 0.26880  0.19280  0.32030  Biso   1.000  H
  C7       1.0000 0.40760  0.13260  0.13860  Biso   1.000  C
  C8       1.0000 0.34060  0.31970  0.12340  Biso   1.000  C
  F4       1.0000 0.19850  0.17600  0.32400  Biso   1.000  F
  F5       1.0000 0.25300  0.21690  0.43100  Biso   1.000  F
  F6       1.0000 0.26900  0.12850  0.39100  Biso   1.000  F
  H4       1.0000 0.33610  0.30060  0.14360  Biso   1.000  H
  C9       1.0000 0.25620  0.18190  0.34740  Biso   1.000  C
  F7       1.0000 0.70870  0.66130  0.07150  Biso   1.000  F
  F8       1.0000 0.65060  0.63310  0.18440  Biso   1.000  F
  F9       1.0000 0.61800  0.67280  0.05290  Biso   1.000  F
  O3       1.0000 0.55420  0.85370  0.09230  Biso   1.000  O
  O4       1.0000 0.60220  0.91690  0.16930  Biso   1.000  O
  C10      1.0000 0.70400  0.74630  0.23700  Biso   1.000  C
  C11      1.0000 0.66490  0.73500  0.16990  Biso   1.000  C
  C12      1.0000 0.62750  0.77350  0.14010  Biso   1.000  C
  H5       1.0000 0.60110  0.76500  0.09440  Biso   1.000  H
  C13      1.0000 0.63020  0.82620  0.18050  Biso   1.000  C
  C14      1.0000 0.66790  0.83860  0.24640  Biso   1.000  C
  H6       1.0000 0.66900  0.87420  0.27280  Biso   1.000  H
  C15      1.0000 0.70490  0.79860  0.27450  Biso   1.000  C
  H7       1.0000 0.73120  0.80720  0.32030  Biso   1.000  H
  C16      1.0000 0.59240  0.86740  0.13860  Biso   1.000  C
  C17      1.0000 0.65940  0.68030  0.12340  Biso   1.000  C
  F10      1.0000 0.80150  0.82400  0.32400  Biso   1.000  F
  F11      1.0000 0.74700  0.78310  0.43100  Biso   1.000  F
  F12      1.0000 0.73100  0.87150  0.39100  Biso   1.000  F
  H8       1.0000 0.66390  0.69940  0.14360  Biso   1.000  H
  C18      1.0000 0.74380  0.81810  0.34740  Biso   1.000  C
  F13      1.0000 0.66130  0.29130  0.57150  Biso   1.000  F
  F14      1.0000 0.63310  0.34940  0.68440  Biso   1.000  F
  F15      1.0000 0.67280  0.38200  0.55290  Biso   1.000  F
  O5       1.0000 0.85370  0.44580  0.59230  Biso   1.000  O
  O6       1.0000 0.91690  0.39780  0.66930  Biso   1.000  O
  C19      1.0000 0.74630  0.29600  0.73700  Biso   1.000  C
  C20      1.0000 0.73500  0.33510  0.66990  Biso   1.000  C
  C21      1.0000 0.77350  0.37250  0.64010  Biso   1.000  C
  H9       1.0000 0.76500  0.39890  0.59440  Biso   1.000  H
  C22      1.0000 0.82620  0.36980  0.68050  Biso   1.000  C
  C23      1.0000 0.83860  0.33210  0.74640  Biso   1.000  C
  H10      1.0000 0.87420  0.33100  0.77280  Biso   1.000  H
  C24      1.0000 0.79860  0.29510  0.77450  Biso   1.000  C
  H11      1.0000 0.80720  0.26880  0.82030  Biso   1.000  H
  C25      1.0000 0.86740  0.40760  0.63860  Biso   1.000  C
  C26      1.0000 0.68030  0.34060  0.62340  Biso   1.000  C
  F16      1.0000 0.82400  0.19850  0.82400  Biso   1.000  F
  F17      1.0000 0.78310  0.25300  0.93100  Biso   1.000  F
  F18      1.0000 0.87150  0.26900  0.89100  Biso   1.000  F
  H12      1.0000 0.69940  0.33610  0.64360  Biso   1.000  H
  C27      1.0000 0.81810  0.25620  0.84740  Biso   1.000  C
  F19      1.0000 0.33870  0.70870  0.57150  Biso   1.000  F
  F20      1.0000 0.36690  0.65060  0.68440  Biso   1.000  F
  F21      1.0000 0.32720  0.61800  0.55290  Biso   1.000  F
  O7       1.0000 0.14630  0.55420  0.59230  Biso   1.000  O
  O8       1.0000 0.08310  0.60220  0.66930  Biso   1.000  O
  C28      1.0000 0.25370  0.70400  0.73700  Biso   1.000  C
  C29      1.0000 0.26500  0.66490  0.66990  Biso   1.000  C
  C30      1.0000 0.22650  0.62750  0.64010  Biso   1.000  C
  H13      1.0000 0.23500  0.60110  0.59440  Biso   1.000  H
  C31      1.0000 0.17380  0.63020  0.68050  Biso   1.000  C
  C32      1.0000 0.16140  0.66790  0.74640  Biso   1.000  C
  H14      1.0000 0.12580  0.66900  0.77280  Biso   1.000  H
  C33      1.0000 0.20140  0.70490  0.77450  Biso   1.000  C
  H15      1.0000 0.19280  0.73120  0.82030  Biso   1.000  H
  C34      1.0000 0.13260  0.59240  0.63860  Biso   1.000  C
  C35      1.0000 0.31970  0.65940  0.62340  Biso   1.000  C
  F22      1.0000 0.17600  0.80150  0.82400  Biso   1.000  F
  F23      1.0000 0.21690  0.74700  0.93100  Biso   1.000  F
  F24      1.0000 0.12850  0.73100  0.89100  Biso   1.000  F
  H16      1.0000 0.30060  0.66390  0.64360  Biso   1.000  H
  C36      1.0000 0.18190  0.74380  0.84740  Biso   1.000  C
  F25      1.0000 0.70870  0.33870  0.92850  Biso   1.000  F
  F26      1.0000 0.65060  0.36690  0.81560  Biso   1.000  F
  F27      1.0000 0.61800  0.32720  0.94710  Biso   1.000  F
  O9       1.0000 0.55420  0.14630  0.90770  Biso   1.000  O
  O10      1.0000 0.60220  0.08310  0.83070  Biso   1.000  O
  C37      1.0000 0.70400  0.25370  0.76300  Biso   1.000  C
  C38      1.0000 0.66490  0.26500  0.83010  Biso   1.000  C
  C39      1.0000 0.62750  0.22650  0.85990  Biso   1.000  C
  H17      1.0000 0.60110  0.23500  0.90560  Biso   1.000  H
  C40      1.0000 0.63020  0.17380  0.81950  Biso   1.000  C
  C41      1.0000 0.66790  0.16140  0.75360  Biso   1.000  C
  H18      1.0000 0.66900  0.12580  0.72720  Biso   1.000  H
  C42      1.0000 0.70490  0.20140  0.72550  Biso   1.000  C
  H19      1.0000 0.73120  0.19280  0.67970  Biso   1.000  H
  C43      1.0000 0.59240  0.13260  0.86140  Biso   1.000  C
  C44      1.0000 0.65940  0.31970  0.87660  Biso   1.000  C
  F28      1.0000 0.80150  0.17600  0.67600  Biso   1.000  F
  F29      1.0000 0.74700  0.21690  0.56900  Biso   1.000  F
  F30      1.0000 0.73100  0.12850  0.60900  Biso   1.000  F
  H20      1.0000 0.66390  0.30060  0.85640  Biso   1.000  H
  C45      1.0000 0.74380  0.18190  0.65260  Biso   1.000  C
  F31      1.0000 0.29130  0.66130  0.92850  Biso   1.000  F
  F32      1.0000 0.34940  0.63310  0.81560  Biso   1.000  F
  F33      1.0000 0.38200  0.67280  0.94710  Biso   1.000  F
  O11      1.0000 0.44580  0.85370  0.90770  Biso   1.000  O
  O12      1.0000 0.39780  0.91690  0.83070  Biso   1.000  O
  C46      1.0000 0.29600  0.74630  0.76300  Biso   1.000  C
  C47      1.0000 0.33510  0.73500  0.83010  Biso   1.000  C
  C48      1.0000 0.37250  0.77350  0.85990  Biso   1.000  C
  H21      1.0000 0.39890  0.76500  0.90560  Biso   1.000  H
  C49      1.0000 0.36980  0.82620  0.81950  Biso   1.000  C
  C50      1.0000 0.33210  0.83860  0.75360  Biso   1.000  C
  H22      1.0000 0.33100  0.87420  0.72720  Biso   1.000  H
  C51      1.0000 0.29510  0.79860  0.72550  Biso   1.000  C
  H23      1.0000 0.26880  0.80720  0.67970  Biso   1.000  H
  C52      1.0000 0.40760  0.86740  0.86140  Biso   1.000  C
  C53      1.0000 0.34060  0.68030  0.87660  Biso   1.000  C
  F34      1.0000 0.19850  0.82400  0.67600  Biso   1.000  F
  F35      1.0000 0.25300  0.78310  0.56900  Biso   1.000  F
  F36      1.0000 0.26900  0.87150  0.60900  Biso   1.000  F
  H24      1.0000 0.33610  0.69940  0.85640  Biso   1.000  H
  C54      1.0000 0.25620  0.81810  0.65260  Biso   1.000  C
  F37      1.0000 0.33870  0.29130  0.42850  Biso   1.000  F
  F38      1.0000 0.36690  0.34940  0.31560  Biso   1.000  F
  F39      1.0000 0.32720  0.38200  0.44710  Biso   1.000  F
  O13      1.0000 0.14630  0.44580  0.40770  Biso   1.000  O
  O14      1.0000 0.08310  0.39780  0.33070  Biso   1.000  O
  C55      1.0000 0.25370  0.29600  0.26300  Biso   1.000  C
  C56      1.0000 0.26500  0.33510  0.33010  Biso   1.000  C
  C57      1.0000 0.22650  0.37250  0.35990  Biso   1.000  C
  H25      1.0000 0.23500  0.39890  0.40560  Biso   1.000  H
  C58      1.0000 0.17380  0.36980  0.31950  Biso   1.000  C
  C59      1.0000 0.16140  0.33210  0.25360  Biso   1.000  C
  H26      1.0000 0.12580  0.33100  0.22720  Biso   1.000  H
  C60      1.0000 0.20140  0.29510  0.22550  Biso   1.000  C
  H27      1.0000 0.19280  0.26880  0.17970  Biso   1.000  H
  C61      1.0000 0.13260  0.40760  0.36140  Biso   1.000  C
  C62      1.0000 0.31970  0.34060  0.37660  Biso   1.000  C
  F40      1.0000 0.17600  0.19850  0.17600  Biso   1.000  F
  F41      1.0000 0.21690  0.25300  0.06900  Biso   1.000  F
  F42      1.0000 0.12850  0.26900  0.10900  Biso   1.000  F
  H28      1.0000 0.30060  0.33610  0.35640  Biso   1.000  H
  C63      1.0000 0.18190  0.25620  0.15260  Biso   1.000  C
  F43      1.0000 0.66130  0.70870  0.42850  Biso   1.000  F
  F44      1.0000 0.63310  0.65060  0.31560  Biso   1.000  F
  F45      1.0000 0.67280  0.61800  0.44710  Biso   1.000  F
  O15      1.0000 0.85370  0.55420  0.40770  Biso   1.000  O
  O16      1.0000 0.91690  0.60220  0.33070  Biso   1.000  O
  C64      1.0000 0.74630  0.70400  0.26300  Biso   1.000  C
  C65      1.0000 0.73500  0.66490  0.33010  Biso   1.000  C
  C66      1.0000 0.77350  0.62750  0.35990  Biso   1.000  C
  H29      1.0000 0.76500  0.60110  0.40560  Biso   1.000  H
  C67      1.0000 0.82620  0.63020  0.31950  Biso   1.000  C
  C68      1.0000 0.83860  0.66790  0.25360  Biso   1.000  C
  H30      1.0000 0.87420  0.66900  0.22720  Biso   1.000  H
  C69      1.0000 0.79860  0.70490  0.22550  Biso   1.000  C
  H31      1.0000 0.80720  0.73120  0.17970  Biso   1.000  H
  C70      1.0000 0.86740  0.59240  0.36140  Biso   1.000  C
  C71      1.0000 0.68030  0.65940  0.37660  Biso   1.000  C
  F46      1.0000 0.82400  0.80150  0.17600  Biso   1.000  F
  F47      1.0000 0.78310  0.74700  0.06900  Biso   1.000  F
  F48      1.0000 0.87150  0.73100  0.10900  Biso   1.000  F
  H32      1.0000 0.69940  0.66390  0.35640  Biso   1.000  H
  C72      1.0000 0.81810  0.74380  0.15260  Biso   1.000  C
  F49      1.0000 0.70870  0.66130  0.92850  Biso   1.000  F
  F50      1.0000 0.65060  0.63310  0.81560  Biso   1.000  F
  F51      1.0000 0.61800  0.67280  0.94710  Biso   1.000  F
  O17      1.0000 0.55420  0.85370  0.90770  Biso   1.000  O
  O18      1.0000 0.60220  0.91690  0.83070  Biso   1.000  O
  C73      1.0000 0.70400  0.74630  0.76300  Biso   1.000  C
  C74      1.0000 0.66490  0.73500  0.83010  Biso   1.000  C
  C75      1.0000 0.62750  0.77350  0.85990  Biso   1.000  C
  H33      1.0000 0.60110  0.76500  0.90560  Biso   1.000  H
  C76      1.0000 0.63020  0.82620  0.81950  Biso   1.000  C
  C77      1.0000 0.66790  0.83860  0.75360  Biso   1.000  C
  H34      1.0000 0.66900  0.87420  0.72720  Biso   1.000  H
  C78      1.0000 0.70490  0.79860  0.72550  Biso   1.000  C
  H35      1.0000 0.73120  0.80720  0.67970  Biso   1.000  H
  C79      1.0000 0.59240  0.86740  0.86140  Biso   1.000  C
  C80      1.0000 0.65940  0.68030  0.87660  Biso   1.000  C
  F52      1.0000 0.80150  0.82400  0.67600  Biso   1.000  F
  F53      1.0000 0.74700  0.78310  0.56900  Biso   1.000  F
  F54      1.0000 0.73100  0.87150  0.60900  Biso   1.000  F
  H36      1.0000 0.66390  0.69940  0.85640  Biso   1.000  H
  C81      1.0000 0.74380  0.81810  0.65260  Biso   1.000  C
  F55      1.0000 0.29130  0.33870  0.92850  Biso   1.000  F
  F56      1.0000 0.34940  0.36690  0.81560  Biso   1.000  F
  F57      1.0000 0.38200  0.32720  0.94710  Biso   1.000  F
  O19      1.0000 0.44580  0.14630  0.90770  Biso   1.000  O
  O20      1.0000 0.39780  0.08310  0.83070  Biso   1.000  O
  C82      1.0000 0.29600  0.25370  0.76300  Biso   1.000  C
  C83      1.0000 0.33510  0.26500  0.83010  Biso   1.000  C
  C84      1.0000 0.37250  0.22650  0.85990  Biso   1.000  C
  H37      1.0000 0.39890  0.23500  0.90560  Biso   1.000  H
  C85      1.0000 0.36980  0.17380  0.81950  Biso   1.000  C
  C86      1.0000 0.33210  0.16140  0.75360  Biso   1.000  C
  H38      1.0000 0.33100  0.12580  0.72720  Biso   1.000  H
  C87      1.0000 0.29510  0.20140  0.72550  Biso   1.000  C
  H39      1.0000 0.26880  0.19280  0.67970  Biso   1.000  H
  C88      1.0000 0.40760  0.13260  0.86140  Biso   1.000  C
  C89      1.0000 0.34060  0.31970  0.87660  Biso   1.000  C
  F58      1.0000 0.19850  0.17600  0.67600  Biso   1.000  F
  F59      1.0000 0.25300  0.21690  0.56900  Biso   1.000  F
  F60      1.0000 0.26900  0.12850  0.60900  Biso   1.000  F
  H40      1.0000 0.33610  0.30060  0.85640  Biso   1.000  H
  C90      1.0000 0.25620  0.18190  0.65260  Biso   1.000  C
  F61      1.0000 0.33870  0.70870  0.42850  Biso   1.000  F
  F62      1.0000 0.36690  0.65060  0.31560  Biso   1.000  F
  F63      1.0000 0.32720  0.61800  0.44710  Biso   1.000  F
  O21      1.0000 0.14630  0.55420  0.40770  Biso   1.000  O
  O22      1.0000 0.08310  0.60220  0.33070  Biso   1.000  O
  C91      1.0000 0.25370  0.70400  0.26300  Biso   1.000  C
  C92      1.0000 0.26500  0.66490  0.33010  Biso   1.000  C
  C93      1.0000 0.22650  0.62750  0.35990  Biso   1.000  C
  H41      1.0000 0.23500  0.60110  0.40560  Biso   1.000  H
  C94      1.0000 0.17380  0.63020  0.31950  Biso   1.000  C
  C95      1.0000 0.16140  0.66790  0.25360  Biso   1.000  C
  H42      1.0000 0.12580  0.66900  0.22720  Biso   1.000  H
  C96      1.0000 0.20140  0.70490  0.22550  Biso   1.000  C
  H43      1.0000 0.19280  0.73120  0.17970  Biso   1.000  H
  C97      1.0000 0.13260  0.59240  0.36140  Biso   1.000  C
  C98      1.0000 0.31970  0.65940  0.37660  Biso   1.000  C
  F64      1.0000 0.17600  0.80150  0.17600  Biso   1.000  F
  F65      1.0000 0.21690  0.74700  0.06900  Biso   1.000  F
  F66      1.0000 0.12850  0.73100  0.10900  Biso   1.000  F
  H44      1.0000 0.30060  0.66390  0.35640  Biso   1.000  H
  C99      1.0000 0.18190  0.74380  0.15260  Biso   1.000  C
  F67      1.0000 0.66130  0.29130  0.42850  Biso   1.000  F
  F68      1.0000 0.63310  0.34940  0.31560  Biso   1.000  F
  F69      1.0000 0.67280  0.38200  0.44710  Biso   1.000  F
  O23      1.0000 0.85370  0.44580  0.40770  Biso   1.000  O
  O24      1.0000 0.91690  0.39780  0.33070  Biso   1.000  O
  C100     1.0000 0.74630  0.29600  0.26300  Biso   1.000  C
  C101     1.0000 0.73500  0.33510  0.33010  Biso   1.000  C
  C102     1.0000 0.77350  0.37250  0.35990  Biso   1.000  C
  H45      1.0000 0.76500  0.39890  0.40560  Biso   1.000  H
  C103     1.0000 0.82620  0.36980  0.31950  Biso   1.000  C
  C104     1.0000 0.83860  0.33210  0.25360  Biso   1.000  C
  H46      1.0000 0.87420  0.33100  0.22720  Biso   1.000  H
  C105     1.0000 0.79860  0.29510  0.22550  Biso   1.000  C
  H47      1.0000 0.80720  0.26880  0.17970  Biso   1.000  H
  C106     1.0000 0.86740  0.40760  0.36140  Biso   1.000  C
  C107     1.0000 0.68030  0.34060  0.37660  Biso   1.000  C
  F70      1.0000 0.82400  0.19850  0.17600  Biso   1.000  F
  F71      1.0000 0.78310  0.25300  0.06900  Biso   1.000  F
  F72      1.0000 0.87150  0.26900  0.10900  Biso   1.000  F
  H48      1.0000 0.69940  0.33610  0.35640  Biso   1.000  H
  C108     1.0000 0.81810  0.25620  0.15260  Biso   1.000  C
  F73      1.0000 0.29130  0.66130  0.07150  Biso   1.000  F
  F74      1.0000 0.34940  0.63310  0.18440  Biso   1.000  F
  F75      1.0000 0.38200  0.67280  0.05290  Biso   1.000  F
  O25      1.0000 0.44580  0.85370  0.09230  Biso   1.000  O
  O26      1.0000 0.39780  0.91690  0.16930  Biso   1.000  O
  C109     1.0000 0.29600  0.74630  0.23700  Biso   1.000  C
  C110     1.0000 0.33510  0.73500  0.16990  Biso   1.000  C
  C111     1.0000 0.37250  0.77350  0.14010  Biso   1.000  C
  H49      1.0000 0.39890  0.76500  0.09440  Biso   1.000  H
  C112     1.0000 0.36980  0.82620  0.18050  Biso   1.000  C
  C113     1.0000 0.33210  0.83860  0.24640  Biso   1.000  C
  H50      1.0000 0.33100  0.87420  0.27280  Biso   1.000  H
  C114     1.0000 0.29510  0.79860  0.27450  Biso   1.000  C
  H51      1.0000 0.26880  0.80720  0.32030  Biso   1.000  H
  C115     1.0000 0.40760  0.86740  0.13860  Biso   1.000  C
  C116     1.0000 0.34060  0.68030  0.12340  Biso   1.000  C
  F76      1.0000 0.19850  0.82400  0.32400  Biso   1.000  F
  F77      1.0000 0.25300  0.78310  0.43100  Biso   1.000  F
  F78      1.0000 0.26900  0.87150  0.39100  Biso   1.000  F
  H52      1.0000 0.33610  0.69940  0.14360  Biso   1.000  H
  C117     1.0000 0.25620  0.81810  0.34740  Biso   1.000  C
  F79      1.0000 0.70870  0.33870  0.07150  Biso   1.000  F
  F80      1.0000 0.65060  0.36690  0.18440  Biso   1.000  F
  F81      1.0000 0.61800  0.32720  0.05290  Biso   1.000  F
  O27      1.0000 0.55420  0.14630  0.09230  Biso   1.000  O
  O28      1.0000 0.60220  0.08310  0.16930  Biso   1.000  O
  C118     1.0000 0.70400  0.25370  0.23700  Biso   1.000  C
  C119     1.0000 0.66490  0.26500  0.16990  Biso   1.000  C
  C120     1.0000 0.62750  0.22650  0.14010  Biso   1.000  C
  H53      1.0000 0.60110  0.23500  0.09440  Biso   1.000  H
  C121     1.0000 0.63020  0.17380  0.18050  Biso   1.000  C
  C122     1.0000 0.66790  0.16140  0.24640  Biso   1.000  C
  H54      1.0000 0.66900  0.12580  0.27280  Biso   1.000  H
  C123     1.0000 0.70490  0.20140  0.27450  Biso   1.000  C
  H55      1.0000 0.73120  0.19280  0.32030  Biso   1.000  H
  C124     1.0000 0.59240  0.13260  0.13860  Biso   1.000  C
  C125     1.0000 0.65940  0.31970  0.12340  Biso   1.000  C
  F82      1.0000 0.80150  0.17600  0.32400  Biso   1.000  F
  F83      1.0000 0.74700  0.21690  0.43100  Biso   1.000  F
  F84      1.0000 0.73100  0.12850  0.39100  Biso   1.000  F
  H56      1.0000 0.66390  0.30060  0.14360  Biso   1.000  H
  C126     1.0000 0.74380  0.18190  0.34740  Biso   1.000  C
  F85      1.0000 0.66130  0.70870  0.57150  Biso   1.000  F
  F86      1.0000 0.63310  0.65060  0.68440  Biso   1.000  F
  F87      1.0000 0.67280  0.61800  0.55290  Biso   1.000  F
  O29      1.0000 0.85370  0.55420  0.59230  Biso   1.000  O
  O30      1.0000 0.91690  0.60220  0.66930  Biso   1.000  O
  C127     1.0000 0.74630  0.70400  0.73700  Biso   1.000  C
  C128     1.0000 0.73500  0.66490  0.66990  Biso   1.000  C
  C129     1.0000 0.77350  0.62750  0.64010  Biso   1.000  C
  H57      1.0000 0.76500  0.60110  0.59440  Biso   1.000  H
  C130     1.0000 0.82620  0.63020  0.68050  Biso   1.000  C
  C131     1.0000 0.83860  0.66790  0.74640  Biso   1.000  C
  H58      1.0000 0.87420  0.66900  0.77280  Biso   1.000  H
  C132     1.0000 0.79860  0.70490  0.77450  Biso   1.000  C
  H59      1.0000 0.80720  0.73120  0.82030  Biso   1.000  H
  C133     1.0000 0.86740  0.59240  0.63860  Biso   1.000  C
  C134     1.0000 0.68030  0.65940  0.62340  Biso   1.000  C
  F88      1.0000 0.82400  0.80150  0.82400  Biso   1.000  F
  F89      1.0000 0.78310  0.74700  0.93100  Biso   1.000  F
  F90      1.0000 0.87150  0.73100  0.89100  Biso   1.000  F
  H60      1.0000 0.69940  0.66390  0.64360  Biso   1.000  H
  C135     1.0000 0.81810  0.74380  0.84740  Biso   1.000  C
  F91      1.0000 0.33870  0.29130  0.57150  Biso   1.000  F
  F92      1.0000 0.36690  0.34940  0.68440  Biso   1.000  F
  F93      1.0000 0.32720  0.38200  0.55290  Biso   1.000  F
  O31      1.0000 0.14630  0.44580  0.59230  Biso   1.000  O
  O32      1.0000 0.08310  0.39780  0.66930  Biso   1.000  O
  C136     1.0000 0.25370  0.29600  0.73700  Biso   1.000  C
  C137     1.0000 0.26500  0.33510  0.66990  Biso   1.000  C
  C138     1.0000 0.22650  0.37250  0.64010  Biso   1.000  C
  H61      1.0000 0.23500  0.39890  0.59440  Biso   1.000  H
  C139     1.0000 0.17380  0.36980  0.68050  Biso   1.000  C
  C140     1.0000 0.16140  0.33210  0.74640  Biso   1.000  C
  H62      1.0000 0.12580  0.33100  0.77280  Biso   1.000  H
  C141     1.0000 0.20140  0.29510  0.77450  Biso   1.000  C
  H63      1.0000 0.19280  0.26880  0.82030  Biso   1.000  H
  C142     1.0000 0.13260  0.40760  0.63860  Biso   1.000  C
  C143     1.0000 0.31970  0.34060  0.62340  Biso   1.000  C
  F94      1.0000 0.17600  0.19850  0.82400  Biso   1.000  F
  F95      1.0000 0.21690  0.25300  0.93100  Biso   1.000  F
  F96      1.0000 0.12850  0.26900  0.89100  Biso   1.000  F
  H64      1.0000 0.30060  0.33610  0.64360  Biso   1.000  H
  C144     1.0000 0.18190  0.25620  0.84740  Biso   1.000  C
  Zr1      1.0000 0.50000  0.09986  0.00000  Biso   1.000  Zr
  Zr2      1.0000 0.50000  0.90014  0.00000  Biso   1.000  Zr
  Zr3      1.0000 0.90014  0.50000  0.50000  Biso   1.000  Zr
  Zr4      1.0000 0.09986  0.50000  0.50000  Biso   1.000  Zr
  Zr5      1.0000 0.42764  0.00000  0.12182  Biso   1.000  Zr
  Zr6      1.0000 0.57236  0.00000  0.12182  Biso   1.000  Zr
  Zr7      1.0000 0.00000  0.42764  0.62182  Biso   1.000  Zr
  Zr8      1.0000 0.00000  0.57236  0.62182  Biso   1.000  Zr
  Zr9      1.0000 0.57236  0.00000  0.87818  Biso   1.000  Zr
  Zr10     1.0000 0.42764  0.00000  0.87818  Biso   1.000  Zr
  Zr11     1.0000 0.00000  0.42764  0.37818  Biso   1.000  Zr
  Zr12     1.0000 0.00000  0.57236  0.37818  Biso   1.000  Zr
  O33      1.0000 0.42860  0.04980  0.00000  Biso   1.000  O
  O34      1.0000 0.57140  0.95020  0.00000  Biso   1.000  O
  O35      1.0000 0.95020  0.42860  0.50000  Biso   1.000  O
  O36      1.0000 0.04980  0.57140  0.50000  Biso   1.000  O
  O37      1.0000 0.57140  0.04980  0.00000  Biso   1.000  O
  O38      1.0000 0.42860  0.95020  0.00000  Biso   1.000  O
  O39      1.0000 0.04980  0.42860  0.50000  Biso   1.000  O
  O40      1.0000 0.95020  0.57140  0.50000  Biso   1.000  O
  O41      1.0000 0.50000  0.04790  0.11960  Biso   1.000  O
  O42      1.0000 0.50000  0.95210  0.11960  Biso   1.000  O
  O43      1.0000 0.95210  0.50000  0.61960  Biso   1.000  O
  O44      1.0000 0.04790  0.50000  0.61960  Biso   1.000  O
  O45      1.0000 0.50000  0.04790  0.88040  Biso   1.000  O
  O46      1.0000 0.50000  0.95210  0.88040  Biso   1.000  O
  O47      1.0000 0.04790  0.50000  0.38040  Biso   1.000  O
  O48      1.0000 0.95210  0.50000  0.38040  Biso   1.000  O
