data_image0
_cell_length_a       24.2603
_cell_length_b       24.2603
_cell_length_c       15.1465
_cell_angle_alpha    90
_cell_angle_beta     90
_cell_angle_gamma    90

_symmetry_space_group_name_H-M    "P 1"
_symmetry_int_tables_number       1

loop_
  _symmetry_equiv_pos_as_xyz
  'x, y, z'

loop_
  _atom_site_label
  _atom_site_occupancy
  _atom_site_fract_x
  _atom_site_fract_y
  _atom_site_fract_z
  _atom_site_thermal_displace_type
  _atom_site_B_iso_or_equiv
  _atom_site_type_symbol
  O1       1.0000 0.44490  0.14881  0.08590  Biso   1.000  O
  O2       1.0000 0.39700  0.08310  0.16150  Biso   1.000  O
  C1       1.0000 0.29720  0.25560  0.23370  Biso   1.000  C
  C2       1.0000 0.33440  0.26660  0.16930  Biso   1.000  C
  H1       1.0000 0.33380  0.30190  0.14230  Biso   1.000  H
  C3       1.0000 0.37320  0.22880  0.14110  Biso   1.000  C
  H2       1.0000 0.40170  0.23950  0.10170  Biso   1.000  H
  C4       1.0000 0.36990  0.17560  0.17110  Biso   1.000  C
  C5       1.0000 0.33340  0.16460  0.23690  Biso   1.000  C
  H3       1.0000 0.33310  0.12860  0.26170  Biso   1.000  H
  C6       1.0000 0.29580  0.20390  0.27040  Biso   1.000  C
  C7       1.0000 0.40680  0.13350  0.13890  Biso   1.000  C
  C8       1.0000 0.24740  0.17670  0.35450  Biso   1.000  C
  F1       1.0000 0.26770  0.12670  0.37000  Biso   1.000  F
  F2       1.0000 0.25410  0.21330  0.41910  Biso   1.000  F
  F3       1.0000 0.19990  0.17780  0.31100  Biso   1.000  F
  H4       1.0000 0.27060  0.19500  0.31630  Biso   1.000  H
  F4       1.0000 0.37390  0.32540  0.04990  Biso   1.000  F
  F5       1.0000 0.28300  0.33210  0.07330  Biso   1.000  F
  F6       1.0000 0.34250  0.36760  0.17350  Biso   1.000  F
  C9       1.0000 0.33300  0.33190  0.10880  Biso   1.000  C
  O3       1.0000 0.55510  0.85119  0.08590  Biso   1.000  O
  O4       1.0000 0.60300  0.91690  0.16150  Biso   1.000  O
  C10      1.0000 0.70280  0.74440  0.23370  Biso   1.000  C
  C11      1.0000 0.66560  0.73340  0.16930  Biso   1.000  C
  H5       1.0000 0.66620  0.69810  0.14230  Biso   1.000  H
  C12      1.0000 0.62680  0.77120  0.14110  Biso   1.000  C
  H6       1.0000 0.59830  0.76050  0.10170  Biso   1.000  H
  C13      1.0000 0.63010  0.82440  0.17110  Biso   1.000  C
  C14      1.0000 0.66660  0.83540  0.23690  Biso   1.000  C
  H7       1.0000 0.66690  0.87140  0.26170  Biso   1.000  H
  C15      1.0000 0.70420  0.79610  0.27040  Biso   1.000  C
  C16      1.0000 0.59320  0.86650  0.13890  Biso   1.000  C
  C17      1.0000 0.75260  0.82330  0.35450  Biso   1.000  C
  F7       1.0000 0.73230  0.87330  0.37000  Biso   1.000  F
  F8       1.0000 0.74590  0.78670  0.41910  Biso   1.000  F
  F9       1.0000 0.80010  0.82220  0.31100  Biso   1.000  F
  H8       1.0000 0.72940  0.80500  0.31630  Biso   1.000  H
  F10      1.0000 0.62610  0.67460  0.04990  Biso   1.000  F
  F11      1.0000 0.71700  0.66790  0.07330  Biso   1.000  F
  F12      1.0000 0.65750  0.63240  0.17350  Biso   1.000  F
  C18      1.0000 0.66700  0.66810  0.10880  Biso   1.000  C
  O5       1.0000 0.85119  0.44490  0.58590  Biso   1.000  O
  O6       1.0000 0.91690  0.39700  0.66150  Biso   1.000  O
  C19      1.0000 0.74440  0.29720  0.73370  Biso   1.000  C
  C20      1.0000 0.73340  0.33440  0.66930  Biso   1.000  C
  H9       1.0000 0.69810  0.33380  0.64230  Biso   1.000  H
  C21      1.0000 0.77120  0.37320  0.64110  Biso   1.000  C
  H10      1.0000 0.76050  0.40170  0.60170  Biso   1.000  H
  C22      1.0000 0.82440  0.36990  0.67110  Biso   1.000  C
  C23      1.0000 0.83540  0.33340  0.73690  Biso   1.000  C
  H11      1.0000 0.87140  0.33310  0.76170  Biso   1.000  H
  C24      1.0000 0.79610  0.29580  0.77040  Biso   1.000  C
  C25      1.0000 0.86650  0.40680  0.63890  Biso   1.000  C
  C26      1.0000 0.82330  0.24740  0.85450  Biso   1.000  C
  F13      1.0000 0.87330  0.26770  0.87000  Biso   1.000  F
  F14      1.0000 0.78670  0.25410  0.91910  Biso   1.000  F
  F15      1.0000 0.82220  0.19990  0.81100  Biso   1.000  F
  H12      1.0000 0.80500  0.27060  0.81630  Biso   1.000  H
  F16      1.0000 0.67460  0.37390  0.54990  Biso   1.000  F
  F17      1.0000 0.66790  0.28300  0.57330  Biso   1.000  F
  F18      1.0000 0.63240  0.34250  0.67350  Biso   1.000  F
  C27      1.0000 0.66810  0.33300  0.60880  Biso   1.000  C
  O7       1.0000 0.14881  0.55510  0.58590  Biso   1.000  O
  O8       1.0000 0.08310  0.60300  0.66150  Biso   1.000  O
  C28      1.0000 0.25560  0.70280  0.73370  Biso   1.000  C
  C29      1.0000 0.26660  0.66560  0.66930  Biso   1.000  C
  H13      1.0000 0.30190  0.66620  0.64230  Biso   1.000  H
  C30      1.0000 0.22880  0.62680  0.64110  Biso   1.000  C
  H14      1.0000 0.23950  0.59830  0.60170  Biso   1.000  H
  C31      1.0000 0.17560  0.63010  0.67110  Biso   1.000  C
  C32      1.0000 0.16460  0.66660  0.73690  Biso   1.000  C
  H15      1.0000 0.12860  0.66690  0.76170  Biso   1.000  H
  C33      1.0000 0.20390  0.70420  0.77040  Biso   1.000  C
  C34      1.0000 0.13350  0.59320  0.63890  Biso   1.000  C
  C35      1.0000 0.17670  0.75260  0.85450  Biso   1.000  C
  F19      1.0000 0.12670  0.73230  0.87000  Biso   1.000  F
  F20      1.0000 0.21330  0.74590  0.91910  Biso   1.000  F
  F21      1.0000 0.17780  0.80010  0.81100  Biso   1.000  F
  H16      1.0000 0.19500  0.72940  0.81630  Biso   1.000  H
  F22      1.0000 0.32540  0.62610  0.54990  Biso   1.000  F
  F23      1.0000 0.33210  0.71700  0.57330  Biso   1.000  F
  F24      1.0000 0.36760  0.65750  0.67350  Biso   1.000  F
  C36      1.0000 0.33190  0.66700  0.60880  Biso   1.000  C
  O9       1.0000 0.55510  0.14881  0.91410  Biso   1.000  O
  O10      1.0000 0.60300  0.08310  0.83850  Biso   1.000  O
  C37      1.0000 0.70280  0.25560  0.76630  Biso   1.000  C
  C38      1.0000 0.66560  0.26660  0.83070  Biso   1.000  C
  H17      1.0000 0.66620  0.30190  0.85770  Biso   1.000  H
  C39      1.0000 0.62680  0.22880  0.85890  Biso   1.000  C
  H18      1.0000 0.59830  0.23950  0.89830  Biso   1.000  H
  C40      1.0000 0.63010  0.17560  0.82890  Biso   1.000  C
  C41      1.0000 0.66660  0.16460  0.76310  Biso   1.000  C
  H19      1.0000 0.66690  0.12860  0.73830  Biso   1.000  H
  C42      1.0000 0.70420  0.20390  0.72960  Biso   1.000  C
  C43      1.0000 0.59320  0.13350  0.86110  Biso   1.000  C
  C44      1.0000 0.75260  0.17670  0.64550  Biso   1.000  C
  F25      1.0000 0.73230  0.12670  0.63000  Biso   1.000  F
  F26      1.0000 0.74590  0.21330  0.58090  Biso   1.000  F
  F27      1.0000 0.80010  0.17780  0.68900  Biso   1.000  F
  H20      1.0000 0.72940  0.19500  0.68370  Biso   1.000  H
  F28      1.0000 0.62610  0.32540  0.95010  Biso   1.000  F
  F29      1.0000 0.71700  0.33210  0.92670  Biso   1.000  F
  F30      1.0000 0.65750  0.36760  0.82650  Biso   1.000  F
  C45      1.0000 0.66700  0.33190  0.89120  Biso   1.000  C
  O11      1.0000 0.44490  0.85119  0.91410  Biso   1.000  O
  O12      1.0000 0.39700  0.91690  0.83850  Biso   1.000  O
  C46      1.0000 0.29720  0.74440  0.76630  Biso   1.000  C
  C47      1.0000 0.33440  0.73340  0.83070  Biso   1.000  C
  H21      1.0000 0.33380  0.69810  0.85770  Biso   1.000  H
  C48      1.0000 0.37320  0.77120  0.85890  Biso   1.000  C
  H22      1.0000 0.40170  0.76050  0.89830  Biso   1.000  H
  C49      1.0000 0.36990  0.82440  0.82890  Biso   1.000  C
  C50      1.0000 0.33340  0.83540  0.76310  Biso   1.000  C
  H23      1.0000 0.33310  0.87140  0.73830  Biso   1.000  H
  C51      1.0000 0.29580  0.79610  0.72960  Biso   1.000  C
  C52      1.0000 0.40680  0.86650  0.86110  Biso   1.000  C
  C53      1.0000 0.24740  0.82330  0.64550  Biso   1.000  C
  F31      1.0000 0.26770  0.87330  0.63000  Biso   1.000  F
  F32      1.0000 0.25410  0.78670  0.58090  Biso   1.000  F
  F33      1.0000 0.19990  0.82220  0.68900  Biso   1.000  F
  H24      1.0000 0.27060  0.80500  0.68370  Biso   1.000  H
  F34      1.0000 0.37390  0.67460  0.95010  Biso   1.000  F
  F35      1.0000 0.28300  0.66790  0.92670  Biso   1.000  F
  F36      1.0000 0.34250  0.63240  0.82650  Biso   1.000  F
  C54      1.0000 0.33300  0.66810  0.89120  Biso   1.000  C
  O13      1.0000 0.14881  0.44490  0.41410  Biso   1.000  O
  O14      1.0000 0.08310  0.39700  0.33850  Biso   1.000  O
  C55      1.0000 0.25560  0.29720  0.26630  Biso   1.000  C
  C56      1.0000 0.26660  0.33440  0.33070  Biso   1.000  C
  H25      1.0000 0.30190  0.33380  0.35770  Biso   1.000  H
  C57      1.0000 0.22880  0.37320  0.35890  Biso   1.000  C
  H26      1.0000 0.23950  0.40170  0.39830  Biso   1.000  H
  C58      1.0000 0.17560  0.36990  0.32890  Biso   1.000  C
  C59      1.0000 0.16460  0.33340  0.26310  Biso   1.000  C
  H27      1.0000 0.12860  0.33310  0.23830  Biso   1.000  H
  C60      1.0000 0.20390  0.29580  0.22960  Biso   1.000  C
  C61      1.0000 0.13350  0.40680  0.36110  Biso   1.000  C
  C62      1.0000 0.17670  0.24740  0.14550  Biso   1.000  C
  F37      1.0000 0.12670  0.26770  0.13000  Biso   1.000  F
  F38      1.0000 0.21330  0.25410  0.08090  Biso   1.000  F
  F39      1.0000 0.17780  0.19990  0.18900  Biso   1.000  F
  H28      1.0000 0.19500  0.27060  0.18370  Biso   1.000  H
  F40      1.0000 0.32540  0.37390  0.45010  Biso   1.000  F
  F41      1.0000 0.33210  0.28300  0.42670  Biso   1.000  F
  F42      1.0000 0.36760  0.34250  0.32650  Biso   1.000  F
  C63      1.0000 0.33190  0.33300  0.39120  Biso   1.000  C
  O15      1.0000 0.85119  0.55510  0.41410  Biso   1.000  O
  O16      1.0000 0.91690  0.60300  0.33850  Biso   1.000  O
  C64      1.0000 0.74440  0.70280  0.26630  Biso   1.000  C
  C65      1.0000 0.73340  0.66560  0.33070  Biso   1.000  C
  H29      1.0000 0.69810  0.66620  0.35770  Biso   1.000  H
  C66      1.0000 0.77120  0.62680  0.35890  Biso   1.000  C
  H30      1.0000 0.76050  0.59830  0.39830  Biso   1.000  H
  C67      1.0000 0.82440  0.63010  0.32890  Biso   1.000  C
  C68      1.0000 0.83540  0.66660  0.26310  Biso   1.000  C
  H31      1.0000 0.87140  0.66690  0.23830  Biso   1.000  H
  C69      1.0000 0.79610  0.70420  0.22960  Biso   1.000  C
  C70      1.0000 0.86650  0.59320  0.36110  Biso   1.000  C
  C71      1.0000 0.82330  0.75260  0.14550  Biso   1.000  C
  F43      1.0000 0.87330  0.73230  0.13000  Biso   1.000  F
  F44      1.0000 0.78670  0.74590  0.08090  Biso   1.000  F
  F45      1.0000 0.82220  0.80010  0.18900  Biso   1.000  F
  H32      1.0000 0.80500  0.72940  0.18370  Biso   1.000  H
  F46      1.0000 0.67460  0.62610  0.45010  Biso   1.000  F
  F47      1.0000 0.66790  0.71700  0.42670  Biso   1.000  F
  F48      1.0000 0.63240  0.65750  0.32650  Biso   1.000  F
  C72      1.0000 0.66810  0.66700  0.39120  Biso   1.000  C
  O17      1.0000 0.55510  0.85119  0.91410  Biso   1.000  O
  O18      1.0000 0.60300  0.91690  0.83850  Biso   1.000  O
  C73      1.0000 0.70280  0.74440  0.76630  Biso   1.000  C
  C74      1.0000 0.66560  0.73340  0.83070  Biso   1.000  C
  H33      1.0000 0.66620  0.69810  0.85770  Biso   1.000  H
  C75      1.0000 0.62680  0.77120  0.85890  Biso   1.000  C
  H34      1.0000 0.59830  0.76050  0.89830  Biso   1.000  H
  C76      1.0000 0.63010  0.82440  0.82890  Biso   1.000  C
  C77      1.0000 0.66660  0.83540  0.76310  Biso   1.000  C
  H35      1.0000 0.66690  0.87140  0.73830  Biso   1.000  H
  C78      1.0000 0.70420  0.79610  0.72960  Biso   1.000  C
  C79      1.0000 0.59320  0.86650  0.86110  Biso   1.000  C
  C80      1.0000 0.75260  0.82330  0.64550  Biso   1.000  C
  F49      1.0000 0.73230  0.87330  0.63000  Biso   1.000  F
  F50      1.0000 0.74590  0.78670  0.58090  Biso   1.000  F
  F51      1.0000 0.80010  0.82220  0.68900  Biso   1.000  F
  H36      1.0000 0.72940  0.80500  0.68370  Biso   1.000  H
  F52      1.0000 0.62610  0.67460  0.95010  Biso   1.000  F
  F53      1.0000 0.71700  0.66790  0.92670  Biso   1.000  F
  F54      1.0000 0.65750  0.63240  0.82650  Biso   1.000  F
  C81      1.0000 0.66700  0.66810  0.89120  Biso   1.000  C
  O19      1.0000 0.44490  0.14881  0.91410  Biso   1.000  O
  O20      1.0000 0.39700  0.08310  0.83850  Biso   1.000  O
  C82      1.0000 0.29720  0.25560  0.76630  Biso   1.000  C
  C83      1.0000 0.33440  0.26660  0.83070  Biso   1.000  C
  H37      1.0000 0.33380  0.30190  0.85770  Biso   1.000  H
  C84      1.0000 0.37320  0.22880  0.85890  Biso   1.000  C
  H38      1.0000 0.40170  0.23950  0.89830  Biso   1.000  H
  C85      1.0000 0.36990  0.17560  0.82890  Biso   1.000  C
  C86      1.0000 0.33340  0.16460  0.76310  Biso   1.000  C
  H39      1.0000 0.33310  0.12860  0.73830  Biso   1.000  H
  C87      1.0000 0.29580  0.20390  0.72960  Biso   1.000  C
  C88      1.0000 0.40680  0.13350  0.86110  Biso   1.000  C
  C89      1.0000 0.24740  0.17670  0.64550  Biso   1.000  C
  F55      1.0000 0.26770  0.12670  0.63000  Biso   1.000  F
  F56      1.0000 0.25410  0.21330  0.58090  Biso   1.000  F
  F57      1.0000 0.19990  0.17780  0.68900  Biso   1.000  F
  H40      1.0000 0.27060  0.19500  0.68370  Biso   1.000  H
  F58      1.0000 0.37390  0.32540  0.95010  Biso   1.000  F
  F59      1.0000 0.28300  0.33210  0.92670  Biso   1.000  F
  F60      1.0000 0.34250  0.36760  0.82650  Biso   1.000  F
  C90      1.0000 0.33300  0.33190  0.89120  Biso   1.000  C
  O21      1.0000 0.14881  0.55510  0.41410  Biso   1.000  O
  O22      1.0000 0.08310  0.60300  0.33850  Biso   1.000  O
  C91      1.0000 0.25560  0.70280  0.26630  Biso   1.000  C
  C92      1.0000 0.26660  0.66560  0.33070  Biso   1.000  C
  H41      1.0000 0.30190  0.66620  0.35770  Biso   1.000  H
  C93      1.0000 0.22880  0.62680  0.35890  Biso   1.000  C
  H42      1.0000 0.23950  0.59830  0.39830  Biso   1.000  H
  C94      1.0000 0.17560  0.63010  0.32890  Biso   1.000  C
  C95      1.0000 0.16460  0.66660  0.26310  Biso   1.000  C
  H43      1.0000 0.12860  0.66690  0.23830  Biso   1.000  H
  C96      1.0000 0.20390  0.70420  0.22960  Biso   1.000  C
  C97      1.0000 0.13350  0.59320  0.36110  Biso   1.000  C
  C98      1.0000 0.17670  0.75260  0.14550  Biso   1.000  C
  F61      1.0000 0.12670  0.73230  0.13000  Biso   1.000  F
  F62      1.0000 0.21330  0.74590  0.08090  Biso   1.000  F
  F63      1.0000 0.17780  0.80010  0.18900  Biso   1.000  F
  H44      1.0000 0.19500  0.72940  0.18370  Biso   1.000  H
  F64      1.0000 0.32540  0.62610  0.45010  Biso   1.000  F
  F65      1.0000 0.33210  0.71700  0.42670  Biso   1.000  F
  F66      1.0000 0.36760  0.65750  0.32650  Biso   1.000  F
  C99      1.0000 0.33190  0.66700  0.39120  Biso   1.000  C
  O23      1.0000 0.85119  0.44490  0.41410  Biso   1.000  O
  O24      1.0000 0.91690  0.39700  0.33850  Biso   1.000  O
  C100     1.0000 0.74440  0.29720  0.26630  Biso   1.000  C
  C101     1.0000 0.73340  0.33440  0.33070  Biso   1.000  C
  H45      1.0000 0.69810  0.33380  0.35770  Biso   1.000  H
  C102     1.0000 0.77120  0.37320  0.35890  Biso   1.000  C
  H46      1.0000 0.76050  0.40170  0.39830  Biso   1.000  H
  C103     1.0000 0.82440  0.36990  0.32890  Biso   1.000  C
  C104     1.0000 0.83540  0.33340  0.26310  Biso   1.000  C
  H47      1.0000 0.87140  0.33310  0.23830  Biso   1.000  H
  C105     1.0000 0.79610  0.29580  0.22960  Biso   1.000  C
  C106     1.0000 0.86650  0.40680  0.36110  Biso   1.000  C
  C107     1.0000 0.82330  0.24740  0.14550  Biso   1.000  C
  F67      1.0000 0.87330  0.26770  0.13000  Biso   1.000  F
  F68      1.0000 0.78670  0.25410  0.08090  Biso   1.000  F
  F69      1.0000 0.82220  0.19990  0.18900  Biso   1.000  F
  H48      1.0000 0.80500  0.27060  0.18370  Biso   1.000  H
  F70      1.0000 0.67460  0.37390  0.45010  Biso   1.000  F
  F71      1.0000 0.66790  0.28300  0.42670  Biso   1.000  F
  F72      1.0000 0.63240  0.34250  0.32650  Biso   1.000  F
  C108     1.0000 0.66810  0.33300  0.39120  Biso   1.000  C
  O25      1.0000 0.44490  0.85119  0.08590  Biso   1.000  O
  O26      1.0000 0.39700  0.91690  0.16150  Biso   1.000  O
  C109     1.0000 0.29720  0.74440  0.23370  Biso   1.000  C
  C110     1.0000 0.33440  0.73340  0.16930  Biso   1.000  C
  H49      1.0000 0.33380  0.69810  0.14230  Biso   1.000  H
  C111     1.0000 0.37320  0.77120  0.14110  Biso   1.000  C
  H50      1.0000 0.40170  0.76050  0.10170  Biso   1.000  H
  C112     1.0000 0.36990  0.82440  0.17110  Biso   1.000  C
  C113     1.0000 0.33340  0.83540  0.23690  Biso   1.000  C
  H51      1.0000 0.33310  0.87140  0.26170  Biso   1.000  H
  C114     1.0000 0.29580  0.79610  0.27040  Biso   1.000  C
  C115     1.0000 0.40680  0.86650  0.13890  Biso   1.000  C
  C116     1.0000 0.24740  0.82330  0.35450  Biso   1.000  C
  F73      1.0000 0.26770  0.87330  0.37000  Biso   1.000  F
  F74      1.0000 0.25410  0.78670  0.41910  Biso   1.000  F
  F75      1.0000 0.19990  0.82220  0.31100  Biso   1.000  F
  H52      1.0000 0.27060  0.80500  0.31630  Biso   1.000  H
  F76      1.0000 0.37390  0.67460  0.04990  Biso   1.000  F
  F77      1.0000 0.28300  0.66790  0.07330  Biso   1.000  F
  F78      1.0000 0.34250  0.63240  0.17350  Biso   1.000  F
  C117     1.0000 0.33300  0.66810  0.10880  Biso   1.000  C
  O27      1.0000 0.55510  0.14881  0.08590  Biso   1.000  O
  O28      1.0000 0.60300  0.08310  0.16150  Biso   1.000  O
  C118     1.0000 0.70280  0.25560  0.23370  Biso   1.000  C
  C119     1.0000 0.66560  0.26660  0.16930  Biso   1.000  C
  H53      1.0000 0.66620  0.30190  0.14230  Biso   1.000  H
  C120     1.0000 0.62680  0.22880  0.14110  Biso   1.000  C
  H54      1.0000 0.59830  0.23950  0.10170  Biso   1.000  H
  C121     1.0000 0.63010  0.17560  0.17110  Biso   1.000  C
  C122     1.0000 0.66660  0.16460  0.23690  Biso   1.000  C
  H55      1.0000 0.66690  0.12860  0.26170  Biso   1.000  H
  C123     1.0000 0.70420  0.20390  0.27040  Biso   1.000  C
  C124     1.0000 0.59320  0.13350  0.13890  Biso   1.000  C
  C125     1.0000 0.75260  0.17670  0.35450  Biso   1.000  C
  F79      1.0000 0.73230  0.12670  0.37000  Biso   1.000  F
  F80      1.0000 0.74590  0.21330  0.41910  Biso   1.000  F
  F81      1.0000 0.80010  0.17780  0.31100  Biso   1.000  F
  H56      1.0000 0.72940  0.19500  0.31630  Biso   1.000  H
  F82      1.0000 0.62610  0.32540  0.04990  Biso   1.000  F
  F83      1.0000 0.71700  0.33210  0.07330  Biso   1.000  F
  F84      1.0000 0.65750  0.36760  0.17350  Biso   1.000  F
  C126     1.0000 0.66700  0.33190  0.10880  Biso   1.000  C
  O29      1.0000 0.85119  0.55510  0.58590  Biso   1.000  O
  O30      1.0000 0.91690  0.60300  0.66150  Biso   1.000  O
  C127     1.0000 0.74440  0.70280  0.73370  Biso   1.000  C
  C128     1.0000 0.73340  0.66560  0.66930  Biso   1.000  C
  H57      1.0000 0.69810  0.66620  0.64230  Biso   1.000  H
  C129     1.0000 0.77120  0.62680  0.64110  Biso   1.000  C
  H58      1.0000 0.76050  0.59830  0.60170  Biso   1.000  H
  C130     1.0000 0.82440  0.63010  0.67110  Biso   1.000  C
  C131     1.0000 0.83540  0.66660  0.73690  Biso   1.000  C
  H59      1.0000 0.87140  0.66690  0.76170  Biso   1.000  H
  C132     1.0000 0.79610  0.70420  0.77040  Biso   1.000  C
  C133     1.0000 0.86650  0.59320  0.63890  Biso   1.000  C
  C134     1.0000 0.82330  0.75260  0.85450  Biso   1.000  C
  F85      1.0000 0.87330  0.73230  0.87000  Biso   1.000  F
  F86      1.0000 0.78670  0.74590  0.91910  Biso   1.000  F
  F87      1.0000 0.82220  0.80010  0.81100  Biso   1.000  F
  H60      1.0000 0.80500  0.72940  0.81630  Biso   1.000  H
  F88      1.0000 0.67460  0.62610  0.54990  Biso   1.000  F
  F89      1.0000 0.66790  0.71700  0.57330  Biso   1.000  F
  F90      1.0000 0.63240  0.65750  0.67350  Biso   1.000  F
  C135     1.0000 0.66810  0.66700  0.60880  Biso   1.000  C
  O31      1.0000 0.14881  0.44490  0.58590  Biso   1.000  O
  O32      1.0000 0.08310  0.39700  0.66150  Biso   1.000  O
  C136     1.0000 0.25560  0.29720  0.73370  Biso   1.000  C
  C137     1.0000 0.26660  0.33440  0.66930  Biso   1.000  C
  H61      1.0000 0.30190  0.33380  0.64230  Biso   1.000  H
  C138     1.0000 0.22880  0.37320  0.64110  Biso   1.000  C
  H62      1.0000 0.23950  0.40170  0.60170  Biso   1.000  H
  C139     1.0000 0.17560  0.36990  0.67110  Biso   1.000  C
  C140     1.0000 0.16460  0.33340  0.73690  Biso   1.000  C
  H63      1.0000 0.12860  0.33310  0.76170  Biso   1.000  H
  C141     1.0000 0.20390  0.29580  0.77040  Biso   1.000  C
  C142     1.0000 0.13350  0.40680  0.63890  Biso   1.000  C
  C143     1.0000 0.17670  0.24740  0.85450  Biso   1.000  C
  F91      1.0000 0.12670  0.26770  0.87000  Biso   1.000  F
  F92      1.0000 0.21330  0.25410  0.91910  Biso   1.000  F
  F93      1.0000 0.17780  0.19990  0.81100  Biso   1.000  F
  H64      1.0000 0.19500  0.27060  0.81630  Biso   1.000  H
  F94      1.0000 0.32540  0.37390  0.54990  Biso   1.000  F
  F95      1.0000 0.33210  0.28300  0.57330  Biso   1.000  F
  F96      1.0000 0.36760  0.34250  0.67350  Biso   1.000  F
  C144     1.0000 0.33190  0.33300  0.60880  Biso   1.000  C
  Zr1      1.0000 0.50000  0.10058  0.00000  Biso   1.000  Zr
  Zr2      1.0000 0.50000  0.89942  0.00000  Biso   1.000  Zr
  Zr3      1.0000 0.89942  0.50000  0.50000  Biso   1.000  Zr
  Zr4      1.0000 0.10058  0.50000  0.50000  Biso   1.000  Zr
  Zr5      1.0000 0.42719  0.00000  0.11608  Biso   1.000  Zr
  Zr6      1.0000 0.57281  0.00000  0.11608  Biso   1.000  Zr
  Zr7      1.0000 0.00000  0.42719  0.61608  Biso   1.000  Zr
  Zr8      1.0000 0.00000  0.57281  0.61608  Biso   1.000  Zr
  Zr9      1.0000 0.57281  0.00000  0.88392  Biso   1.000  Zr
  Zr10     1.0000 0.42719  0.00000  0.88392  Biso   1.000  Zr
  Zr11     1.0000 0.00000  0.42719  0.38392  Biso   1.000  Zr
  Zr12     1.0000 0.00000  0.57281  0.38392  Biso   1.000  Zr
  O33      1.0000 0.42610  0.05010  0.00000  Biso   1.000  O
  O34      1.0000 0.57390  0.94990  0.00000  Biso   1.000  O
  O35      1.0000 0.94990  0.42610  0.50000  Biso   1.000  O
  O36      1.0000 0.05010  0.57390  0.50000  Biso   1.000  O
  O37      1.0000 0.57390  0.05010  0.00000  Biso   1.000  O
  O38      1.0000 0.42610  0.94990  0.00000  Biso   1.000  O
  O39      1.0000 0.05010  0.42610  0.50000  Biso   1.000  O
  O40      1.0000 0.94990  0.57390  0.50000  Biso   1.000  O
  O41      1.0000 0.50000  0.04850  0.11440  Biso   1.000  O
  O42      1.0000 0.50000  0.95150  0.11440  Biso   1.000  O
  O43      1.0000 0.95150  0.50000  0.61440  Biso   1.000  O
  O44      1.0000 0.04850  0.50000  0.61440  Biso   1.000  O
  O45      1.0000 0.50000  0.04850  0.88560  Biso   1.000  O
  O46      1.0000 0.50000  0.95150  0.88560  Biso   1.000  O
  O47      1.0000 0.04850  0.50000  0.38560  Biso   1.000  O
  O48      1.0000 0.95150  0.50000  0.38560  Biso   1.000  O
