data_image0
_cell_length_a       22.8995
_cell_length_b       22.8995
_cell_length_c       19.0201
_cell_angle_alpha    90
_cell_angle_beta     90
_cell_angle_gamma    90

_symmetry_space_group_name_H-M    "P 1"
_symmetry_int_tables_number       1

loop_
  _symmetry_equiv_pos_as_xyz
  'x, y, z'

loop_
  _atom_site_label
  _atom_site_occupancy
  _atom_site_fract_x
  _atom_site_fract_y
  _atom_site_fract_z
  _atom_site_thermal_displace_type
  _atom_site_B_iso_or_equiv
  _atom_site_type_symbol
  F1       1.0000 0.35770  0.37300  0.08970  Biso   1.000  F
  F2       1.0000 0.39090  0.36320  0.19960  Biso   1.000  F
  F3       1.0000 0.36870  0.28370  0.13550  Biso   1.000  F
  O1       1.0000 0.15810  0.44160  0.07000  Biso   1.000  O
  O2       1.0000 0.08690  0.39440  0.13040  Biso   1.000  O
  C1       1.0000 0.14000  0.40480  0.11520  Biso   1.000  C
  C2       1.0000 0.18490  0.37190  0.15650  Biso   1.000  C
  C3       1.0000 0.24190  0.37660  0.14240  Biso   1.000  C
  H1       1.0000 0.25540  0.40230  0.10670  Biso   1.000  H
  C4       1.0000 0.28160  0.34250  0.18170  Biso   1.000  C
  C5       1.0000 0.26300  0.30350  0.23210  Biso   1.000  C
  C6       1.0000 0.20460  0.30740  0.25030  Biso   1.000  C
  H2       1.0000 0.19130  0.28780  0.29130  Biso   1.000  H
  C7       1.0000 0.16500  0.33900  0.21040  Biso   1.000  C
  H3       1.0000 0.12450  0.33760  0.22080  Biso   1.000  H
  C8       1.0000 0.34220  0.34100  0.15620  Biso   1.000  C
  F4       1.0000 0.17320  0.20640  0.29710  Biso   1.000  F
  F5       1.0000 0.11610  0.28140  0.32660  Biso   1.000  F
  F6       1.0000 0.20390  0.27130  0.37830  Biso   1.000  F
  H4       1.0000 0.32220  0.34650  0.17310  Biso   1.000  H
  C9       1.0000 0.17940  0.27070  0.30640  Biso   1.000  C
  F7       1.0000 0.64230  0.62700  0.08970  Biso   1.000  F
  F8       1.0000 0.60910  0.63680  0.19960  Biso   1.000  F
  F9       1.0000 0.63130  0.71630  0.13550  Biso   1.000  F
  O3       1.0000 0.84190  0.55840  0.07000  Biso   1.000  O
  O4       1.0000 0.91310  0.60560  0.13040  Biso   1.000  O
  C10      1.0000 0.86000  0.59520  0.11520  Biso   1.000  C
  C11      1.0000 0.81510  0.62810  0.15650  Biso   1.000  C
  C12      1.0000 0.75810  0.62340  0.14240  Biso   1.000  C
  H5       1.0000 0.74460  0.59770  0.10670  Biso   1.000  H
  C13      1.0000 0.71840  0.65750  0.18170  Biso   1.000  C
  C14      1.0000 0.73700  0.69650  0.23210  Biso   1.000  C
  C15      1.0000 0.79540  0.69260  0.25030  Biso   1.000  C
  H6       1.0000 0.80870  0.71220  0.29130  Biso   1.000  H
  C16      1.0000 0.83500  0.66100  0.21040  Biso   1.000  C
  H7       1.0000 0.87550  0.66240  0.22080  Biso   1.000  H
  C17      1.0000 0.65780  0.65900  0.15620  Biso   1.000  C
  F10      1.0000 0.82680  0.79360  0.29710  Biso   1.000  F
  F11      1.0000 0.88390  0.71860  0.32660  Biso   1.000  F
  F12      1.0000 0.79610  0.72870  0.37830  Biso   1.000  F
  H8       1.0000 0.67780  0.65350  0.17310  Biso   1.000  H
  C18      1.0000 0.82060  0.72930  0.30640  Biso   1.000  C
  F13      1.0000 0.62700  0.35770  0.58970  Biso   1.000  F
  F14      1.0000 0.63680  0.39090  0.69960  Biso   1.000  F
  F15      1.0000 0.71630  0.36870  0.63550  Biso   1.000  F
  O5       1.0000 0.55840  0.15810  0.57000  Biso   1.000  O
  O6       1.0000 0.60560  0.08690  0.63040  Biso   1.000  O
  C19      1.0000 0.59520  0.14000  0.61520  Biso   1.000  C
  C20      1.0000 0.62810  0.18490  0.65650  Biso   1.000  C
  C21      1.0000 0.62340  0.24190  0.64240  Biso   1.000  C
  H9       1.0000 0.59770  0.25540  0.60670  Biso   1.000  H
  C22      1.0000 0.65750  0.28160  0.68170  Biso   1.000  C
  C23      1.0000 0.69650  0.26300  0.73210  Biso   1.000  C
  C24      1.0000 0.69260  0.20460  0.75030  Biso   1.000  C
  H10      1.0000 0.71220  0.19130  0.79130  Biso   1.000  H
  C25      1.0000 0.66100  0.16500  0.71040  Biso   1.000  C
  H11      1.0000 0.66240  0.12450  0.72080  Biso   1.000  H
  C26      1.0000 0.65900  0.34220  0.65620  Biso   1.000  C
  F16      1.0000 0.79360  0.17320  0.79710  Biso   1.000  F
  F17      1.0000 0.71860  0.11610  0.82660  Biso   1.000  F
  F18      1.0000 0.72870  0.20390  0.87830  Biso   1.000  F
  H12      1.0000 0.65350  0.32220  0.67310  Biso   1.000  H
  C27      1.0000 0.72930  0.17940  0.80640  Biso   1.000  C
  F19      1.0000 0.37300  0.64230  0.58970  Biso   1.000  F
  F20      1.0000 0.36320  0.60910  0.69960  Biso   1.000  F
  F21      1.0000 0.28370  0.63130  0.63550  Biso   1.000  F
  O7       1.0000 0.44160  0.84190  0.57000  Biso   1.000  O
  O8       1.0000 0.39440  0.91310  0.63040  Biso   1.000  O
  C28      1.0000 0.40480  0.86000  0.61520  Biso   1.000  C
  C29      1.0000 0.37190  0.81510  0.65650  Biso   1.000  C
  C30      1.0000 0.37660  0.75810  0.64240  Biso   1.000  C
  H13      1.0000 0.40230  0.74460  0.60670  Biso   1.000  H
  C31      1.0000 0.34250  0.71840  0.68170  Biso   1.000  C
  C32      1.0000 0.30350  0.73700  0.73210  Biso   1.000  C
  C33      1.0000 0.30740  0.79540  0.75030  Biso   1.000  C
  H14      1.0000 0.28780  0.80870  0.79130  Biso   1.000  H
  C34      1.0000 0.33900  0.83500  0.71040  Biso   1.000  C
  H15      1.0000 0.33760  0.87550  0.72080  Biso   1.000  H
  C35      1.0000 0.34100  0.65780  0.65620  Biso   1.000  C
  F22      1.0000 0.20640  0.82680  0.79710  Biso   1.000  F
  F23      1.0000 0.28140  0.88390  0.82660  Biso   1.000  F
  F24      1.0000 0.27130  0.79610  0.87830  Biso   1.000  F
  H16      1.0000 0.34650  0.67780  0.67310  Biso   1.000  H
  C36      1.0000 0.27070  0.82060  0.80640  Biso   1.000  C
  F25      1.0000 0.64230  0.37300  0.91030  Biso   1.000  F
  F26      1.0000 0.60910  0.36320  0.80040  Biso   1.000  F
  F27      1.0000 0.63130  0.28370  0.86450  Biso   1.000  F
  O9       1.0000 0.84190  0.44160  0.93000  Biso   1.000  O
  O10      1.0000 0.91310  0.39440  0.86960  Biso   1.000  O
  C37      1.0000 0.86000  0.40480  0.88480  Biso   1.000  C
  C38      1.0000 0.81510  0.37190  0.84350  Biso   1.000  C
  C39      1.0000 0.75810  0.37660  0.85760  Biso   1.000  C
  H17      1.0000 0.74460  0.40230  0.89330  Biso   1.000  H
  C40      1.0000 0.71840  0.34250  0.81830  Biso   1.000  C
  C41      1.0000 0.73700  0.30350  0.76790  Biso   1.000  C
  C42      1.0000 0.79540  0.30740  0.74970  Biso   1.000  C
  H18      1.0000 0.80870  0.28780  0.70870  Biso   1.000  H
  C43      1.0000 0.83500  0.33900  0.78960  Biso   1.000  C
  H19      1.0000 0.87550  0.33760  0.77920  Biso   1.000  H
  C44      1.0000 0.65780  0.34100  0.84380  Biso   1.000  C
  F28      1.0000 0.82680  0.20640  0.70290  Biso   1.000  F
  F29      1.0000 0.88390  0.28140  0.67340  Biso   1.000  F
  F30      1.0000 0.79610  0.27130  0.62170  Biso   1.000  F
  H20      1.0000 0.67780  0.34650  0.82690  Biso   1.000  H
  C45      1.0000 0.82060  0.27070  0.69360  Biso   1.000  C
  F31      1.0000 0.35770  0.62700  0.91030  Biso   1.000  F
  F32      1.0000 0.39090  0.63680  0.80040  Biso   1.000  F
  F33      1.0000 0.36870  0.71630  0.86450  Biso   1.000  F
  O11      1.0000 0.15810  0.55840  0.93000  Biso   1.000  O
  O12      1.0000 0.08690  0.60560  0.86960  Biso   1.000  O
  C46      1.0000 0.14000  0.59520  0.88480  Biso   1.000  C
  C47      1.0000 0.18490  0.62810  0.84350  Biso   1.000  C
  C48      1.0000 0.24190  0.62340  0.85760  Biso   1.000  C
  H21      1.0000 0.25540  0.59770  0.89330  Biso   1.000  H
  C49      1.0000 0.28160  0.65750  0.81830  Biso   1.000  C
  C50      1.0000 0.26300  0.69650  0.76790  Biso   1.000  C
  C51      1.0000 0.20460  0.69260  0.74970  Biso   1.000  C
  H22      1.0000 0.19130  0.71220  0.70870  Biso   1.000  H
  C52      1.0000 0.16500  0.66100  0.78960  Biso   1.000  C
  H23      1.0000 0.12450  0.66240  0.77920  Biso   1.000  H
  C53      1.0000 0.34220  0.65900  0.84380  Biso   1.000  C
  F34      1.0000 0.17320  0.79360  0.70290  Biso   1.000  F
  F35      1.0000 0.11610  0.71860  0.67340  Biso   1.000  F
  F36      1.0000 0.20390  0.72870  0.62170  Biso   1.000  F
  H24      1.0000 0.32220  0.65350  0.82690  Biso   1.000  H
  C54      1.0000 0.17940  0.72930  0.69360  Biso   1.000  C
  F37      1.0000 0.37300  0.35770  0.41030  Biso   1.000  F
  F38      1.0000 0.36320  0.39090  0.30040  Biso   1.000  F
  F39      1.0000 0.28370  0.36870  0.36450  Biso   1.000  F
  O13      1.0000 0.44160  0.15810  0.43000  Biso   1.000  O
  O14      1.0000 0.39440  0.08690  0.36960  Biso   1.000  O
  C55      1.0000 0.40480  0.14000  0.38480  Biso   1.000  C
  C56      1.0000 0.37190  0.18490  0.34350  Biso   1.000  C
  C57      1.0000 0.37660  0.24190  0.35760  Biso   1.000  C
  H25      1.0000 0.40230  0.25540  0.39330  Biso   1.000  H
  C58      1.0000 0.34250  0.28160  0.31830  Biso   1.000  C
  C59      1.0000 0.30350  0.26300  0.26790  Biso   1.000  C
  C60      1.0000 0.30740  0.20460  0.24970  Biso   1.000  C
  H26      1.0000 0.28780  0.19130  0.20870  Biso   1.000  H
  C61      1.0000 0.33900  0.16500  0.28960  Biso   1.000  C
  H27      1.0000 0.33760  0.12450  0.27920  Biso   1.000  H
  C62      1.0000 0.34100  0.34220  0.34380  Biso   1.000  C
  F40      1.0000 0.20640  0.17320  0.20290  Biso   1.000  F
  F41      1.0000 0.28140  0.11610  0.17340  Biso   1.000  F
  F42      1.0000 0.27130  0.20390  0.12170  Biso   1.000  F
  H28      1.0000 0.34650  0.32220  0.32690  Biso   1.000  H
  C63      1.0000 0.27070  0.17940  0.19360  Biso   1.000  C
  F43      1.0000 0.62700  0.64230  0.41030  Biso   1.000  F
  F44      1.0000 0.63680  0.60910  0.30040  Biso   1.000  F
  F45      1.0000 0.71630  0.63130  0.36450  Biso   1.000  F
  O15      1.0000 0.55840  0.84190  0.43000  Biso   1.000  O
  O16      1.0000 0.60560  0.91310  0.36960  Biso   1.000  O
  C64      1.0000 0.59520  0.86000  0.38480  Biso   1.000  C
  C65      1.0000 0.62810  0.81510  0.34350  Biso   1.000  C
  C66      1.0000 0.62340  0.75810  0.35760  Biso   1.000  C
  H29      1.0000 0.59770  0.74460  0.39330  Biso   1.000  H
  C67      1.0000 0.65750  0.71840  0.31830  Biso   1.000  C
  C68      1.0000 0.69650  0.73700  0.26790  Biso   1.000  C
  C69      1.0000 0.69260  0.79540  0.24970  Biso   1.000  C
  H30      1.0000 0.71220  0.80870  0.20870  Biso   1.000  H
  C70      1.0000 0.66100  0.83500  0.28960  Biso   1.000  C
  H31      1.0000 0.66240  0.87550  0.27920  Biso   1.000  H
  C71      1.0000 0.65900  0.65780  0.34380  Biso   1.000  C
  F46      1.0000 0.79360  0.82680  0.20290  Biso   1.000  F
  F47      1.0000 0.71860  0.88390  0.17340  Biso   1.000  F
  F48      1.0000 0.72870  0.79610  0.12170  Biso   1.000  F
  H32      1.0000 0.65350  0.67780  0.32690  Biso   1.000  H
  C72      1.0000 0.72930  0.82060  0.19360  Biso   1.000  C
  F49      1.0000 0.64230  0.62700  0.91030  Biso   1.000  F
  F50      1.0000 0.60910  0.63680  0.80040  Biso   1.000  F
  F51      1.0000 0.63130  0.71630  0.86450  Biso   1.000  F
  O17      1.0000 0.84190  0.55840  0.93000  Biso   1.000  O
  O18      1.0000 0.91310  0.60560  0.86960  Biso   1.000  O
  C73      1.0000 0.86000  0.59520  0.88480  Biso   1.000  C
  C74      1.0000 0.81510  0.62810  0.84350  Biso   1.000  C
  C75      1.0000 0.75810  0.62340  0.85760  Biso   1.000  C
  H33      1.0000 0.74460  0.59770  0.89330  Biso   1.000  H
  C76      1.0000 0.71840  0.65750  0.81830  Biso   1.000  C
  C77      1.0000 0.73700  0.69650  0.76790  Biso   1.000  C
  C78      1.0000 0.79540  0.69260  0.74970  Biso   1.000  C
  H34      1.0000 0.80870  0.71220  0.70870  Biso   1.000  H
  C79      1.0000 0.83500  0.66100  0.78960  Biso   1.000  C
  H35      1.0000 0.87550  0.66240  0.77920  Biso   1.000  H
  C80      1.0000 0.65780  0.65900  0.84380  Biso   1.000  C
  F52      1.0000 0.82680  0.79360  0.70290  Biso   1.000  F
  F53      1.0000 0.88390  0.71860  0.67340  Biso   1.000  F
  F54      1.0000 0.79610  0.72870  0.62170  Biso   1.000  F
  H36      1.0000 0.67780  0.65350  0.82690  Biso   1.000  H
  C81      1.0000 0.82060  0.72930  0.69360  Biso   1.000  C
  F55      1.0000 0.35770  0.37300  0.91030  Biso   1.000  F
  F56      1.0000 0.39090  0.36320  0.80040  Biso   1.000  F
  F57      1.0000 0.36870  0.28370  0.86450  Biso   1.000  F
  O19      1.0000 0.15810  0.44160  0.93000  Biso   1.000  O
  O20      1.0000 0.08690  0.39440  0.86960  Biso   1.000  O
  C82      1.0000 0.14000  0.40480  0.88480  Biso   1.000  C
  C83      1.0000 0.18490  0.37190  0.84350  Biso   1.000  C
  C84      1.0000 0.24190  0.37660  0.85760  Biso   1.000  C
  H37      1.0000 0.25540  0.40230  0.89330  Biso   1.000  H
  C85      1.0000 0.28160  0.34250  0.81830  Biso   1.000  C
  C86      1.0000 0.26300  0.30350  0.76790  Biso   1.000  C
  C87      1.0000 0.20460  0.30740  0.74970  Biso   1.000  C
  H38      1.0000 0.19130  0.28780  0.70870  Biso   1.000  H
  C88      1.0000 0.16500  0.33900  0.78960  Biso   1.000  C
  H39      1.0000 0.12450  0.33760  0.77920  Biso   1.000  H
  C89      1.0000 0.34220  0.34100  0.84380  Biso   1.000  C
  F58      1.0000 0.17320  0.20640  0.70290  Biso   1.000  F
  F59      1.0000 0.11610  0.28140  0.67340  Biso   1.000  F
  F60      1.0000 0.20390  0.27130  0.62170  Biso   1.000  F
  H40      1.0000 0.32220  0.34650  0.82690  Biso   1.000  H
  C90      1.0000 0.17940  0.27070  0.69360  Biso   1.000  C
  F61      1.0000 0.37300  0.64230  0.41030  Biso   1.000  F
  F62      1.0000 0.36320  0.60910  0.30040  Biso   1.000  F
  F63      1.0000 0.28370  0.63130  0.36450  Biso   1.000  F
  O21      1.0000 0.44160  0.84190  0.43000  Biso   1.000  O
  O22      1.0000 0.39440  0.91310  0.36960  Biso   1.000  O
  C91      1.0000 0.40480  0.86000  0.38480  Biso   1.000  C
  C92      1.0000 0.37190  0.81510  0.34350  Biso   1.000  C
  C93      1.0000 0.37660  0.75810  0.35760  Biso   1.000  C
  H41      1.0000 0.40230  0.74460  0.39330  Biso   1.000  H
  C94      1.0000 0.34250  0.71840  0.31830  Biso   1.000  C
  C95      1.0000 0.30350  0.73700  0.26790  Biso   1.000  C
  C96      1.0000 0.30740  0.79540  0.24970  Biso   1.000  C
  H42      1.0000 0.28780  0.80870  0.20870  Biso   1.000  H
  C97      1.0000 0.33900  0.83500  0.28960  Biso   1.000  C
  H43      1.0000 0.33760  0.87550  0.27920  Biso   1.000  H
  C98      1.0000 0.34100  0.65780  0.34380  Biso   1.000  C
  F64      1.0000 0.20640  0.82680  0.20290  Biso   1.000  F
  F65      1.0000 0.28140  0.88390  0.17340  Biso   1.000  F
  F66      1.0000 0.27130  0.79610  0.12170  Biso   1.000  F
  H44      1.0000 0.34650  0.67780  0.32690  Biso   1.000  H
  C99      1.0000 0.27070  0.82060  0.19360  Biso   1.000  C
  F67      1.0000 0.62700  0.35770  0.41030  Biso   1.000  F
  F68      1.0000 0.63680  0.39090  0.30040  Biso   1.000  F
  F69      1.0000 0.71630  0.36870  0.36450  Biso   1.000  F
  O23      1.0000 0.55840  0.15810  0.43000  Biso   1.000  O
  O24      1.0000 0.60560  0.08690  0.36960  Biso   1.000  O
  C100     1.0000 0.59520  0.14000  0.38480  Biso   1.000  C
  C101     1.0000 0.62810  0.18490  0.34350  Biso   1.000  C
  C102     1.0000 0.62340  0.24190  0.35760  Biso   1.000  C
  H45      1.0000 0.59770  0.25540  0.39330  Biso   1.000  H
  C103     1.0000 0.65750  0.28160  0.31830  Biso   1.000  C
  C104     1.0000 0.69650  0.26300  0.26790  Biso   1.000  C
  C105     1.0000 0.69260  0.20460  0.24970  Biso   1.000  C
  H46      1.0000 0.71220  0.19130  0.20870  Biso   1.000  H
  C106     1.0000 0.66100  0.16500  0.28960  Biso   1.000  C
  H47      1.0000 0.66240  0.12450  0.27920  Biso   1.000  H
  C107     1.0000 0.65900  0.34220  0.34380  Biso   1.000  C
  F70      1.0000 0.79360  0.17320  0.20290  Biso   1.000  F
  F71      1.0000 0.71860  0.11610  0.17340  Biso   1.000  F
  F72      1.0000 0.72870  0.20390  0.12170  Biso   1.000  F
  H48      1.0000 0.65350  0.32220  0.32690  Biso   1.000  H
  C108     1.0000 0.72930  0.17940  0.19360  Biso   1.000  C
  F73      1.0000 0.35770  0.62700  0.08970  Biso   1.000  F
  F74      1.0000 0.39090  0.63680  0.19960  Biso   1.000  F
  F75      1.0000 0.36870  0.71630  0.13550  Biso   1.000  F
  O25      1.0000 0.15810  0.55840  0.07000  Biso   1.000  O
  O26      1.0000 0.08690  0.60560  0.13040  Biso   1.000  O
  C109     1.0000 0.14000  0.59520  0.11520  Biso   1.000  C
  C110     1.0000 0.18490  0.62810  0.15650  Biso   1.000  C
  C111     1.0000 0.24190  0.62340  0.14240  Biso   1.000  C
  H49      1.0000 0.25540  0.59770  0.10670  Biso   1.000  H
  C112     1.0000 0.28160  0.65750  0.18170  Biso   1.000  C
  C113     1.0000 0.26300  0.69650  0.23210  Biso   1.000  C
  C114     1.0000 0.20460  0.69260  0.25030  Biso   1.000  C
  H50      1.0000 0.19130  0.71220  0.29130  Biso   1.000  H
  C115     1.0000 0.16500  0.66100  0.21040  Biso   1.000  C
  H51      1.0000 0.12450  0.66240  0.22080  Biso   1.000  H
  C116     1.0000 0.34220  0.65900  0.15620  Biso   1.000  C
  F76      1.0000 0.17320  0.79360  0.29710  Biso   1.000  F
  F77      1.0000 0.11610  0.71860  0.32660  Biso   1.000  F
  F78      1.0000 0.20390  0.72870  0.37830  Biso   1.000  F
  H52      1.0000 0.32220  0.65350  0.17310  Biso   1.000  H
  C117     1.0000 0.17940  0.72930  0.30640  Biso   1.000  C
  F79      1.0000 0.64230  0.37300  0.08970  Biso   1.000  F
  F80      1.0000 0.60910  0.36320  0.19960  Biso   1.000  F
  F81      1.0000 0.63130  0.28370  0.13550  Biso   1.000  F
  O27      1.0000 0.84190  0.44160  0.07000  Biso   1.000  O
  O28      1.0000 0.91310  0.39440  0.13040  Biso   1.000  O
  C118     1.0000 0.86000  0.40480  0.11520  Biso   1.000  C
  C119     1.0000 0.81510  0.37190  0.15650  Biso   1.000  C
  C120     1.0000 0.75810  0.37660  0.14240  Biso   1.000  C
  H53      1.0000 0.74460  0.40230  0.10670  Biso   1.000  H
  C121     1.0000 0.71840  0.34250  0.18170  Biso   1.000  C
  C122     1.0000 0.73700  0.30350  0.23210  Biso   1.000  C
  C123     1.0000 0.79540  0.30740  0.25030  Biso   1.000  C
  H54      1.0000 0.80870  0.28780  0.29130  Biso   1.000  H
  C124     1.0000 0.83500  0.33900  0.21040  Biso   1.000  C
  H55      1.0000 0.87550  0.33760  0.22080  Biso   1.000  H
  C125     1.0000 0.65780  0.34100  0.15620  Biso   1.000  C
  F82      1.0000 0.82680  0.20640  0.29710  Biso   1.000  F
  F83      1.0000 0.88390  0.28140  0.32660  Biso   1.000  F
  F84      1.0000 0.79610  0.27130  0.37830  Biso   1.000  F
  H56      1.0000 0.67780  0.34650  0.17310  Biso   1.000  H
  C126     1.0000 0.82060  0.27070  0.30640  Biso   1.000  C
  F85      1.0000 0.62700  0.64230  0.58970  Biso   1.000  F
  F86      1.0000 0.63680  0.60910  0.69960  Biso   1.000  F
  F87      1.0000 0.71630  0.63130  0.63550  Biso   1.000  F
  O29      1.0000 0.55840  0.84190  0.57000  Biso   1.000  O
  O30      1.0000 0.60560  0.91310  0.63040  Biso   1.000  O
  C127     1.0000 0.59520  0.86000  0.61520  Biso   1.000  C
  C128     1.0000 0.62810  0.81510  0.65650  Biso   1.000  C
  C129     1.0000 0.62340  0.75810  0.64240  Biso   1.000  C
  H57      1.0000 0.59770  0.74460  0.60670  Biso   1.000  H
  C130     1.0000 0.65750  0.71840  0.68170  Biso   1.000  C
  C131     1.0000 0.69650  0.73700  0.73210  Biso   1.000  C
  C132     1.0000 0.69260  0.79540  0.75030  Biso   1.000  C
  H58      1.0000 0.71220  0.80870  0.79130  Biso   1.000  H
  C133     1.0000 0.66100  0.83500  0.71040  Biso   1.000  C
  H59      1.0000 0.66240  0.87550  0.72080  Biso   1.000  H
  C134     1.0000 0.65900  0.65780  0.65620  Biso   1.000  C
  F88      1.0000 0.79360  0.82680  0.79710  Biso   1.000  F
  F89      1.0000 0.71860  0.88390  0.82660  Biso   1.000  F
  F90      1.0000 0.72870  0.79610  0.87830  Biso   1.000  F
  H60      1.0000 0.65350  0.67780  0.67310  Biso   1.000  H
  C135     1.0000 0.72930  0.82060  0.80640  Biso   1.000  C
  F91      1.0000 0.37300  0.35770  0.58970  Biso   1.000  F
  F92      1.0000 0.36320  0.39090  0.69960  Biso   1.000  F
  F93      1.0000 0.28370  0.36870  0.63550  Biso   1.000  F
  O31      1.0000 0.44160  0.15810  0.57000  Biso   1.000  O
  O32      1.0000 0.39440  0.08690  0.63040  Biso   1.000  O
  C136     1.0000 0.40480  0.14000  0.61520  Biso   1.000  C
  C137     1.0000 0.37190  0.18490  0.65650  Biso   1.000  C
  C138     1.0000 0.37660  0.24190  0.64240  Biso   1.000  C
  H61      1.0000 0.40230  0.25540  0.60670  Biso   1.000  H
  C139     1.0000 0.34250  0.28160  0.68170  Biso   1.000  C
  C140     1.0000 0.30350  0.26300  0.73210  Biso   1.000  C
  C141     1.0000 0.30740  0.20460  0.75030  Biso   1.000  C
  H62      1.0000 0.28780  0.19130  0.79130  Biso   1.000  H
  C142     1.0000 0.33900  0.16500  0.71040  Biso   1.000  C
  H63      1.0000 0.33760  0.12450  0.72080  Biso   1.000  H
  C143     1.0000 0.34100  0.34220  0.65620  Biso   1.000  C
  F94      1.0000 0.20640  0.17320  0.79710  Biso   1.000  F
  F95      1.0000 0.28140  0.11610  0.82660  Biso   1.000  F
  F96      1.0000 0.27130  0.20390  0.87830  Biso   1.000  F
  H64      1.0000 0.34650  0.32220  0.67310  Biso   1.000  H
  C144     1.0000 0.27070  0.17940  0.80640  Biso   1.000  C
  Zr1      1.0000 0.00000  0.42394  0.09283  Biso   1.000  Zr
  O33      1.0000 0.00000  0.44410  0.20790  Biso   1.000  O
  O34      1.0000 0.00000  0.39690  0.45880  Biso   1.000  O
  C145     1.0000 0.00000  0.44739  0.34920  Biso   1.000  C
  H65      1.0000 0.00000  0.41150  0.32420  Biso   1.000  H
  C146     1.0000 0.00000  0.44744  0.42230  Biso   1.000  C
  H66      1.0000 0.00000  0.36250  0.44350  Biso   1.000  H
  H67      1.0000 0.00000  0.41140  0.44700  Biso   1.000  H
  Zr2      1.0000 0.00000  0.57606  0.09283  Biso   1.000  Zr
  O35      1.0000 0.00000  0.55590  0.20790  Biso   1.000  O
  O36      1.0000 0.00000  0.60310  0.45880  Biso   1.000  O
  C147     1.0000 0.00000  0.55261  0.34920  Biso   1.000  C
  H68      1.0000 0.00000  0.58850  0.32420  Biso   1.000  H
  C148     1.0000 0.00000  0.55256  0.42230  Biso   1.000  C
  H69      1.0000 0.00000  0.63750  0.44350  Biso   1.000  H
  H70      1.0000 0.00000  0.58860  0.44700  Biso   1.000  H
  Zr3      1.0000 0.57606  0.00000  0.59283  Biso   1.000  Zr
  O37      1.0000 0.55590  0.00000  0.70790  Biso   1.000  O
  O38      1.0000 0.60310  0.00000  0.95880  Biso   1.000  O
  C149     1.0000 0.55261  0.00000  0.84920  Biso   1.000  C
  H71      1.0000 0.58850  0.00000  0.82420  Biso   1.000  H
  C150     1.0000 0.55256  0.00000  0.92230  Biso   1.000  C
  H72      1.0000 0.63750  0.00000  0.94350  Biso   1.000  H
  H73      1.0000 0.58860  0.00000  0.94700  Biso   1.000  H
  Zr4      1.0000 0.42394  0.00000  0.59283  Biso   1.000  Zr
  O39      1.0000 0.44410  0.00000  0.70790  Biso   1.000  O
  O40      1.0000 0.39690  0.00000  0.95880  Biso   1.000  O
  C151     1.0000 0.44739  0.00000  0.84920  Biso   1.000  C
  H74      1.0000 0.41150  0.00000  0.82420  Biso   1.000  H
  C152     1.0000 0.44744  0.00000  0.92230  Biso   1.000  C
  H75      1.0000 0.36250  0.00000  0.94350  Biso   1.000  H
  H76      1.0000 0.41140  0.00000  0.94700  Biso   1.000  H
  Zr5      1.0000 0.00000  0.42394  0.90717  Biso   1.000  Zr
  O41      1.0000 0.00000  0.44410  0.79210  Biso   1.000  O
  O42      1.0000 0.00000  0.39690  0.54120  Biso   1.000  O
  C153     1.0000 0.00000  0.44739  0.65080  Biso   1.000  C
  H77      1.0000 0.00000  0.41150  0.67580  Biso   1.000  H
  C154     1.0000 0.00000  0.44744  0.57770  Biso   1.000  C
  H78      1.0000 0.00000  0.36250  0.55650  Biso   1.000  H
  H79      1.0000 0.00000  0.41140  0.55300  Biso   1.000  H
  Zr6      1.0000 0.00000  0.57606  0.90717  Biso   1.000  Zr
  O43      1.0000 0.00000  0.55590  0.79210  Biso   1.000  O
  O44      1.0000 0.00000  0.60310  0.54120  Biso   1.000  O
  C155     1.0000 0.00000  0.55261  0.65080  Biso   1.000  C
  H80      1.0000 0.00000  0.58850  0.67580  Biso   1.000  H
  C156     1.0000 0.00000  0.55256  0.57770  Biso   1.000  C
  H81      1.0000 0.00000  0.63750  0.55650  Biso   1.000  H
  H82      1.0000 0.00000  0.58860  0.55300  Biso   1.000  H
  Zr7      1.0000 0.42394  0.00000  0.40717  Biso   1.000  Zr
  O45      1.0000 0.44410  0.00000  0.29210  Biso   1.000  O
  O46      1.0000 0.39690  0.00000  0.04120  Biso   1.000  O
  C157     1.0000 0.44739  0.00000  0.15080  Biso   1.000  C
  H83      1.0000 0.41150  0.00000  0.17580  Biso   1.000  H
  C158     1.0000 0.44744  0.00000  0.07770  Biso   1.000  C
  H84      1.0000 0.36250  0.00000  0.05650  Biso   1.000  H
  H85      1.0000 0.41140  0.00000  0.05300  Biso   1.000  H
  Zr8      1.0000 0.57606  0.00000  0.40717  Biso   1.000  Zr
  O47      1.0000 0.55590  0.00000  0.29210  Biso   1.000  O
  O48      1.0000 0.60310  0.00000  0.04120  Biso   1.000  O
  C159     1.0000 0.55261  0.00000  0.15080  Biso   1.000  C
  H86      1.0000 0.58850  0.00000  0.17580  Biso   1.000  H
  C160     1.0000 0.55256  0.00000  0.07770  Biso   1.000  C
  H87      1.0000 0.63750  0.00000  0.05650  Biso   1.000  H
  H88      1.0000 0.58860  0.00000  0.05300  Biso   1.000  H
  Zr9      1.0000 0.10788  0.50000  0.00000  Biso   1.000  Zr
  Zr10     1.0000 0.89212  0.50000  0.00000  Biso   1.000  Zr
  Zr11     1.0000 0.50000  0.10788  0.50000  Biso   1.000  Zr
  Zr12     1.0000 0.50000  0.89212  0.50000  Biso   1.000  Zr
  O49      1.0000 0.05410  0.42120  0.00000  Biso   1.000  O
  O50      1.0000 0.94590  0.57880  0.00000  Biso   1.000  O
  O51      1.0000 0.57880  0.05410  0.50000  Biso   1.000  O
  O52      1.0000 0.42120  0.94590  0.50000  Biso   1.000  O
  O53      1.0000 0.94590  0.42120  0.00000  Biso   1.000  O
  O54      1.0000 0.05410  0.57880  0.00000  Biso   1.000  O
  O55      1.0000 0.42120  0.05410  0.50000  Biso   1.000  O
  O56      1.0000 0.57880  0.94590  0.50000  Biso   1.000  O
  O57      1.0000 0.94830  0.50000  0.09050  Biso   1.000  O
  O58      1.0000 0.05170  0.50000  0.09050  Biso   1.000  O
  O59      1.0000 0.50000  0.94830  0.59050  Biso   1.000  O
  O60      1.0000 0.50000  0.05170  0.59050  Biso   1.000  O
  O61      1.0000 0.05170  0.50000  0.90950  Biso   1.000  O
  O62      1.0000 0.94830  0.50000  0.90950  Biso   1.000  O
  O63      1.0000 0.50000  0.94830  0.40950  Biso   1.000  O
  O64      1.0000 0.50000  0.05170  0.40950  Biso   1.000  O
  C161     1.0000 0.00000  0.50000  0.23300  Biso   1.000  C
  C162     1.0000 0.00000  0.50000  0.31260  Biso   1.000  C
  C163     1.0000 0.00000  0.50000  0.45990  Biso   1.000  C
  C164     1.0000 0.50000  0.00000  0.73300  Biso   1.000  C
  C165     1.0000 0.50000  0.00000  0.81260  Biso   1.000  C
  C166     1.0000 0.50000  0.00000  0.95990  Biso   1.000  C
  C167     1.0000 0.00000  0.50000  0.76700  Biso   1.000  C
  C168     1.0000 0.00000  0.50000  0.68740  Biso   1.000  C
  C169     1.0000 0.00000  0.50000  0.54010  Biso   1.000  C
  C170     1.0000 0.50000  0.00000  0.26700  Biso   1.000  C
  C171     1.0000 0.50000  0.00000  0.18740  Biso   1.000  C
  C172     1.0000 0.50000  0.00000  0.04010  Biso   1.000  C
