data_image0
_cell_length_a       26.548
_cell_length_b       20.076
_cell_length_c       12.964
_cell_angle_alpha    90
_cell_angle_beta     90
_cell_angle_gamma    90

_symmetry_space_group_name_H-M    "P 1"
_symmetry_int_tables_number       1

loop_
  _symmetry_equiv_pos_as_xyz
  'x, y, z'

loop_
  _atom_site_label
  _atom_site_occupancy
  _atom_site_fract_x
  _atom_site_fract_y
  _atom_site_fract_z
  _atom_site_thermal_displace_type
  _atom_site_B_iso_or_equiv
  _atom_site_type_symbol
  Co1      1.0000 0.74075  0.10694  0.59660  Biso   1.000  Co
  W1       1.0000 0.84708  0.16718  0.01567  Biso   1.000  W
  W2       1.0000 0.73305  0.07704  0.10493  Biso   1.000  W
  W3       1.0000 0.73107  0.16945  0.85936  Biso   1.000  W
  W4       1.0000 0.63182  0.15782  0.18144  Biso   1.000  W
  W5       1.0000 0.73380  0.15814  0.32371  Biso   1.000  W
  N1       1.0000 0.66160  0.08110  0.58760  Biso   1.000  N
  O1       1.0000 0.74570  0.07490  0.24830  Biso   1.000  O
  O2       1.0000 0.80020  0.10750  0.08420  Biso   1.000  O
  O3       1.0000 0.80050  0.31530  0.28900  Biso   1.000  O
  O4       1.0000 0.66240  0.14150  0.31450  Biso   1.000  O
  O5       1.0000 0.87610  0.18260  0.15110  Biso   1.000  O
  O6       1.0000 0.65920  0.18210  0.84590  Biso   1.000  O
  O7       1.0000 0.66170  0.07520  0.13290  Biso   1.000  O
  O8       1.0000 0.71420  0.17830  0.16100  Biso   1.000  O
  O9       1.0000 0.79890  0.17220  0.90740  Biso   1.000  O
  O10      1.0000 0.74320  0.12780  0.44540  Biso   1.000  O
  O11      1.0000 0.71960  0.10850  0.96930  Biso   1.000  O
  O12      1.0000 0.62390  0.18480  0.04090  Biso   1.000  O
  O13      1.0000 0.74150  0.99290  0.08450  Biso   1.000  O
  C1       1.0000 0.63850  0.03550  0.52310  Biso   1.000  C
  H1       1.0000 0.65460  0.01200  0.47070  Biso   1.000  H
  N2       1.0000 0.58030  0.07240  0.62860  Biso   1.000  N
  C2       1.0000 0.53420  0.08340  0.68190  Biso   1.000  C
  C3       1.0000 0.45280  0.04440  0.73830  Biso   1.000  C
  H2       1.0000 0.42790  0.01190  0.74030  Biso   1.000  H
  C4       1.0000 0.49800  0.03310  0.68540  Biso   1.000  C
  H3       1.0000 0.50380  0.99250  0.65300  Biso   1.000  H
  C5       1.0000 0.44590  0.10410  0.78710  Biso   1.000  C
  C6       1.0000 0.62590  0.09990  0.65300  Biso   1.000  C
  H4       1.0000 0.63130  0.12830  0.70860  Biso   1.000  H
  C7       1.0000 0.48050  0.15220  0.78400  Biso   1.000  C
  H5       1.0000 0.47410  0.19290  0.81520  Biso   1.000  H
  C8       1.0000 0.52730  0.14170  0.73100  Biso   1.000  C
  H6       1.0000 0.55220  0.17420  0.73180  Biso   1.000  H
  C9       1.0000 0.58990  0.03010  0.54700  Biso   1.000  C
  H7       1.0000 0.56650  0.00260  0.51450  Biso   1.000  H
  N3       1.0000 0.40110  0.11860  0.84450  Biso   1.000  N
  C10      1.0000 0.34820  0.15680  0.96220  Biso   1.000  C
  H8       1.0000 0.33550  0.17860  0.01990  Biso   1.000  H
  C11      1.0000 0.39820  0.15720  0.93440  Biso   1.000  C
  H9       1.0000 0.42450  0.17860  0.96810  Biso   1.000  H
  N4       1.0000 0.31980  0.12080  0.89570  Biso   1.000  N
  C12      1.0000 0.35300  0.09890  0.82360  Biso   1.000  C
  H10      1.0000 0.34390  0.07340  0.76670  Biso   1.000  H
  O14      1.0000 0.73720  0.11480  0.75580  Biso   1.000  O
  Co2      1.0000 0.75925  0.89306  0.09660  Biso   1.000  Co
  W6       1.0000 0.65292  0.83282  0.51567  Biso   1.000  W
  W7       1.0000 0.76695  0.92296  0.60493  Biso   1.000  W
  W8       1.0000 0.76893  0.83055  0.35936  Biso   1.000  W
  W9       1.0000 0.86818  0.84218  0.68144  Biso   1.000  W
  W10      1.0000 0.76620  0.84186  0.82371  Biso   1.000  W
  N5       1.0000 0.83840  0.91890  0.08760  Biso   1.000  N
  O15      1.0000 0.75430  0.92510  0.74830  Biso   1.000  O
  O16      1.0000 0.69980  0.89250  0.58420  Biso   1.000  O
  O17      1.0000 0.69950  0.68470  0.78900  Biso   1.000  O
  O18      1.0000 0.83760  0.85850  0.81450  Biso   1.000  O
  O19      1.0000 0.62390  0.81740  0.65110  Biso   1.000  O
  O20      1.0000 0.84080  0.81790  0.34590  Biso   1.000  O
  O21      1.0000 0.83830  0.92480  0.63290  Biso   1.000  O
  O22      1.0000 0.78580  0.82170  0.66100  Biso   1.000  O
  O23      1.0000 0.70110  0.82780  0.40740  Biso   1.000  O
  O24      1.0000 0.75680  0.87220  0.94540  Biso   1.000  O
  O25      1.0000 0.78040  0.89150  0.46930  Biso   1.000  O
  O26      1.0000 0.87610  0.81520  0.54090  Biso   1.000  O
  O27      1.0000 0.75850  0.00710  0.58450  Biso   1.000  O
  C13      1.0000 0.86150  0.96450  0.02310  Biso   1.000  C
  H11      1.0000 0.84540  0.98800  0.97070  Biso   1.000  H
  N6       1.0000 0.91970  0.92760  0.12860  Biso   1.000  N
  C14      1.0000 0.96580  0.91660  0.18190  Biso   1.000  C
  C15      1.0000 0.04720  0.95560  0.23830  Biso   1.000  C
  H12      1.0000 0.07210  0.98810  0.24030  Biso   1.000  H
  C16      1.0000 0.00200  0.96690  0.18540  Biso   1.000  C
  H13      1.0000 0.99620  0.00750  0.15300  Biso   1.000  H
  C17      1.0000 0.05410  0.89590  0.28710  Biso   1.000  C
  C18      1.0000 0.87410  0.90010  0.15300  Biso   1.000  C
  H14      1.0000 0.86870  0.87170  0.20860  Biso   1.000  H
  C19      1.0000 0.01950  0.84780  0.28400  Biso   1.000  C
  H15      1.0000 0.02590  0.80710  0.31520  Biso   1.000  H
  C20      1.0000 0.97270  0.85830  0.23100  Biso   1.000  C
  H16      1.0000 0.94780  0.82580  0.23180  Biso   1.000  H
  C21      1.0000 0.91010  0.96990  0.04700  Biso   1.000  C
  H17      1.0000 0.93350  0.99740  0.01450  Biso   1.000  H
  N7       1.0000 0.09890  0.88140  0.34450  Biso   1.000  N
  C22      1.0000 0.15180  0.84320  0.46220  Biso   1.000  C
  H18      1.0000 0.16450  0.82140  0.51990  Biso   1.000  H
  C23      1.0000 0.10180  0.84280  0.43440  Biso   1.000  C
  H19      1.0000 0.07550  0.82140  0.46810  Biso   1.000  H
  N8       1.0000 0.18020  0.87920  0.39570  Biso   1.000  N
  C24      1.0000 0.14700  0.90110  0.32360  Biso   1.000  C
  H20      1.0000 0.15610  0.92660  0.26670  Biso   1.000  H
  O28      1.0000 0.76280  0.88520  0.25580  Biso   1.000  O
  Co3      1.0000 0.25925  0.60694  0.40340  Biso   1.000  Co
  W11      1.0000 0.15292  0.66718  0.98433  Biso   1.000  W
  W12      1.0000 0.26695  0.57704  0.89507  Biso   1.000  W
  W13      1.0000 0.26893  0.66945  0.14064  Biso   1.000  W
  W14      1.0000 0.36818  0.65782  0.81856  Biso   1.000  W
  W15      1.0000 0.26620  0.65814  0.67629  Biso   1.000  W
  N9       1.0000 0.33840  0.58110  0.41240  Biso   1.000  N
  O29      1.0000 0.25430  0.57490  0.75170  Biso   1.000  O
  O30      1.0000 0.19980  0.60750  0.91580  Biso   1.000  O
  O31      1.0000 0.19950  0.81530  0.71100  Biso   1.000  O
  O32      1.0000 0.33760  0.64150  0.68550  Biso   1.000  O
  O33      1.0000 0.12390  0.68260  0.84890  Biso   1.000  O
  O34      1.0000 0.34080  0.68210  0.15410  Biso   1.000  O
  O35      1.0000 0.33830  0.57520  0.86710  Biso   1.000  O
  O36      1.0000 0.28580  0.67830  0.83900  Biso   1.000  O
  O37      1.0000 0.20110  0.67220  0.09260  Biso   1.000  O
  O38      1.0000 0.25680  0.62780  0.55460  Biso   1.000  O
  O39      1.0000 0.28040  0.60850  0.03070  Biso   1.000  O
  O40      1.0000 0.37610  0.68480  0.95910  Biso   1.000  O
  O41      1.0000 0.25850  0.49290  0.91550  Biso   1.000  O
  C25      1.0000 0.36150  0.53550  0.47690  Biso   1.000  C
  H21      1.0000 0.34540  0.51200  0.52930  Biso   1.000  H
  N10      1.0000 0.41970  0.57240  0.37140  Biso   1.000  N
  C26      1.0000 0.46580  0.58340  0.31810  Biso   1.000  C
  C27      1.0000 0.54720  0.54440  0.26170  Biso   1.000  C
  H22      1.0000 0.57210  0.51190  0.25970  Biso   1.000  H
  C28      1.0000 0.50200  0.53310  0.31460  Biso   1.000  C
  H23      1.0000 0.49620  0.49250  0.34700  Biso   1.000  H
  C29      1.0000 0.55410  0.60410  0.21290  Biso   1.000  C
  C30      1.0000 0.37410  0.59990  0.34700  Biso   1.000  C
  H24      1.0000 0.36870  0.62830  0.29140  Biso   1.000  H
  C31      1.0000 0.51950  0.65220  0.21600  Biso   1.000  C
  H25      1.0000 0.52590  0.69290  0.18480  Biso   1.000  H
  C32      1.0000 0.47270  0.64170  0.26900  Biso   1.000  C
  H26      1.0000 0.44780  0.67420  0.26820  Biso   1.000  H
  C33      1.0000 0.41010  0.53010  0.45300  Biso   1.000  C
  H27      1.0000 0.43350  0.50260  0.48550  Biso   1.000  H
  N11      1.0000 0.59890  0.61860  0.15550  Biso   1.000  N
  C34      1.0000 0.65180  0.65680  0.03780  Biso   1.000  C
  H28      1.0000 0.66450  0.67860  0.98010  Biso   1.000  H
  C35      1.0000 0.60180  0.65720  0.06560  Biso   1.000  C
  H29      1.0000 0.57550  0.67860  0.03190  Biso   1.000  H
  N12      1.0000 0.68020  0.62080  0.10430  Biso   1.000  N
  C36      1.0000 0.64700  0.59890  0.17640  Biso   1.000  C
  H30      1.0000 0.65610  0.57340  0.23330  Biso   1.000  H
  O42      1.0000 0.26280  0.61480  0.24420  Biso   1.000  O
  Co4      1.0000 0.24075  0.39306  0.90340  Biso   1.000  Co
  W16      1.0000 0.34708  0.33282  0.48433  Biso   1.000  W
  W17      1.0000 0.23305  0.42296  0.39507  Biso   1.000  W
  W18      1.0000 0.23107  0.33055  0.64064  Biso   1.000  W
  W19      1.0000 0.13182  0.34218  0.31856  Biso   1.000  W
  W20      1.0000 0.23380  0.34186  0.17629  Biso   1.000  W
  N13      1.0000 0.16160  0.41890  0.91240  Biso   1.000  N
  O43      1.0000 0.24570  0.42510  0.25170  Biso   1.000  O
  O44      1.0000 0.30020  0.39250  0.41580  Biso   1.000  O
  O45      1.0000 0.30050  0.18470  0.21100  Biso   1.000  O
  O46      1.0000 0.16240  0.35850  0.18550  Biso   1.000  O
  O47      1.0000 0.37610  0.31740  0.34890  Biso   1.000  O
  O48      1.0000 0.15920  0.31790  0.65410  Biso   1.000  O
  O49      1.0000 0.16170  0.42480  0.36710  Biso   1.000  O
  O50      1.0000 0.21420  0.32170  0.33900  Biso   1.000  O
  O51      1.0000 0.29890  0.32780  0.59260  Biso   1.000  O
  O52      1.0000 0.24320  0.37220  0.05460  Biso   1.000  O
  O53      1.0000 0.21960  0.39150  0.53070  Biso   1.000  O
  O54      1.0000 0.12390  0.31520  0.45910  Biso   1.000  O
  O55      1.0000 0.24150  0.50710  0.41550  Biso   1.000  O
  C37      1.0000 0.13850  0.46450  0.97690  Biso   1.000  C
  H31      1.0000 0.15460  0.48800  0.02930  Biso   1.000  H
  N14      1.0000 0.08030  0.42760  0.87140  Biso   1.000  N
  C38      1.0000 0.03420  0.41660  0.81810  Biso   1.000  C
  C39      1.0000 0.95280  0.45560  0.76170  Biso   1.000  C
  H32      1.0000 0.92790  0.48810  0.75970  Biso   1.000  H
  C40      1.0000 0.99800  0.46690  0.81460  Biso   1.000  C
  H33      1.0000 0.00380  0.50750  0.84700  Biso   1.000  H
  C41      1.0000 0.94590  0.39590  0.71290  Biso   1.000  C
  C42      1.0000 0.12590  0.40010  0.84700  Biso   1.000  C
  H34      1.0000 0.13130  0.37170  0.79140  Biso   1.000  H
  C43      1.0000 0.98050  0.34780  0.71600  Biso   1.000  C
  H35      1.0000 0.97410  0.30710  0.68480  Biso   1.000  H
  C44      1.0000 0.02730  0.35830  0.76900  Biso   1.000  C
  H36      1.0000 0.05220  0.32580  0.76820  Biso   1.000  H
  C45      1.0000 0.08990  0.46990  0.95300  Biso   1.000  C
  H37      1.0000 0.06650  0.49740  0.98550  Biso   1.000  H
  N15      1.0000 0.90110  0.38140  0.65550  Biso   1.000  N
  C46      1.0000 0.84820  0.34320  0.53780  Biso   1.000  C
  H38      1.0000 0.83550  0.32140  0.48010  Biso   1.000  H
  C47      1.0000 0.89820  0.34280  0.56560  Biso   1.000  C
  H39      1.0000 0.92450  0.32140  0.53190  Biso   1.000  H
  N16      1.0000 0.81980  0.37920  0.60430  Biso   1.000  N
  C48      1.0000 0.85300  0.40110  0.67640  Biso   1.000  C
  H40      1.0000 0.84390  0.42660  0.73330  Biso   1.000  H
  O56      1.0000 0.23720  0.38520  0.74420  Biso   1.000  O
  Co5      1.0000 0.25925  0.89306  0.40340  Biso   1.000  Co
  W21      1.0000 0.15292  0.83282  0.98433  Biso   1.000  W
  W22      1.0000 0.26695  0.92296  0.89507  Biso   1.000  W
  W23      1.0000 0.26893  0.83055  0.14064  Biso   1.000  W
  W24      1.0000 0.36818  0.84218  0.81856  Biso   1.000  W
  W25      1.0000 0.26620  0.84186  0.67629  Biso   1.000  W
  N17      1.0000 0.33840  0.91890  0.41240  Biso   1.000  N
  O57      1.0000 0.25430  0.92510  0.75170  Biso   1.000  O
  O58      1.0000 0.19980  0.89250  0.91580  Biso   1.000  O
  O59      1.0000 0.19950  0.68470  0.71100  Biso   1.000  O
  O60      1.0000 0.33760  0.85850  0.68550  Biso   1.000  O
  O61      1.0000 0.12390  0.81740  0.84890  Biso   1.000  O
  O62      1.0000 0.34080  0.81790  0.15410  Biso   1.000  O
  O63      1.0000 0.33830  0.92480  0.86710  Biso   1.000  O
  O64      1.0000 0.28580  0.82170  0.83900  Biso   1.000  O
  O65      1.0000 0.20110  0.82780  0.09260  Biso   1.000  O
  O66      1.0000 0.25680  0.87220  0.55460  Biso   1.000  O
  O67      1.0000 0.28040  0.89150  0.03070  Biso   1.000  O
  O68      1.0000 0.37610  0.81520  0.95910  Biso   1.000  O
  O69      1.0000 0.25850  0.00710  0.91550  Biso   1.000  O
  C49      1.0000 0.36150  0.96450  0.47690  Biso   1.000  C
  H41      1.0000 0.34540  0.98800  0.52930  Biso   1.000  H
  N18      1.0000 0.41970  0.92760  0.37140  Biso   1.000  N
  C50      1.0000 0.46580  0.91660  0.31810  Biso   1.000  C
  C51      1.0000 0.54720  0.95560  0.26170  Biso   1.000  C
  H42      1.0000 0.57210  0.98810  0.25970  Biso   1.000  H
  C52      1.0000 0.50200  0.96690  0.31460  Biso   1.000  C
  H43      1.0000 0.49620  0.00750  0.34700  Biso   1.000  H
  C53      1.0000 0.55410  0.89590  0.21290  Biso   1.000  C
  C54      1.0000 0.37410  0.90010  0.34700  Biso   1.000  C
  H44      1.0000 0.36870  0.87170  0.29140  Biso   1.000  H
  C55      1.0000 0.51950  0.84780  0.21600  Biso   1.000  C
  H45      1.0000 0.52590  0.80710  0.18480  Biso   1.000  H
  C56      1.0000 0.47270  0.85830  0.26900  Biso   1.000  C
  H46      1.0000 0.44780  0.82580  0.26820  Biso   1.000  H
  C57      1.0000 0.41010  0.96990  0.45300  Biso   1.000  C
  H47      1.0000 0.43350  0.99740  0.48550  Biso   1.000  H
  N19      1.0000 0.59890  0.88140  0.15550  Biso   1.000  N
  C58      1.0000 0.65180  0.84320  0.03780  Biso   1.000  C
  H48      1.0000 0.66450  0.82140  0.98010  Biso   1.000  H
  C59      1.0000 0.60180  0.84280  0.06560  Biso   1.000  C
  H49      1.0000 0.57550  0.82140  0.03190  Biso   1.000  H
  N20      1.0000 0.68020  0.87920  0.10430  Biso   1.000  N
  C60      1.0000 0.64700  0.90110  0.17640  Biso   1.000  C
  H50      1.0000 0.65610  0.92660  0.23330  Biso   1.000  H
  O70      1.0000 0.26280  0.88520  0.24420  Biso   1.000  O
  Co6      1.0000 0.24075  0.10694  0.90340  Biso   1.000  Co
  W26      1.0000 0.34708  0.16718  0.48433  Biso   1.000  W
  W27      1.0000 0.23305  0.07704  0.39507  Biso   1.000  W
  W28      1.0000 0.23107  0.16945  0.64064  Biso   1.000  W
  W29      1.0000 0.13182  0.15782  0.31856  Biso   1.000  W
  W30      1.0000 0.23380  0.15814  0.17629  Biso   1.000  W
  N21      1.0000 0.16160  0.08110  0.91240  Biso   1.000  N
  O71      1.0000 0.24570  0.07490  0.25170  Biso   1.000  O
  O72      1.0000 0.30020  0.10750  0.41580  Biso   1.000  O
  O73      1.0000 0.30050  0.31530  0.21100  Biso   1.000  O
  O74      1.0000 0.16240  0.14150  0.18550  Biso   1.000  O
  O75      1.0000 0.37610  0.18260  0.34890  Biso   1.000  O
  O76      1.0000 0.15920  0.18210  0.65410  Biso   1.000  O
  O77      1.0000 0.16170  0.07520  0.36710  Biso   1.000  O
  O78      1.0000 0.21420  0.17830  0.33900  Biso   1.000  O
  O79      1.0000 0.29890  0.17220  0.59260  Biso   1.000  O
  O80      1.0000 0.24320  0.12780  0.05460  Biso   1.000  O
  O81      1.0000 0.21960  0.10850  0.53070  Biso   1.000  O
  O82      1.0000 0.12390  0.18480  0.45910  Biso   1.000  O
  O83      1.0000 0.24150  0.99290  0.41550  Biso   1.000  O
  C61      1.0000 0.13850  0.03550  0.97690  Biso   1.000  C
  H51      1.0000 0.15460  0.01200  0.02930  Biso   1.000  H
  N22      1.0000 0.08030  0.07240  0.87140  Biso   1.000  N
  C62      1.0000 0.03420  0.08340  0.81810  Biso   1.000  C
  C63      1.0000 0.95280  0.04440  0.76170  Biso   1.000  C
  H52      1.0000 0.92790  0.01190  0.75970  Biso   1.000  H
  C64      1.0000 0.99800  0.03310  0.81460  Biso   1.000  C
  H53      1.0000 0.00380  0.99250  0.84700  Biso   1.000  H
  C65      1.0000 0.94590  0.10410  0.71290  Biso   1.000  C
  C66      1.0000 0.12590  0.09990  0.84700  Biso   1.000  C
  H54      1.0000 0.13130  0.12830  0.79140  Biso   1.000  H
  C67      1.0000 0.98050  0.15220  0.71600  Biso   1.000  C
  H55      1.0000 0.97410  0.19290  0.68480  Biso   1.000  H
  C68      1.0000 0.02730  0.14170  0.76900  Biso   1.000  C
  H56      1.0000 0.05220  0.17420  0.76820  Biso   1.000  H
  C69      1.0000 0.08990  0.03010  0.95300  Biso   1.000  C
  H57      1.0000 0.06650  0.00260  0.98550  Biso   1.000  H
  N23      1.0000 0.90110  0.11860  0.65550  Biso   1.000  N
  C70      1.0000 0.84820  0.15680  0.53780  Biso   1.000  C
  H58      1.0000 0.83550  0.17860  0.48010  Biso   1.000  H
  C71      1.0000 0.89820  0.15720  0.56560  Biso   1.000  C
  H59      1.0000 0.92450  0.17860  0.53190  Biso   1.000  H
  N24      1.0000 0.81980  0.12080  0.60430  Biso   1.000  N
  C72      1.0000 0.85300  0.09890  0.67640  Biso   1.000  C
  H60      1.0000 0.84390  0.07340  0.73330  Biso   1.000  H
  O84      1.0000 0.23720  0.11480  0.74420  Biso   1.000  O
  Co7      1.0000 0.74075  0.39306  0.59660  Biso   1.000  Co
  W31      1.0000 0.84708  0.33282  0.01567  Biso   1.000  W
  W32      1.0000 0.73305  0.42296  0.10493  Biso   1.000  W
  W33      1.0000 0.73107  0.33055  0.85936  Biso   1.000  W
  W34      1.0000 0.63182  0.34218  0.18144  Biso   1.000  W
  W35      1.0000 0.73380  0.34186  0.32371  Biso   1.000  W
  N25      1.0000 0.66160  0.41890  0.58760  Biso   1.000  N
  O85      1.0000 0.74570  0.42510  0.24830  Biso   1.000  O
  O86      1.0000 0.80020  0.39250  0.08420  Biso   1.000  O
  O87      1.0000 0.80050  0.18470  0.28900  Biso   1.000  O
  O88      1.0000 0.66240  0.35850  0.31450  Biso   1.000  O
  O89      1.0000 0.87610  0.31740  0.15110  Biso   1.000  O
  O90      1.0000 0.65920  0.31790  0.84590  Biso   1.000  O
  O91      1.0000 0.66170  0.42480  0.13290  Biso   1.000  O
  O92      1.0000 0.71420  0.32170  0.16100  Biso   1.000  O
  O93      1.0000 0.79890  0.32780  0.90740  Biso   1.000  O
  O94      1.0000 0.74320  0.37220  0.44540  Biso   1.000  O
  O95      1.0000 0.71960  0.39150  0.96930  Biso   1.000  O
  O96      1.0000 0.62390  0.31520  0.04090  Biso   1.000  O
  O97      1.0000 0.74150  0.50710  0.08450  Biso   1.000  O
  C73      1.0000 0.63850  0.46450  0.52310  Biso   1.000  C
  H61      1.0000 0.65460  0.48800  0.47070  Biso   1.000  H
  N26      1.0000 0.58030  0.42760  0.62860  Biso   1.000  N
  C74      1.0000 0.53420  0.41660  0.68190  Biso   1.000  C
  C75      1.0000 0.45280  0.45560  0.73830  Biso   1.000  C
  H62      1.0000 0.42790  0.48810  0.74030  Biso   1.000  H
  C76      1.0000 0.49800  0.46690  0.68540  Biso   1.000  C
  H63      1.0000 0.50380  0.50750  0.65300  Biso   1.000  H
  C77      1.0000 0.44590  0.39590  0.78710  Biso   1.000  C
  C78      1.0000 0.62590  0.40010  0.65300  Biso   1.000  C
  H64      1.0000 0.63130  0.37170  0.70860  Biso   1.000  H
  C79      1.0000 0.48050  0.34780  0.78400  Biso   1.000  C
  H65      1.0000 0.47410  0.30710  0.81520  Biso   1.000  H
  C80      1.0000 0.52730  0.35830  0.73100  Biso   1.000  C
  H66      1.0000 0.55220  0.32580  0.73180  Biso   1.000  H
  C81      1.0000 0.58990  0.46990  0.54700  Biso   1.000  C
  H67      1.0000 0.56650  0.49740  0.51450  Biso   1.000  H
  N27      1.0000 0.40110  0.38140  0.84450  Biso   1.000  N
  C82      1.0000 0.34820  0.34320  0.96220  Biso   1.000  C
  H68      1.0000 0.33550  0.32140  0.01990  Biso   1.000  H
  C83      1.0000 0.39820  0.34280  0.93440  Biso   1.000  C
  H69      1.0000 0.42450  0.32140  0.96810  Biso   1.000  H
  N28      1.0000 0.31980  0.37920  0.89570  Biso   1.000  N
  C84      1.0000 0.35300  0.40110  0.82360  Biso   1.000  C
  H70      1.0000 0.34390  0.42660  0.76670  Biso   1.000  H
  O98      1.0000 0.73720  0.38520  0.75580  Biso   1.000  O
  Co8      1.0000 0.75925  0.60694  0.09660  Biso   1.000  Co
  W36      1.0000 0.65292  0.66718  0.51567  Biso   1.000  W
  W37      1.0000 0.76695  0.57704  0.60493  Biso   1.000  W
  W38      1.0000 0.76893  0.66945  0.35936  Biso   1.000  W
  W39      1.0000 0.86818  0.65782  0.68144  Biso   1.000  W
  W40      1.0000 0.76620  0.65814  0.82371  Biso   1.000  W
  N29      1.0000 0.83840  0.58110  0.08760  Biso   1.000  N
  O99      1.0000 0.75430  0.57490  0.74830  Biso   1.000  O
  O100     1.0000 0.69980  0.60750  0.58420  Biso   1.000  O
  O101     1.0000 0.69950  0.81530  0.78900  Biso   1.000  O
  O102     1.0000 0.83760  0.64150  0.81450  Biso   1.000  O
  O103     1.0000 0.62390  0.68260  0.65110  Biso   1.000  O
  O104     1.0000 0.84080  0.68210  0.34590  Biso   1.000  O
  O105     1.0000 0.83830  0.57520  0.63290  Biso   1.000  O
  O106     1.0000 0.78580  0.67830  0.66100  Biso   1.000  O
  O107     1.0000 0.70110  0.67220  0.40740  Biso   1.000  O
  O108     1.0000 0.75680  0.62780  0.94540  Biso   1.000  O
  O109     1.0000 0.78040  0.60850  0.46930  Biso   1.000  O
  O110     1.0000 0.87610  0.68480  0.54090  Biso   1.000  O
  O111     1.0000 0.75850  0.49290  0.58450  Biso   1.000  O
  C85      1.0000 0.86150  0.53550  0.02310  Biso   1.000  C
  H71      1.0000 0.84540  0.51200  0.97070  Biso   1.000  H
  N30      1.0000 0.91970  0.57240  0.12860  Biso   1.000  N
  C86      1.0000 0.96580  0.58340  0.18190  Biso   1.000  C
  C87      1.0000 0.04720  0.54440  0.23830  Biso   1.000  C
  H72      1.0000 0.07210  0.51190  0.24030  Biso   1.000  H
  C88      1.0000 0.00200  0.53310  0.18540  Biso   1.000  C
  H73      1.0000 0.99620  0.49250  0.15300  Biso   1.000  H
  C89      1.0000 0.05410  0.60410  0.28710  Biso   1.000  C
  C90      1.0000 0.87410  0.59990  0.15300  Biso   1.000  C
  H74      1.0000 0.86870  0.62830  0.20860  Biso   1.000  H
  C91      1.0000 0.01950  0.65220  0.28400  Biso   1.000  C
  H75      1.0000 0.02590  0.69290  0.31520  Biso   1.000  H
  C92      1.0000 0.97270  0.64170  0.23100  Biso   1.000  C
  H76      1.0000 0.94780  0.67420  0.23180  Biso   1.000  H
  C93      1.0000 0.91010  0.53010  0.04700  Biso   1.000  C
  H77      1.0000 0.93350  0.50260  0.01450  Biso   1.000  H
  N31      1.0000 0.09890  0.61860  0.34450  Biso   1.000  N
  C94      1.0000 0.15180  0.65680  0.46220  Biso   1.000  C
  H78      1.0000 0.16450  0.67860  0.51990  Biso   1.000  H
  C95      1.0000 0.10180  0.65720  0.43440  Biso   1.000  C
  H79      1.0000 0.07550  0.67860  0.46810  Biso   1.000  H
  N32      1.0000 0.18020  0.62080  0.39570  Biso   1.000  N
  C96      1.0000 0.14700  0.59890  0.32360  Biso   1.000  C
  H80      1.0000 0.15610  0.57340  0.26670  Biso   1.000  H
  O112     1.0000 0.76280  0.61480  0.25580  Biso   1.000  O
  W41      1.0000 0.84766  0.25000  0.23956  Biso   1.000  W
  W42      1.0000 0.63104  0.25000  0.93449  Biso   1.000  W
  O113     1.0000 0.87730  0.25000  0.97310  Biso   1.000  O
  O114     1.0000 0.72140  0.25000  0.34930  Biso   1.000  O
  O115     1.0000 0.80170  0.25000  0.08910  Biso   1.000  O
  O116     1.0000 0.71380  0.25000  0.96480  Biso   1.000  O
  O117     1.0000 0.74370  0.25000  0.77910  Biso   1.000  O
  O118     1.0000 0.62510  0.25000  0.21390  Biso   1.000  O
  W43      1.0000 0.65234  0.75000  0.73956  Biso   1.000  W
  W44      1.0000 0.86896  0.75000  0.43449  Biso   1.000  W
  O119     1.0000 0.62270  0.75000  0.47310  Biso   1.000  O
  O120     1.0000 0.77860  0.75000  0.84930  Biso   1.000  O
  O121     1.0000 0.69830  0.75000  0.58910  Biso   1.000  O
  O122     1.0000 0.78620  0.75000  0.46480  Biso   1.000  O
  O123     1.0000 0.75630  0.75000  0.27910  Biso   1.000  O
  O124     1.0000 0.87490  0.75000  0.71390  Biso   1.000  O
  W45      1.0000 0.15234  0.75000  0.76044  Biso   1.000  W
  W46      1.0000 0.36896  0.75000  0.06551  Biso   1.000  W
  O125     1.0000 0.12270  0.75000  0.02690  Biso   1.000  O
  O126     1.0000 0.27860  0.75000  0.65070  Biso   1.000  O
  O127     1.0000 0.19830  0.75000  0.91090  Biso   1.000  O
  O128     1.0000 0.28620  0.75000  0.03520  Biso   1.000  O
  O129     1.0000 0.25630  0.75000  0.22090  Biso   1.000  O
  O130     1.0000 0.37490  0.75000  0.78610  Biso   1.000  O
  W47      1.0000 0.34766  0.25000  0.26044  Biso   1.000  W
  W48      1.0000 0.13104  0.25000  0.56551  Biso   1.000  W
  O131     1.0000 0.37730  0.25000  0.52690  Biso   1.000  O
  O132     1.0000 0.22140  0.25000  0.15070  Biso   1.000  O
  O133     1.0000 0.30170  0.25000  0.41090  Biso   1.000  O
  O134     1.0000 0.21380  0.25000  0.53520  Biso   1.000  O
  O135     1.0000 0.24370  0.25000  0.72090  Biso   1.000  O
  O136     1.0000 0.12510  0.25000  0.28610  Biso   1.000  O
