data_image0
_cell_length_a       26.8635
_cell_length_b       20.0627
_cell_length_c       13.1107
_cell_angle_alpha    90
_cell_angle_beta     90
_cell_angle_gamma    90

_symmetry_space_group_name_H-M    "P 1"
_symmetry_int_tables_number       1

loop_
  _symmetry_equiv_pos_as_xyz
  'x, y, z'

loop_
  _atom_site_label
  _atom_site_occupancy
  _atom_site_fract_x
  _atom_site_fract_y
  _atom_site_fract_z
  _atom_site_thermal_displace_type
  _atom_site_B_iso_or_equiv
  _atom_site_type_symbol
  W1       1.0000 0.26675  0.16699  0.87631  Biso   1.000  W
  W2       1.0000 0.26703  0.07466  0.12006  Biso   1.000  W
  W3       1.0000 0.26819  0.15799  0.33997  Biso   1.000  W
  W4       1.0000 0.36929  0.15759  0.19155  Biso   1.000  W
  W5       1.0000 0.15442  0.16649  0.03839  Biso   1.000  W
  Co1      1.0000 0.25868  0.10972  0.61350  Biso   1.000  Co
  O1       1.0000 0.37530  0.18450  0.05360  Biso   1.000  O
  O2       1.0000 0.20120  0.10740  0.10310  Biso   1.000  O
  O3       1.0000 0.27910  0.10830  0.98630  Biso   1.000  O
  O4       1.0000 0.33690  0.07590  0.14570  Biso   1.000  O
  O5       1.0000 0.25920  0.99190  0.10250  Biso   1.000  O
  O6       1.0000 0.26010  0.12720  0.46010  Biso   1.000  O
  O7       1.0000 0.33860  0.14420  0.32430  Biso   1.000  O
  O8       1.0000 0.25970  0.11390  0.77430  Biso   1.000  O
  O9       1.0000 0.33760  0.18290  0.86450  Biso   1.000  O
  O10      1.0000 0.25750  0.07620  0.26420  Biso   1.000  O
  O11      1.0000 0.20310  0.18570  0.30660  Biso   1.000  O
  O12      1.0000 0.28600  0.18010  0.17410  Biso   1.000  O
  O13      1.0000 0.20130  0.17160  0.93170  Biso   1.000  O
  O14      1.0000 0.12710  0.18200  0.17310  Biso   1.000  O
  N1       1.0000 0.33630  0.08200  0.61060  Biso   1.000  N
  N2       1.0000 0.68040  0.12400  0.88450  Biso   1.000  N
  N3       1.0000 0.41820  0.07090  0.64840  Biso   1.000  N
  N4       1.0000 0.59960  0.11880  0.84530  Biso   1.000  N
  C1       1.0000 0.37270  0.09840  0.67400  Biso   1.000  C
  H1       1.0000 0.36800  0.12560  0.73110  Biso   1.000  H
  C2       1.0000 0.46570  0.08250  0.70000  Biso   1.000  C
  C3       1.0000 0.47190  0.13780  0.74900  Biso   1.000  C
  H2       1.0000 0.44670  0.16960  0.75070  Biso   1.000  H
  C4       1.0000 0.40810  0.03130  0.56400  Biso   1.000  C
  H3       1.0000 0.43120  0.00620  0.52800  Biso   1.000  H
  C5       1.0000 0.35940  0.03570  0.54400  Biso   1.000  C
  H4       1.0000 0.34300  0.01170  0.49380  Biso   1.000  H
  C6       1.0000 0.50240  0.03650  0.69400  Biso   1.000  C
  H5       1.0000 0.49700  0.99640  0.66010  Biso   1.000  H
  C7       1.0000 0.64530  0.10160  0.81700  Biso   1.000  C
  H6       1.0000 0.65260  0.07750  0.75810  Biso   1.000  H
  C8       1.0000 0.65350  0.15620  0.96200  Biso   1.000  C
  H7       1.0000 0.66750  0.17510  0.02020  Biso   1.000  H
  C9       1.0000 0.54790  0.04930  0.73900  Biso   1.000  C
  H8       1.0000 0.57420  0.01970  0.73050  Biso   1.000  H
  C10      1.0000 0.55400  0.10540  0.79500  Biso   1.000  C
  C11      1.0000 0.51630  0.14920  0.79900  Biso   1.000  C
  H9       1.0000 0.52030  0.18810  0.83640  Biso   1.000  H
  C12      1.0000 0.60470  0.15550  0.94030  Biso   1.000  C
  H10      1.0000 0.57930  0.17470  0.97830  Biso   1.000  H
  W6       1.0000 0.23325  0.83301  0.37631  Biso   1.000  W
  W7       1.0000 0.23297  0.92534  0.62006  Biso   1.000  W
  W8       1.0000 0.23181  0.84201  0.83997  Biso   1.000  W
  W9       1.0000 0.13071  0.84241  0.69155  Biso   1.000  W
  W10      1.0000 0.34558  0.83351  0.53839  Biso   1.000  W
  Co2      1.0000 0.24132  0.89028  0.11350  Biso   1.000  Co
  O15      1.0000 0.12470  0.81550  0.55360  Biso   1.000  O
  O16      1.0000 0.29880  0.89260  0.60310  Biso   1.000  O
  O17      1.0000 0.22090  0.89170  0.48630  Biso   1.000  O
  O18      1.0000 0.16310  0.92410  0.64570  Biso   1.000  O
  O19      1.0000 0.24080  0.00810  0.60250  Biso   1.000  O
  O20      1.0000 0.23990  0.87280  0.96010  Biso   1.000  O
  O21      1.0000 0.16140  0.85580  0.82430  Biso   1.000  O
  O22      1.0000 0.24030  0.88610  0.27430  Biso   1.000  O
  O23      1.0000 0.16240  0.81710  0.36450  Biso   1.000  O
  O24      1.0000 0.24250  0.92380  0.76420  Biso   1.000  O
  O25      1.0000 0.29690  0.81430  0.80660  Biso   1.000  O
  O26      1.0000 0.21400  0.81990  0.67410  Biso   1.000  O
  O27      1.0000 0.29870  0.82840  0.43170  Biso   1.000  O
  O28      1.0000 0.37290  0.81800  0.67310  Biso   1.000  O
  N5       1.0000 0.16370  0.91800  0.11060  Biso   1.000  N
  N6       1.0000 0.81960  0.87600  0.38450  Biso   1.000  N
  N7       1.0000 0.08180  0.92910  0.14840  Biso   1.000  N
  N8       1.0000 0.90040  0.88120  0.34530  Biso   1.000  N
  C13      1.0000 0.12730  0.90160  0.17400  Biso   1.000  C
  H11      1.0000 0.13200  0.87440  0.23110  Biso   1.000  H
  C14      1.0000 0.03430  0.91750  0.20000  Biso   1.000  C
  C15      1.0000 0.02810  0.86220  0.24900  Biso   1.000  C
  H12      1.0000 0.05330  0.83040  0.25070  Biso   1.000  H
  C16      1.0000 0.09190  0.96870  0.06400  Biso   1.000  C
  H13      1.0000 0.06880  0.99380  0.02800  Biso   1.000  H
  C17      1.0000 0.14060  0.96430  0.04400  Biso   1.000  C
  H14      1.0000 0.15700  0.98830  0.99380  Biso   1.000  H
  C18      1.0000 0.99760  0.96350  0.19400  Biso   1.000  C
  H15      1.0000 0.00300  0.00360  0.16010  Biso   1.000  H
  C19      1.0000 0.85470  0.89840  0.31700  Biso   1.000  C
  H16      1.0000 0.84740  0.92250  0.25810  Biso   1.000  H
  C20      1.0000 0.84650  0.84380  0.46200  Biso   1.000  C
  H17      1.0000 0.83250  0.82490  0.52020  Biso   1.000  H
  C21      1.0000 0.95210  0.95070  0.23900  Biso   1.000  C
  H18      1.0000 0.92580  0.98030  0.23050  Biso   1.000  H
  C22      1.0000 0.94600  0.89460  0.29500  Biso   1.000  C
  C23      1.0000 0.98370  0.85080  0.29900  Biso   1.000  C
  H19      1.0000 0.97970  0.81190  0.33640  Biso   1.000  H
  C24      1.0000 0.89530  0.84450  0.44030  Biso   1.000  C
  H20      1.0000 0.92070  0.82530  0.47830  Biso   1.000  H
  W11      1.0000 0.73325  0.66699  0.12369  Biso   1.000  W
  W12      1.0000 0.73297  0.57466  0.87994  Biso   1.000  W
  W13      1.0000 0.73181  0.65799  0.66003  Biso   1.000  W
  W14      1.0000 0.63071  0.65759  0.80845  Biso   1.000  W
  W15      1.0000 0.84558  0.66649  0.96161  Biso   1.000  W
  Co3      1.0000 0.74132  0.60972  0.38650  Biso   1.000  Co
  O29      1.0000 0.62470  0.68450  0.94640  Biso   1.000  O
  O30      1.0000 0.79880  0.60740  0.89690  Biso   1.000  O
  O31      1.0000 0.72090  0.60830  0.01370  Biso   1.000  O
  O32      1.0000 0.66310  0.57590  0.85430  Biso   1.000  O
  O33      1.0000 0.74080  0.49190  0.89750  Biso   1.000  O
  O34      1.0000 0.73990  0.62720  0.53990  Biso   1.000  O
  O35      1.0000 0.66140  0.64420  0.67570  Biso   1.000  O
  O36      1.0000 0.74030  0.61390  0.22570  Biso   1.000  O
  O37      1.0000 0.66240  0.68290  0.13550  Biso   1.000  O
  O38      1.0000 0.74250  0.57620  0.73580  Biso   1.000  O
  O39      1.0000 0.79690  0.68570  0.69340  Biso   1.000  O
  O40      1.0000 0.71400  0.68010  0.82590  Biso   1.000  O
  O41      1.0000 0.79870  0.67160  0.06830  Biso   1.000  O
  O42      1.0000 0.87290  0.68200  0.82690  Biso   1.000  O
  N9       1.0000 0.66370  0.58200  0.38940  Biso   1.000  N
  N10      1.0000 0.31960  0.62400  0.11550  Biso   1.000  N
  N11      1.0000 0.58180  0.57090  0.35160  Biso   1.000  N
  N12      1.0000 0.40040  0.61880  0.15470  Biso   1.000  N
  C25      1.0000 0.62730  0.59840  0.32600  Biso   1.000  C
  H21      1.0000 0.63200  0.62560  0.26890  Biso   1.000  H
  C26      1.0000 0.53430  0.58250  0.30000  Biso   1.000  C
  C27      1.0000 0.52810  0.63780  0.25100  Biso   1.000  C
  H22      1.0000 0.55330  0.66960  0.24930  Biso   1.000  H
  C28      1.0000 0.59190  0.53130  0.43600  Biso   1.000  C
  H23      1.0000 0.56880  0.50620  0.47200  Biso   1.000  H
  C29      1.0000 0.64060  0.53570  0.45600  Biso   1.000  C
  H24      1.0000 0.65700  0.51170  0.50620  Biso   1.000  H
  C30      1.0000 0.49760  0.53650  0.30600  Biso   1.000  C
  H25      1.0000 0.50300  0.49640  0.33990  Biso   1.000  H
  C31      1.0000 0.35470  0.60160  0.18300  Biso   1.000  C
  H26      1.0000 0.34740  0.57750  0.24190  Biso   1.000  H
  C32      1.0000 0.34650  0.65620  0.03800  Biso   1.000  C
  H27      1.0000 0.33250  0.67510  0.97980  Biso   1.000  H
  C33      1.0000 0.45210  0.54930  0.26100  Biso   1.000  C
  H28      1.0000 0.42580  0.51970  0.26950  Biso   1.000  H
  C34      1.0000 0.44600  0.60540  0.20500  Biso   1.000  C
  C35      1.0000 0.48370  0.64920  0.20100  Biso   1.000  C
  H29      1.0000 0.47970  0.68810  0.16360  Biso   1.000  H
  C36      1.0000 0.39530  0.65550  0.05970  Biso   1.000  C
  H30      1.0000 0.42070  0.67470  0.02170  Biso   1.000  H
  W16      1.0000 0.76675  0.33301  0.62369  Biso   1.000  W
  W17      1.0000 0.76703  0.42534  0.37994  Biso   1.000  W
  W18      1.0000 0.76819  0.34201  0.16003  Biso   1.000  W
  W19      1.0000 0.86929  0.34241  0.30845  Biso   1.000  W
  W20      1.0000 0.65442  0.33351  0.46161  Biso   1.000  W
  Co4      1.0000 0.75868  0.39028  0.88650  Biso   1.000  Co
  O43      1.0000 0.87530  0.31550  0.44640  Biso   1.000  O
  O44      1.0000 0.70120  0.39260  0.39690  Biso   1.000  O
  O45      1.0000 0.77910  0.39170  0.51370  Biso   1.000  O
  O46      1.0000 0.83690  0.42410  0.35430  Biso   1.000  O
  O47      1.0000 0.75920  0.50810  0.39750  Biso   1.000  O
  O48      1.0000 0.76010  0.37280  0.03990  Biso   1.000  O
  O49      1.0000 0.83860  0.35580  0.17570  Biso   1.000  O
  O50      1.0000 0.75970  0.38610  0.72570  Biso   1.000  O
  O51      1.0000 0.83760  0.31710  0.63550  Biso   1.000  O
  O52      1.0000 0.75750  0.42380  0.23580  Biso   1.000  O
  O53      1.0000 0.70310  0.31430  0.19340  Biso   1.000  O
  O54      1.0000 0.78600  0.31990  0.32590  Biso   1.000  O
  O55      1.0000 0.70130  0.32840  0.56830  Biso   1.000  O
  O56      1.0000 0.62710  0.31800  0.32690  Biso   1.000  O
  N13      1.0000 0.83630  0.41800  0.88940  Biso   1.000  N
  N14      1.0000 0.18040  0.37600  0.61550  Biso   1.000  N
  N15      1.0000 0.91820  0.42910  0.85160  Biso   1.000  N
  N16      1.0000 0.09960  0.38120  0.65470  Biso   1.000  N
  C37      1.0000 0.87270  0.40160  0.82600  Biso   1.000  C
  H31      1.0000 0.86800  0.37440  0.76890  Biso   1.000  H
  C38      1.0000 0.96570  0.41750  0.80000  Biso   1.000  C
  C39      1.0000 0.97190  0.36220  0.75100  Biso   1.000  C
  H32      1.0000 0.94670  0.33040  0.74930  Biso   1.000  H
  C40      1.0000 0.90810  0.46870  0.93600  Biso   1.000  C
  H33      1.0000 0.93120  0.49380  0.97200  Biso   1.000  H
  C41      1.0000 0.85940  0.46430  0.95600  Biso   1.000  C
  H34      1.0000 0.84300  0.48830  0.00620  Biso   1.000  H
  C42      1.0000 0.00240  0.46350  0.80600  Biso   1.000  C
  H35      1.0000 0.99700  0.50360  0.83990  Biso   1.000  H
  C43      1.0000 0.14530  0.39840  0.68300  Biso   1.000  C
  H36      1.0000 0.15260  0.42250  0.74190  Biso   1.000  H
  C44      1.0000 0.15350  0.34380  0.53800  Biso   1.000  C
  H37      1.0000 0.16750  0.32490  0.47980  Biso   1.000  H
  C45      1.0000 0.04790  0.45070  0.76100  Biso   1.000  C
  H38      1.0000 0.07420  0.48030  0.76950  Biso   1.000  H
  C46      1.0000 0.05400  0.39460  0.70500  Biso   1.000  C
  C47      1.0000 0.01630  0.35080  0.70100  Biso   1.000  C
  H39      1.0000 0.02030  0.31190  0.66360  Biso   1.000  H
  C48      1.0000 0.10470  0.34450  0.55970  Biso   1.000  C
  H40      1.0000 0.07930  0.32530  0.52170  Biso   1.000  H
  W21      1.0000 0.73325  0.83301  0.12369  Biso   1.000  W
  W22      1.0000 0.73297  0.92534  0.87994  Biso   1.000  W
  W23      1.0000 0.73181  0.84201  0.66003  Biso   1.000  W
  W24      1.0000 0.63071  0.84241  0.80845  Biso   1.000  W
  W25      1.0000 0.84558  0.83351  0.96161  Biso   1.000  W
  Co5      1.0000 0.74132  0.89028  0.38650  Biso   1.000  Co
  O57      1.0000 0.62470  0.81550  0.94640  Biso   1.000  O
  O58      1.0000 0.79880  0.89260  0.89690  Biso   1.000  O
  O59      1.0000 0.72090  0.89170  0.01370  Biso   1.000  O
  O60      1.0000 0.66310  0.92410  0.85430  Biso   1.000  O
  O61      1.0000 0.74080  0.00810  0.89750  Biso   1.000  O
  O62      1.0000 0.73990  0.87280  0.53990  Biso   1.000  O
  O63      1.0000 0.66140  0.85580  0.67570  Biso   1.000  O
  O64      1.0000 0.74030  0.88610  0.22570  Biso   1.000  O
  O65      1.0000 0.66240  0.81710  0.13550  Biso   1.000  O
  O66      1.0000 0.74250  0.92380  0.73580  Biso   1.000  O
  O67      1.0000 0.79690  0.81430  0.69340  Biso   1.000  O
  O68      1.0000 0.71400  0.81990  0.82590  Biso   1.000  O
  O69      1.0000 0.79870  0.82840  0.06830  Biso   1.000  O
  O70      1.0000 0.87290  0.81800  0.82690  Biso   1.000  O
  N17      1.0000 0.66370  0.91800  0.38940  Biso   1.000  N
  N18      1.0000 0.31960  0.87600  0.11550  Biso   1.000  N
  N19      1.0000 0.58180  0.92910  0.35160  Biso   1.000  N
  N20      1.0000 0.40040  0.88120  0.15470  Biso   1.000  N
  C49      1.0000 0.62730  0.90160  0.32600  Biso   1.000  C
  H41      1.0000 0.63200  0.87440  0.26890  Biso   1.000  H
  C50      1.0000 0.53430  0.91750  0.30000  Biso   1.000  C
  C51      1.0000 0.52810  0.86220  0.25100  Biso   1.000  C
  H42      1.0000 0.55330  0.83040  0.24930  Biso   1.000  H
  C52      1.0000 0.59190  0.96870  0.43600  Biso   1.000  C
  H43      1.0000 0.56880  0.99380  0.47200  Biso   1.000  H
  C53      1.0000 0.64060  0.96430  0.45600  Biso   1.000  C
  H44      1.0000 0.65700  0.98830  0.50620  Biso   1.000  H
  C54      1.0000 0.49760  0.96350  0.30600  Biso   1.000  C
  H45      1.0000 0.50300  0.00360  0.33990  Biso   1.000  H
  C55      1.0000 0.35470  0.89840  0.18300  Biso   1.000  C
  H46      1.0000 0.34740  0.92250  0.24190  Biso   1.000  H
  C56      1.0000 0.34650  0.84380  0.03800  Biso   1.000  C
  H47      1.0000 0.33250  0.82490  0.97980  Biso   1.000  H
  C57      1.0000 0.45210  0.95070  0.26100  Biso   1.000  C
  H48      1.0000 0.42580  0.98030  0.26950  Biso   1.000  H
  C58      1.0000 0.44600  0.89460  0.20500  Biso   1.000  C
  C59      1.0000 0.48370  0.85080  0.20100  Biso   1.000  C
  H49      1.0000 0.47970  0.81190  0.16360  Biso   1.000  H
  C60      1.0000 0.39530  0.84450  0.05970  Biso   1.000  C
  H50      1.0000 0.42070  0.82530  0.02170  Biso   1.000  H
  W26      1.0000 0.76675  0.16699  0.62369  Biso   1.000  W
  W27      1.0000 0.76703  0.07466  0.37994  Biso   1.000  W
  W28      1.0000 0.76819  0.15799  0.16003  Biso   1.000  W
  W29      1.0000 0.86929  0.15759  0.30845  Biso   1.000  W
  W30      1.0000 0.65442  0.16649  0.46161  Biso   1.000  W
  Co6      1.0000 0.75868  0.10972  0.88650  Biso   1.000  Co
  O71      1.0000 0.87530  0.18450  0.44640  Biso   1.000  O
  O72      1.0000 0.70120  0.10740  0.39690  Biso   1.000  O
  O73      1.0000 0.77910  0.10830  0.51370  Biso   1.000  O
  O74      1.0000 0.83690  0.07590  0.35430  Biso   1.000  O
  O75      1.0000 0.75920  0.99190  0.39750  Biso   1.000  O
  O76      1.0000 0.76010  0.12720  0.03990  Biso   1.000  O
  O77      1.0000 0.83860  0.14420  0.17570  Biso   1.000  O
  O78      1.0000 0.75970  0.11390  0.72570  Biso   1.000  O
  O79      1.0000 0.83760  0.18290  0.63550  Biso   1.000  O
  O80      1.0000 0.75750  0.07620  0.23580  Biso   1.000  O
  O81      1.0000 0.70310  0.18570  0.19340  Biso   1.000  O
  O82      1.0000 0.78600  0.18010  0.32590  Biso   1.000  O
  O83      1.0000 0.70130  0.17160  0.56830  Biso   1.000  O
  O84      1.0000 0.62710  0.18200  0.32690  Biso   1.000  O
  N21      1.0000 0.83630  0.08200  0.88940  Biso   1.000  N
  N22      1.0000 0.18040  0.12400  0.61550  Biso   1.000  N
  N23      1.0000 0.91820  0.07090  0.85160  Biso   1.000  N
  N24      1.0000 0.09960  0.11880  0.65470  Biso   1.000  N
  C61      1.0000 0.87270  0.09840  0.82600  Biso   1.000  C
  H51      1.0000 0.86800  0.12560  0.76890  Biso   1.000  H
  C62      1.0000 0.96570  0.08250  0.80000  Biso   1.000  C
  C63      1.0000 0.97190  0.13780  0.75100  Biso   1.000  C
  H52      1.0000 0.94670  0.16960  0.74930  Biso   1.000  H
  C64      1.0000 0.90810  0.03130  0.93600  Biso   1.000  C
  H53      1.0000 0.93120  0.00620  0.97200  Biso   1.000  H
  C65      1.0000 0.85940  0.03570  0.95600  Biso   1.000  C
  H54      1.0000 0.84300  0.01170  0.00620  Biso   1.000  H
  C66      1.0000 0.00240  0.03650  0.80600  Biso   1.000  C
  H55      1.0000 0.99700  0.99640  0.83990  Biso   1.000  H
  C67      1.0000 0.14530  0.10160  0.68300  Biso   1.000  C
  H56      1.0000 0.15260  0.07750  0.74190  Biso   1.000  H
  C68      1.0000 0.15350  0.15620  0.53800  Biso   1.000  C
  H57      1.0000 0.16750  0.17510  0.47980  Biso   1.000  H
  C69      1.0000 0.04790  0.04930  0.76100  Biso   1.000  C
  H58      1.0000 0.07420  0.01970  0.76950  Biso   1.000  H
  C70      1.0000 0.05400  0.10540  0.70500  Biso   1.000  C
  C71      1.0000 0.01630  0.14920  0.70100  Biso   1.000  C
  H59      1.0000 0.02030  0.18810  0.66360  Biso   1.000  H
  C72      1.0000 0.10470  0.15550  0.55970  Biso   1.000  C
  H60      1.0000 0.07930  0.17470  0.52170  Biso   1.000  H
  W31      1.0000 0.26675  0.33301  0.87631  Biso   1.000  W
  W32      1.0000 0.26703  0.42534  0.12006  Biso   1.000  W
  W33      1.0000 0.26819  0.34201  0.33997  Biso   1.000  W
  W34      1.0000 0.36929  0.34241  0.19155  Biso   1.000  W
  W35      1.0000 0.15442  0.33351  0.03839  Biso   1.000  W
  Co7      1.0000 0.25868  0.39028  0.61350  Biso   1.000  Co
  O85      1.0000 0.37530  0.31550  0.05360  Biso   1.000  O
  O86      1.0000 0.20120  0.39260  0.10310  Biso   1.000  O
  O87      1.0000 0.27910  0.39170  0.98630  Biso   1.000  O
  O88      1.0000 0.33690  0.42410  0.14570  Biso   1.000  O
  O89      1.0000 0.25920  0.50810  0.10250  Biso   1.000  O
  O90      1.0000 0.26010  0.37280  0.46010  Biso   1.000  O
  O91      1.0000 0.33860  0.35580  0.32430  Biso   1.000  O
  O92      1.0000 0.25970  0.38610  0.77430  Biso   1.000  O
  O93      1.0000 0.33760  0.31710  0.86450  Biso   1.000  O
  O94      1.0000 0.25750  0.42380  0.26420  Biso   1.000  O
  O95      1.0000 0.20310  0.31430  0.30660  Biso   1.000  O
  O96      1.0000 0.28600  0.31990  0.17410  Biso   1.000  O
  O97      1.0000 0.20130  0.32840  0.93170  Biso   1.000  O
  O98      1.0000 0.12710  0.31800  0.17310  Biso   1.000  O
  N25      1.0000 0.33630  0.41800  0.61060  Biso   1.000  N
  N26      1.0000 0.68040  0.37600  0.88450  Biso   1.000  N
  N27      1.0000 0.41820  0.42910  0.64840  Biso   1.000  N
  N28      1.0000 0.59960  0.38120  0.84530  Biso   1.000  N
  C73      1.0000 0.37270  0.40160  0.67400  Biso   1.000  C
  H61      1.0000 0.36800  0.37440  0.73110  Biso   1.000  H
  C74      1.0000 0.46570  0.41750  0.70000  Biso   1.000  C
  C75      1.0000 0.47190  0.36220  0.74900  Biso   1.000  C
  H62      1.0000 0.44670  0.33040  0.75070  Biso   1.000  H
  C76      1.0000 0.40810  0.46870  0.56400  Biso   1.000  C
  H63      1.0000 0.43120  0.49380  0.52800  Biso   1.000  H
  C77      1.0000 0.35940  0.46430  0.54400  Biso   1.000  C
  H64      1.0000 0.34300  0.48830  0.49380  Biso   1.000  H
  C78      1.0000 0.50240  0.46350  0.69400  Biso   1.000  C
  H65      1.0000 0.49700  0.50360  0.66010  Biso   1.000  H
  C79      1.0000 0.64530  0.39840  0.81700  Biso   1.000  C
  H66      1.0000 0.65260  0.42250  0.75810  Biso   1.000  H
  C80      1.0000 0.65350  0.34380  0.96200  Biso   1.000  C
  H67      1.0000 0.66750  0.32490  0.02020  Biso   1.000  H
  C81      1.0000 0.54790  0.45070  0.73900  Biso   1.000  C
  H68      1.0000 0.57420  0.48030  0.73050  Biso   1.000  H
  C82      1.0000 0.55400  0.39460  0.79500  Biso   1.000  C
  C83      1.0000 0.51630  0.35080  0.79900  Biso   1.000  C
  H69      1.0000 0.52030  0.31190  0.83640  Biso   1.000  H
  C84      1.0000 0.60470  0.34450  0.94030  Biso   1.000  C
  H70      1.0000 0.57930  0.32530  0.97830  Biso   1.000  H
  W36      1.0000 0.23325  0.66699  0.37631  Biso   1.000  W
  W37      1.0000 0.23297  0.57466  0.62006  Biso   1.000  W
  W38      1.0000 0.23181  0.65799  0.83997  Biso   1.000  W
  W39      1.0000 0.13071  0.65759  0.69155  Biso   1.000  W
  W40      1.0000 0.34558  0.66649  0.53839  Biso   1.000  W
  Co8      1.0000 0.24132  0.60972  0.11350  Biso   1.000  Co
  O99      1.0000 0.12470  0.68450  0.55360  Biso   1.000  O
  O100     1.0000 0.29880  0.60740  0.60310  Biso   1.000  O
  O101     1.0000 0.22090  0.60830  0.48630  Biso   1.000  O
  O102     1.0000 0.16310  0.57590  0.64570  Biso   1.000  O
  O103     1.0000 0.24080  0.49190  0.60250  Biso   1.000  O
  O104     1.0000 0.23990  0.62720  0.96010  Biso   1.000  O
  O105     1.0000 0.16140  0.64420  0.82430  Biso   1.000  O
  O106     1.0000 0.24030  0.61390  0.27430  Biso   1.000  O
  O107     1.0000 0.16240  0.68290  0.36450  Biso   1.000  O
  O108     1.0000 0.24250  0.57620  0.76420  Biso   1.000  O
  O109     1.0000 0.29690  0.68570  0.80660  Biso   1.000  O
  O110     1.0000 0.21400  0.68010  0.67410  Biso   1.000  O
  O111     1.0000 0.29870  0.67160  0.43170  Biso   1.000  O
  O112     1.0000 0.37290  0.68200  0.67310  Biso   1.000  O
  N29      1.0000 0.16370  0.58200  0.11060  Biso   1.000  N
  N30      1.0000 0.81960  0.62400  0.38450  Biso   1.000  N
  N31      1.0000 0.08180  0.57090  0.14840  Biso   1.000  N
  N32      1.0000 0.90040  0.61880  0.34530  Biso   1.000  N
  C85      1.0000 0.12730  0.59840  0.17400  Biso   1.000  C
  H71      1.0000 0.13200  0.62560  0.23110  Biso   1.000  H
  C86      1.0000 0.03430  0.58250  0.20000  Biso   1.000  C
  C87      1.0000 0.02810  0.63780  0.24900  Biso   1.000  C
  H72      1.0000 0.05330  0.66960  0.25070  Biso   1.000  H
  C88      1.0000 0.09190  0.53130  0.06400  Biso   1.000  C
  H73      1.0000 0.06880  0.50620  0.02800  Biso   1.000  H
  C89      1.0000 0.14060  0.53570  0.04400  Biso   1.000  C
  H74      1.0000 0.15700  0.51170  0.99380  Biso   1.000  H
  C90      1.0000 0.99760  0.53650  0.19400  Biso   1.000  C
  H75      1.0000 0.00300  0.49640  0.16010  Biso   1.000  H
  C91      1.0000 0.85470  0.60160  0.31700  Biso   1.000  C
  H76      1.0000 0.84740  0.57750  0.25810  Biso   1.000  H
  C92      1.0000 0.84650  0.65620  0.46200  Biso   1.000  C
  H77      1.0000 0.83250  0.67510  0.52020  Biso   1.000  H
  C93      1.0000 0.95210  0.54930  0.23900  Biso   1.000  C
  H78      1.0000 0.92580  0.51970  0.23050  Biso   1.000  H
  C94      1.0000 0.94600  0.60540  0.29500  Biso   1.000  C
  C95      1.0000 0.98370  0.64920  0.29900  Biso   1.000  C
  H79      1.0000 0.97970  0.68810  0.33640  Biso   1.000  H
  C96      1.0000 0.89530  0.65550  0.44030  Biso   1.000  C
  H80      1.0000 0.92070  0.67470  0.47830  Biso   1.000  H
  W41      1.0000 0.15514  0.25000  0.25969  Biso   1.000  W
  W42      1.0000 0.36851  0.25000  0.94782  Biso   1.000  W
  Ge1      1.0000 0.26413  0.25000  0.11195  Biso   1.000  Ge
  O113     1.0000 0.12490  0.25000  0.99650  Biso   1.000  O
  O114     1.0000 0.25510  0.25000  0.80320  Biso   1.000  O
  O115     1.0000 0.28220  0.25000  0.36210  Biso   1.000  O
  O116     1.0000 0.37550  0.25000  0.22410  Biso   1.000  O
  O117     1.0000 0.20030  0.25000  0.11160  Biso   1.000  O
  O118     1.0000 0.28510  0.25000  0.98830  Biso   1.000  O
  W43      1.0000 0.34486  0.75000  0.75969  Biso   1.000  W
  W44      1.0000 0.13149  0.75000  0.44782  Biso   1.000  W
  Ge2      1.0000 0.23587  0.75000  0.61195  Biso   1.000  Ge
  O119     1.0000 0.37510  0.75000  0.49650  Biso   1.000  O
  O120     1.0000 0.24490  0.75000  0.30320  Biso   1.000  O
  O121     1.0000 0.21780  0.75000  0.86210  Biso   1.000  O
  O122     1.0000 0.12450  0.75000  0.72410  Biso   1.000  O
  O123     1.0000 0.29970  0.75000  0.61160  Biso   1.000  O
  O124     1.0000 0.21490  0.75000  0.48830  Biso   1.000  O
  W45      1.0000 0.84486  0.75000  0.74031  Biso   1.000  W
  W46      1.0000 0.63149  0.75000  0.05218  Biso   1.000  W
  Ge3      1.0000 0.73587  0.75000  0.88805  Biso   1.000  Ge
  O125     1.0000 0.87510  0.75000  0.00350  Biso   1.000  O
  O126     1.0000 0.74490  0.75000  0.19680  Biso   1.000  O
  O127     1.0000 0.71780  0.75000  0.63790  Biso   1.000  O
  O128     1.0000 0.62450  0.75000  0.77590  Biso   1.000  O
  O129     1.0000 0.79970  0.75000  0.88840  Biso   1.000  O
  O130     1.0000 0.71490  0.75000  0.01170  Biso   1.000  O
  W47      1.0000 0.65514  0.25000  0.24031  Biso   1.000  W
  W48      1.0000 0.86851  0.25000  0.55218  Biso   1.000  W
  Ge4      1.0000 0.76413  0.25000  0.38805  Biso   1.000  Ge
  O131     1.0000 0.62490  0.25000  0.50350  Biso   1.000  O
  O132     1.0000 0.75510  0.25000  0.69680  Biso   1.000  O
  O133     1.0000 0.78220  0.25000  0.13790  Biso   1.000  O
  O134     1.0000 0.87550  0.25000  0.27590  Biso   1.000  O
  O135     1.0000 0.70030  0.25000  0.38840  Biso   1.000  O
  O136     1.0000 0.78510  0.25000  0.51170  Biso   1.000  O
