data_image0
_cell_length_a       26.664
_cell_length_b       20.022
_cell_length_c       12.937
_cell_angle_alpha    90
_cell_angle_beta     90
_cell_angle_gamma    90

_symmetry_space_group_name_H-M    "P 1"
_symmetry_int_tables_number       1

loop_
  _symmetry_equiv_pos_as_xyz
  'x, y, z'

loop_
  _atom_site_label
  _atom_site_occupancy
  _atom_site_fract_x
  _atom_site_fract_y
  _atom_site_fract_z
  _atom_site_thermal_displace_type
  _atom_site_B_iso_or_equiv
  _atom_site_type_symbol
  W1       1.0000 0.15487  0.16719  0.96933  Biso   1.000  W
  W2       1.0000 0.26672  0.16822  0.12835  Biso   1.000  W
  W3       1.0000 0.26635  0.07766  0.88591  Biso   1.000  W
  W4       1.0000 0.36799  0.15892  0.81162  Biso   1.000  W
  W5       1.0000 0.26645  0.15955  0.66603  Biso   1.000  W
  Ag1      1.0000 0.25710  0.10590  0.39080  Biso   1.000  Ag
  O1       1.0000 0.28180  0.18840  0.84110  Biso   1.000  O
  O2       1.0000 0.25640  0.07810  0.74370  Biso   1.000  O
  O3       1.0000 0.37820  0.18380  0.95320  Biso   1.000  O
  O4       1.0000 0.33750  0.18450  0.14000  Biso   1.000  O
  O5       1.0000 0.20000  0.17140  0.07850  Biso   1.000  O
  O6       1.0000 0.12600  0.18480  0.83530  Biso   1.000  O
  O7       1.0000 0.20060  0.31450  0.69670  Biso   1.000  O
  O8       1.0000 0.33770  0.14600  0.68110  Biso   1.000  O
  O9       1.0000 0.33720  0.07870  0.85590  Biso   1.000  O
  O10      1.0000 0.27980  0.10570  0.02310  Biso   1.000  O
  O11      1.0000 0.26080  0.11620  0.23400  Biso   1.000  O
  O12      1.0000 0.19890  0.10720  0.90260  Biso   1.000  O
  O13      1.0000 0.25890  0.12610  0.54750  Biso   1.000  O
  N1       1.0000 0.33540  0.07830  0.39400  Biso   1.000  N
  N2       1.0000 0.68410  0.12080  0.11500  Biso   1.000  N
  N3       1.0000 0.41540  0.07050  0.36070  Biso   1.000  N
  N4       1.0000 0.59850  0.11870  0.15600  Biso   1.000  N
  C1       1.0000 0.37030  0.09870  0.33200  Biso   1.000  C
  H1       1.0000 0.36560  0.12790  0.27740  Biso   1.000  H
  C2       1.0000 0.64620  0.09950  0.18200  Biso   1.000  C
  H2       1.0000 0.65300  0.07400  0.24020  Biso   1.000  H
  C3       1.0000 0.65240  0.15670  0.03800  Biso   1.000  C
  H3       1.0000 0.66560  0.17750  0.97970  Biso   1.000  H
  C4       1.0000 0.50110  0.03400  0.31100  Biso   1.000  C
  H4       1.0000 0.49570  0.99320  0.34390  Biso   1.000  H
  C5       1.0000 0.46320  0.08140  0.30500  Biso   1.000  C
  C6       1.0000 0.40610  0.03550  0.44200  Biso   1.000  C
  H5       1.0000 0.42960  0.01120  0.47930  Biso   1.000  H
  C7       1.0000 0.35810  0.03960  0.46300  Biso   1.000  C
  H6       1.0000 0.34240  0.01850  0.51870  Biso   1.000  H
  C8       1.0000 0.47050  0.13980  0.25000  Biso   1.000  C
  H7       1.0000 0.44500  0.17120  0.24370  Biso   1.000  H
  C9       1.0000 0.51510  0.14900  0.20800  Biso   1.000  C
  H8       1.0000 0.52000  0.18910  0.17210  Biso   1.000  H
  C10      1.0000 0.60360  0.15640  0.06000  Biso   1.000  C
  H9       1.0000 0.57800  0.17610  0.02180  Biso   1.000  H
  C11      1.0000 0.55540  0.10540  0.21300  Biso   1.000  C
  C12      1.0000 0.54600  0.04840  0.26700  Biso   1.000  C
  H10      1.0000 0.57200  0.01780  0.27500  Biso   1.000  H
  O14      1.0000 0.25990  0.99210  0.90480  Biso   1.000  O
  W6       1.0000 0.34513  0.83281  0.46933  Biso   1.000  W
  W7       1.0000 0.23328  0.83178  0.62835  Biso   1.000  W
  W8       1.0000 0.23365  0.92234  0.38591  Biso   1.000  W
  W9       1.0000 0.13201  0.84108  0.31162  Biso   1.000  W
  W10      1.0000 0.23355  0.84045  0.16603  Biso   1.000  W
  Ag2      1.0000 0.24290  0.89410  0.89080  Biso   1.000  Ag
  O15      1.0000 0.21820  0.81160  0.34110  Biso   1.000  O
  O16      1.0000 0.24360  0.92190  0.24370  Biso   1.000  O
  O17      1.0000 0.12180  0.81620  0.45320  Biso   1.000  O
  O18      1.0000 0.16250  0.81550  0.64000  Biso   1.000  O
  O19      1.0000 0.30000  0.82860  0.57850  Biso   1.000  O
  O20      1.0000 0.37400  0.81520  0.33530  Biso   1.000  O
  O21      1.0000 0.29940  0.68550  0.19670  Biso   1.000  O
  O22      1.0000 0.16230  0.85400  0.18110  Biso   1.000  O
  O23      1.0000 0.16280  0.92130  0.35590  Biso   1.000  O
  O24      1.0000 0.22020  0.89430  0.52310  Biso   1.000  O
  O25      1.0000 0.23920  0.88380  0.73400  Biso   1.000  O
  O26      1.0000 0.30110  0.89280  0.40260  Biso   1.000  O
  O27      1.0000 0.24110  0.87390  0.04750  Biso   1.000  O
  N5       1.0000 0.16460  0.92170  0.89400  Biso   1.000  N
  N6       1.0000 0.81590  0.87920  0.61500  Biso   1.000  N
  N7       1.0000 0.08460  0.92950  0.86070  Biso   1.000  N
  N8       1.0000 0.90150  0.88130  0.65600  Biso   1.000  N
  C13      1.0000 0.12970  0.90130  0.83200  Biso   1.000  C
  H11      1.0000 0.13440  0.87210  0.77740  Biso   1.000  H
  C14      1.0000 0.85380  0.90050  0.68200  Biso   1.000  C
  H12      1.0000 0.84700  0.92600  0.74020  Biso   1.000  H
  C15      1.0000 0.84760  0.84330  0.53800  Biso   1.000  C
  H13      1.0000 0.83440  0.82250  0.47970  Biso   1.000  H
  C16      1.0000 0.99890  0.96600  0.81100  Biso   1.000  C
  H14      1.0000 0.00430  0.00680  0.84390  Biso   1.000  H
  C17      1.0000 0.03680  0.91860  0.80500  Biso   1.000  C
  C18      1.0000 0.09390  0.96450  0.94200  Biso   1.000  C
  H15      1.0000 0.07040  0.98880  0.97930  Biso   1.000  H
  C19      1.0000 0.14190  0.96040  0.96300  Biso   1.000  C
  H16      1.0000 0.15760  0.98150  0.01870  Biso   1.000  H
  C20      1.0000 0.02950  0.86020  0.75000  Biso   1.000  C
  H17      1.0000 0.05500  0.82880  0.74370  Biso   1.000  H
  C21      1.0000 0.98490  0.85100  0.70800  Biso   1.000  C
  H18      1.0000 0.98000  0.81090  0.67210  Biso   1.000  H
  C22      1.0000 0.89640  0.84360  0.56000  Biso   1.000  C
  H19      1.0000 0.92200  0.82390  0.52180  Biso   1.000  H
  C23      1.0000 0.94460  0.89460  0.71300  Biso   1.000  C
  C24      1.0000 0.95400  0.95160  0.76700  Biso   1.000  C
  H20      1.0000 0.92800  0.98220  0.77500  Biso   1.000  H
  O28      1.0000 0.24010  0.00790  0.40480  Biso   1.000  O
  W11      1.0000 0.84513  0.66719  0.03067  Biso   1.000  W
  W12      1.0000 0.73328  0.66822  0.87165  Biso   1.000  W
  W13      1.0000 0.73365  0.57766  0.11409  Biso   1.000  W
  W14      1.0000 0.63201  0.65892  0.18838  Biso   1.000  W
  W15      1.0000 0.73355  0.65955  0.33397  Biso   1.000  W
  Ag3      1.0000 0.74290  0.60590  0.60920  Biso   1.000  Ag
  O29      1.0000 0.71820  0.68840  0.15890  Biso   1.000  O
  O30      1.0000 0.74360  0.57810  0.25630  Biso   1.000  O
  O31      1.0000 0.62180  0.68380  0.04680  Biso   1.000  O
  O32      1.0000 0.66250  0.68450  0.86000  Biso   1.000  O
  O33      1.0000 0.80000  0.67140  0.92150  Biso   1.000  O
  O34      1.0000 0.87400  0.68480  0.16470  Biso   1.000  O
  O35      1.0000 0.79940  0.81450  0.30330  Biso   1.000  O
  O36      1.0000 0.66230  0.64600  0.31890  Biso   1.000  O
  O37      1.0000 0.66280  0.57870  0.14410  Biso   1.000  O
  O38      1.0000 0.72020  0.60570  0.97690  Biso   1.000  O
  O39      1.0000 0.73920  0.61620  0.76600  Biso   1.000  O
  O40      1.0000 0.80110  0.60720  0.09740  Biso   1.000  O
  O41      1.0000 0.74110  0.62610  0.45250  Biso   1.000  O
  N9       1.0000 0.66460  0.57830  0.60600  Biso   1.000  N
  N10      1.0000 0.31590  0.62080  0.88500  Biso   1.000  N
  N11      1.0000 0.58460  0.57050  0.63930  Biso   1.000  N
  N12      1.0000 0.40150  0.61870  0.84400  Biso   1.000  N
  C25      1.0000 0.62970  0.59870  0.66800  Biso   1.000  C
  H21      1.0000 0.63440  0.62790  0.72260  Biso   1.000  H
  C26      1.0000 0.35380  0.59950  0.81800  Biso   1.000  C
  H22      1.0000 0.34700  0.57400  0.75980  Biso   1.000  H
  C27      1.0000 0.34760  0.65670  0.96200  Biso   1.000  C
  H23      1.0000 0.33440  0.67750  0.02030  Biso   1.000  H
  C28      1.0000 0.49890  0.53400  0.68900  Biso   1.000  C
  H24      1.0000 0.50430  0.49320  0.65610  Biso   1.000  H
  C29      1.0000 0.53680  0.58140  0.69500  Biso   1.000  C
  C30      1.0000 0.59390  0.53550  0.55800  Biso   1.000  C
  H25      1.0000 0.57040  0.51120  0.52070  Biso   1.000  H
  C31      1.0000 0.64190  0.53960  0.53700  Biso   1.000  C
  H26      1.0000 0.65760  0.51850  0.48130  Biso   1.000  H
  C32      1.0000 0.52950  0.63980  0.75000  Biso   1.000  C
  H27      1.0000 0.55500  0.67120  0.75630  Biso   1.000  H
  C33      1.0000 0.48490  0.64900  0.79200  Biso   1.000  C
  H28      1.0000 0.48000  0.68910  0.82790  Biso   1.000  H
  C34      1.0000 0.39640  0.65640  0.94000  Biso   1.000  C
  H29      1.0000 0.42200  0.67610  0.97820  Biso   1.000  H
  C35      1.0000 0.44460  0.60540  0.78700  Biso   1.000  C
  C36      1.0000 0.45400  0.54840  0.73300  Biso   1.000  C
  H30      1.0000 0.42800  0.51780  0.72500  Biso   1.000  H
  O42      1.0000 0.74010  0.49210  0.09520  Biso   1.000  O
  W16      1.0000 0.65487  0.33281  0.53067  Biso   1.000  W
  W17      1.0000 0.76672  0.33178  0.37165  Biso   1.000  W
  W18      1.0000 0.76635  0.42234  0.61409  Biso   1.000  W
  W19      1.0000 0.86799  0.34108  0.68838  Biso   1.000  W
  W20      1.0000 0.76645  0.34045  0.83397  Biso   1.000  W
  Ag4      1.0000 0.75710  0.39410  0.10920  Biso   1.000  Ag
  O43      1.0000 0.78180  0.31160  0.65890  Biso   1.000  O
  O44      1.0000 0.75640  0.42190  0.75630  Biso   1.000  O
  O45      1.0000 0.87820  0.31620  0.54680  Biso   1.000  O
  O46      1.0000 0.83750  0.31550  0.36000  Biso   1.000  O
  O47      1.0000 0.70000  0.32860  0.42150  Biso   1.000  O
  O48      1.0000 0.62600  0.31520  0.66470  Biso   1.000  O
  O49      1.0000 0.70060  0.18550  0.80330  Biso   1.000  O
  O50      1.0000 0.83770  0.35400  0.81890  Biso   1.000  O
  O51      1.0000 0.83720  0.42130  0.64410  Biso   1.000  O
  O52      1.0000 0.77980  0.39430  0.47690  Biso   1.000  O
  O53      1.0000 0.76080  0.38380  0.26600  Biso   1.000  O
  O54      1.0000 0.69890  0.39280  0.59740  Biso   1.000  O
  O55      1.0000 0.75890  0.37390  0.95250  Biso   1.000  O
  N13      1.0000 0.83540  0.42170  0.10600  Biso   1.000  N
  N14      1.0000 0.18410  0.37920  0.38500  Biso   1.000  N
  N15      1.0000 0.91540  0.42950  0.13930  Biso   1.000  N
  N16      1.0000 0.09850  0.38130  0.34400  Biso   1.000  N
  C37      1.0000 0.87030  0.40130  0.16800  Biso   1.000  C
  H31      1.0000 0.86560  0.37210  0.22260  Biso   1.000  H
  C38      1.0000 0.14620  0.40050  0.31800  Biso   1.000  C
  H32      1.0000 0.15300  0.42600  0.25980  Biso   1.000  H
  C39      1.0000 0.15240  0.34330  0.46200  Biso   1.000  C
  H33      1.0000 0.16560  0.32250  0.52030  Biso   1.000  H
  C40      1.0000 0.00110  0.46600  0.18900  Biso   1.000  C
  H34      1.0000 0.99570  0.50680  0.15610  Biso   1.000  H
  C41      1.0000 0.96320  0.41860  0.19500  Biso   1.000  C
  C42      1.0000 0.90610  0.46450  0.05800  Biso   1.000  C
  H35      1.0000 0.92960  0.48880  0.02070  Biso   1.000  H
  C43      1.0000 0.85810  0.46040  0.03700  Biso   1.000  C
  H36      1.0000 0.84240  0.48150  0.98130  Biso   1.000  H
  C44      1.0000 0.97050  0.36020  0.25000  Biso   1.000  C
  H37      1.0000 0.94500  0.32880  0.25630  Biso   1.000  H
  C45      1.0000 0.01510  0.35100  0.29200  Biso   1.000  C
  H38      1.0000 0.02000  0.31090  0.32790  Biso   1.000  H
  C46      1.0000 0.10360  0.34360  0.44000  Biso   1.000  C
  H39      1.0000 0.07800  0.32390  0.47820  Biso   1.000  H
  C47      1.0000 0.05540  0.39460  0.28700  Biso   1.000  C
  C48      1.0000 0.04600  0.45160  0.23300  Biso   1.000  C
  H40      1.0000 0.07200  0.48220  0.22500  Biso   1.000  H
  O56      1.0000 0.75990  0.50790  0.59520  Biso   1.000  O
  W21      1.0000 0.84513  0.83281  0.03067  Biso   1.000  W
  W22      1.0000 0.73328  0.83178  0.87165  Biso   1.000  W
  W23      1.0000 0.73365  0.92234  0.11409  Biso   1.000  W
  W24      1.0000 0.63201  0.84108  0.18838  Biso   1.000  W
  W25      1.0000 0.73355  0.84045  0.33397  Biso   1.000  W
  Ag5      1.0000 0.74290  0.89410  0.60920  Biso   1.000  Ag
  O57      1.0000 0.71820  0.81160  0.15890  Biso   1.000  O
  O58      1.0000 0.74360  0.92190  0.25630  Biso   1.000  O
  O59      1.0000 0.62180  0.81620  0.04680  Biso   1.000  O
  O60      1.0000 0.66250  0.81550  0.86000  Biso   1.000  O
  O61      1.0000 0.80000  0.82860  0.92150  Biso   1.000  O
  O62      1.0000 0.87400  0.81520  0.16470  Biso   1.000  O
  O63      1.0000 0.79940  0.68550  0.30330  Biso   1.000  O
  O64      1.0000 0.66230  0.85400  0.31890  Biso   1.000  O
  O65      1.0000 0.66280  0.92130  0.14410  Biso   1.000  O
  O66      1.0000 0.72020  0.89430  0.97690  Biso   1.000  O
  O67      1.0000 0.73920  0.88380  0.76600  Biso   1.000  O
  O68      1.0000 0.80110  0.89280  0.09740  Biso   1.000  O
  O69      1.0000 0.74110  0.87390  0.45250  Biso   1.000  O
  N17      1.0000 0.66460  0.92170  0.60600  Biso   1.000  N
  N18      1.0000 0.31590  0.87920  0.88500  Biso   1.000  N
  N19      1.0000 0.58460  0.92950  0.63930  Biso   1.000  N
  N20      1.0000 0.40150  0.88130  0.84400  Biso   1.000  N
  C49      1.0000 0.62970  0.90130  0.66800  Biso   1.000  C
  H41      1.0000 0.63440  0.87210  0.72260  Biso   1.000  H
  C50      1.0000 0.35380  0.90050  0.81800  Biso   1.000  C
  H42      1.0000 0.34700  0.92600  0.75980  Biso   1.000  H
  C51      1.0000 0.34760  0.84330  0.96200  Biso   1.000  C
  H43      1.0000 0.33440  0.82250  0.02030  Biso   1.000  H
  C52      1.0000 0.49890  0.96600  0.68900  Biso   1.000  C
  H44      1.0000 0.50430  0.00680  0.65610  Biso   1.000  H
  C53      1.0000 0.53680  0.91860  0.69500  Biso   1.000  C
  C54      1.0000 0.59390  0.96450  0.55800  Biso   1.000  C
  H45      1.0000 0.57040  0.98880  0.52070  Biso   1.000  H
  C55      1.0000 0.64190  0.96040  0.53700  Biso   1.000  C
  H46      1.0000 0.65760  0.98150  0.48130  Biso   1.000  H
  C56      1.0000 0.52950  0.86020  0.75000  Biso   1.000  C
  H47      1.0000 0.55500  0.82880  0.75630  Biso   1.000  H
  C57      1.0000 0.48490  0.85100  0.79200  Biso   1.000  C
  H48      1.0000 0.48000  0.81090  0.82790  Biso   1.000  H
  C58      1.0000 0.39640  0.84360  0.94000  Biso   1.000  C
  H49      1.0000 0.42200  0.82390  0.97820  Biso   1.000  H
  C59      1.0000 0.44460  0.89460  0.78700  Biso   1.000  C
  C60      1.0000 0.45400  0.95160  0.73300  Biso   1.000  C
  H50      1.0000 0.42800  0.98220  0.72500  Biso   1.000  H
  O70      1.0000 0.74010  0.00790  0.09520  Biso   1.000  O
  W26      1.0000 0.65487  0.16719  0.53067  Biso   1.000  W
  W27      1.0000 0.76672  0.16822  0.37165  Biso   1.000  W
  W28      1.0000 0.76635  0.07766  0.61409  Biso   1.000  W
  W29      1.0000 0.86799  0.15892  0.68838  Biso   1.000  W
  W30      1.0000 0.76645  0.15955  0.83397  Biso   1.000  W
  Ag6      1.0000 0.75710  0.10590  0.10920  Biso   1.000  Ag
  O71      1.0000 0.78180  0.18840  0.65890  Biso   1.000  O
  O72      1.0000 0.75640  0.07810  0.75630  Biso   1.000  O
  O73      1.0000 0.87820  0.18380  0.54680  Biso   1.000  O
  O74      1.0000 0.83750  0.18450  0.36000  Biso   1.000  O
  O75      1.0000 0.70000  0.17140  0.42150  Biso   1.000  O
  O76      1.0000 0.62600  0.18480  0.66470  Biso   1.000  O
  O77      1.0000 0.70060  0.31450  0.80330  Biso   1.000  O
  O78      1.0000 0.83770  0.14600  0.81890  Biso   1.000  O
  O79      1.0000 0.83720  0.07870  0.64410  Biso   1.000  O
  O80      1.0000 0.77980  0.10570  0.47690  Biso   1.000  O
  O81      1.0000 0.76080  0.11620  0.26600  Biso   1.000  O
  O82      1.0000 0.69890  0.10720  0.59740  Biso   1.000  O
  O83      1.0000 0.75890  0.12610  0.95250  Biso   1.000  O
  N21      1.0000 0.83540  0.07830  0.10600  Biso   1.000  N
  N22      1.0000 0.18410  0.12080  0.38500  Biso   1.000  N
  N23      1.0000 0.91540  0.07050  0.13930  Biso   1.000  N
  N24      1.0000 0.09850  0.11870  0.34400  Biso   1.000  N
  C61      1.0000 0.87030  0.09870  0.16800  Biso   1.000  C
  H51      1.0000 0.86560  0.12790  0.22260  Biso   1.000  H
  C62      1.0000 0.14620  0.09950  0.31800  Biso   1.000  C
  H52      1.0000 0.15300  0.07400  0.25980  Biso   1.000  H
  C63      1.0000 0.15240  0.15670  0.46200  Biso   1.000  C
  H53      1.0000 0.16560  0.17750  0.52030  Biso   1.000  H
  C64      1.0000 0.00110  0.03400  0.18900  Biso   1.000  C
  H54      1.0000 0.99570  0.99320  0.15610  Biso   1.000  H
  C65      1.0000 0.96320  0.08140  0.19500  Biso   1.000  C
  C66      1.0000 0.90610  0.03550  0.05800  Biso   1.000  C
  H55      1.0000 0.92960  0.01120  0.02070  Biso   1.000  H
  C67      1.0000 0.85810  0.03960  0.03700  Biso   1.000  C
  H56      1.0000 0.84240  0.01850  0.98130  Biso   1.000  H
  C68      1.0000 0.97050  0.13980  0.25000  Biso   1.000  C
  H57      1.0000 0.94500  0.17120  0.25630  Biso   1.000  H
  C69      1.0000 0.01510  0.14900  0.29200  Biso   1.000  C
  H58      1.0000 0.02000  0.18910  0.32790  Biso   1.000  H
  C70      1.0000 0.10360  0.15640  0.44000  Biso   1.000  C
  H59      1.0000 0.07800  0.17610  0.47820  Biso   1.000  H
  C71      1.0000 0.05540  0.10540  0.28700  Biso   1.000  C
  C72      1.0000 0.04600  0.04840  0.23300  Biso   1.000  C
  H60      1.0000 0.07200  0.01780  0.22500  Biso   1.000  H
  O84      1.0000 0.75990  0.99210  0.59520  Biso   1.000  O
  W31      1.0000 0.15487  0.33281  0.96933  Biso   1.000  W
  W32      1.0000 0.26672  0.33178  0.12835  Biso   1.000  W
  W33      1.0000 0.26635  0.42234  0.88591  Biso   1.000  W
  W34      1.0000 0.36799  0.34108  0.81162  Biso   1.000  W
  W35      1.0000 0.26645  0.34045  0.66603  Biso   1.000  W
  Ag7      1.0000 0.25710  0.39410  0.39080  Biso   1.000  Ag
  O85      1.0000 0.28180  0.31160  0.84110  Biso   1.000  O
  O86      1.0000 0.25640  0.42190  0.74370  Biso   1.000  O
  O87      1.0000 0.37820  0.31620  0.95320  Biso   1.000  O
  O88      1.0000 0.33750  0.31550  0.14000  Biso   1.000  O
  O89      1.0000 0.20000  0.32860  0.07850  Biso   1.000  O
  O90      1.0000 0.12600  0.31520  0.83530  Biso   1.000  O
  O91      1.0000 0.20060  0.18550  0.69670  Biso   1.000  O
  O92      1.0000 0.33770  0.35400  0.68110  Biso   1.000  O
  O93      1.0000 0.33720  0.42130  0.85590  Biso   1.000  O
  O94      1.0000 0.27980  0.39430  0.02310  Biso   1.000  O
  O95      1.0000 0.26080  0.38380  0.23400  Biso   1.000  O
  O96      1.0000 0.19890  0.39280  0.90260  Biso   1.000  O
  O97      1.0000 0.25890  0.37390  0.54750  Biso   1.000  O
  N25      1.0000 0.33540  0.42170  0.39400  Biso   1.000  N
  N26      1.0000 0.68410  0.37920  0.11500  Biso   1.000  N
  N27      1.0000 0.41540  0.42950  0.36070  Biso   1.000  N
  N28      1.0000 0.59850  0.38130  0.15600  Biso   1.000  N
  C73      1.0000 0.37030  0.40130  0.33200  Biso   1.000  C
  H61      1.0000 0.36560  0.37210  0.27740  Biso   1.000  H
  C74      1.0000 0.64620  0.40050  0.18200  Biso   1.000  C
  H62      1.0000 0.65300  0.42600  0.24020  Biso   1.000  H
  C75      1.0000 0.65240  0.34330  0.03800  Biso   1.000  C
  H63      1.0000 0.66560  0.32250  0.97970  Biso   1.000  H
  C76      1.0000 0.50110  0.46600  0.31100  Biso   1.000  C
  H64      1.0000 0.49570  0.50680  0.34390  Biso   1.000  H
  C77      1.0000 0.46320  0.41860  0.30500  Biso   1.000  C
  C78      1.0000 0.40610  0.46450  0.44200  Biso   1.000  C
  H65      1.0000 0.42960  0.48880  0.47930  Biso   1.000  H
  C79      1.0000 0.35810  0.46040  0.46300  Biso   1.000  C
  H66      1.0000 0.34240  0.48150  0.51870  Biso   1.000  H
  C80      1.0000 0.47050  0.36020  0.25000  Biso   1.000  C
  H67      1.0000 0.44500  0.32880  0.24370  Biso   1.000  H
  C81      1.0000 0.51510  0.35100  0.20800  Biso   1.000  C
  H68      1.0000 0.52000  0.31090  0.17210  Biso   1.000  H
  C82      1.0000 0.60360  0.34360  0.06000  Biso   1.000  C
  H69      1.0000 0.57800  0.32390  0.02180  Biso   1.000  H
  C83      1.0000 0.55540  0.39460  0.21300  Biso   1.000  C
  C84      1.0000 0.54600  0.45160  0.26700  Biso   1.000  C
  H70      1.0000 0.57200  0.48220  0.27500  Biso   1.000  H
  O98      1.0000 0.25990  0.50790  0.90480  Biso   1.000  O
  W36      1.0000 0.34513  0.66719  0.46933  Biso   1.000  W
  W37      1.0000 0.23328  0.66822  0.62835  Biso   1.000  W
  W38      1.0000 0.23365  0.57766  0.38591  Biso   1.000  W
  W39      1.0000 0.13201  0.65892  0.31162  Biso   1.000  W
  W40      1.0000 0.23355  0.65955  0.16603  Biso   1.000  W
  Ag8      1.0000 0.24290  0.60590  0.89080  Biso   1.000  Ag
  O99      1.0000 0.21820  0.68840  0.34110  Biso   1.000  O
  O100     1.0000 0.24360  0.57810  0.24370  Biso   1.000  O
  O101     1.0000 0.12180  0.68380  0.45320  Biso   1.000  O
  O102     1.0000 0.16250  0.68450  0.64000  Biso   1.000  O
  O103     1.0000 0.30000  0.67140  0.57850  Biso   1.000  O
  O104     1.0000 0.37400  0.68480  0.33530  Biso   1.000  O
  O105     1.0000 0.29940  0.81450  0.19670  Biso   1.000  O
  O106     1.0000 0.16230  0.64600  0.18110  Biso   1.000  O
  O107     1.0000 0.16280  0.57870  0.35590  Biso   1.000  O
  O108     1.0000 0.22020  0.60570  0.52310  Biso   1.000  O
  O109     1.0000 0.23920  0.61620  0.73400  Biso   1.000  O
  O110     1.0000 0.30110  0.60720  0.40260  Biso   1.000  O
  O111     1.0000 0.24110  0.62610  0.04750  Biso   1.000  O
  N29      1.0000 0.16460  0.57830  0.89400  Biso   1.000  N
  N30      1.0000 0.81590  0.62080  0.61500  Biso   1.000  N
  N31      1.0000 0.08460  0.57050  0.86070  Biso   1.000  N
  N32      1.0000 0.90150  0.61870  0.65600  Biso   1.000  N
  C85      1.0000 0.12970  0.59870  0.83200  Biso   1.000  C
  H71      1.0000 0.13440  0.62790  0.77740  Biso   1.000  H
  C86      1.0000 0.85380  0.59950  0.68200  Biso   1.000  C
  H72      1.0000 0.84700  0.57400  0.74020  Biso   1.000  H
  C87      1.0000 0.84760  0.65670  0.53800  Biso   1.000  C
  H73      1.0000 0.83440  0.67750  0.47970  Biso   1.000  H
  C88      1.0000 0.99890  0.53400  0.81100  Biso   1.000  C
  H74      1.0000 0.00430  0.49320  0.84390  Biso   1.000  H
  C89      1.0000 0.03680  0.58140  0.80500  Biso   1.000  C
  C90      1.0000 0.09390  0.53550  0.94200  Biso   1.000  C
  H75      1.0000 0.07040  0.51120  0.97930  Biso   1.000  H
  C91      1.0000 0.14190  0.53960  0.96300  Biso   1.000  C
  H76      1.0000 0.15760  0.51850  0.01870  Biso   1.000  H
  C92      1.0000 0.02950  0.63980  0.75000  Biso   1.000  C
  H77      1.0000 0.05500  0.67120  0.74370  Biso   1.000  H
  C93      1.0000 0.98490  0.64900  0.70800  Biso   1.000  C
  H78      1.0000 0.98000  0.68910  0.67210  Biso   1.000  H
  C94      1.0000 0.89640  0.65640  0.56000  Biso   1.000  C
  H79      1.0000 0.92200  0.67610  0.52180  Biso   1.000  H
  C95      1.0000 0.94460  0.60540  0.71300  Biso   1.000  C
  C96      1.0000 0.95400  0.54840  0.76700  Biso   1.000  C
  H80      1.0000 0.92800  0.51780  0.77500  Biso   1.000  H
  O112     1.0000 0.24010  0.49210  0.40480  Biso   1.000  O
  W41      1.0000 0.15469  0.25000  0.74765  Biso   1.000  W
  W42      1.0000 0.36799  0.25000  0.05493  Biso   1.000  W
  O113     1.0000 0.20750  0.25000  0.89460  Biso   1.000  O
  O114     1.0000 0.37630  0.25000  0.77560  Biso   1.000  O
  O115     1.0000 0.12710  0.25000  0.00760  Biso   1.000  O
  O116     1.0000 0.27970  0.25000  0.63600  Biso   1.000  O
  O117     1.0000 0.25670  0.25000  0.20100  Biso   1.000  O
  O118     1.0000 0.28420  0.25000  0.00400  Biso   1.000  O
  B1       1.0000 0.26370  0.25000  0.89600  Biso   1.000  B
  W43      1.0000 0.34531  0.75000  0.24765  Biso   1.000  W
  W44      1.0000 0.13201  0.75000  0.55493  Biso   1.000  W
  O119     1.0000 0.29250  0.75000  0.39460  Biso   1.000  O
  O120     1.0000 0.12370  0.75000  0.27560  Biso   1.000  O
  O121     1.0000 0.37290  0.75000  0.50760  Biso   1.000  O
  O122     1.0000 0.22030  0.75000  0.13600  Biso   1.000  O
  O123     1.0000 0.24330  0.75000  0.70100  Biso   1.000  O
  O124     1.0000 0.21580  0.75000  0.50400  Biso   1.000  O
  B2       1.0000 0.23630  0.75000  0.39600  Biso   1.000  B
  W45      1.0000 0.84531  0.75000  0.25235  Biso   1.000  W
  W46      1.0000 0.63201  0.75000  0.94507  Biso   1.000  W
  O125     1.0000 0.79250  0.75000  0.10540  Biso   1.000  O
  O126     1.0000 0.62370  0.75000  0.22440  Biso   1.000  O
  O127     1.0000 0.87290  0.75000  0.99240  Biso   1.000  O
  O128     1.0000 0.72030  0.75000  0.36400  Biso   1.000  O
  O129     1.0000 0.74330  0.75000  0.79900  Biso   1.000  O
  O130     1.0000 0.71580  0.75000  0.99600  Biso   1.000  O
  B3       1.0000 0.73630  0.75000  0.10400  Biso   1.000  B
  W47      1.0000 0.65469  0.25000  0.75235  Biso   1.000  W
  W48      1.0000 0.86799  0.25000  0.44507  Biso   1.000  W
  O131     1.0000 0.70750  0.25000  0.60540  Biso   1.000  O
  O132     1.0000 0.87630  0.25000  0.72440  Biso   1.000  O
  O133     1.0000 0.62710  0.25000  0.49240  Biso   1.000  O
  O134     1.0000 0.77970  0.25000  0.86400  Biso   1.000  O
  O135     1.0000 0.75670  0.25000  0.29900  Biso   1.000  O
  O136     1.0000 0.78420  0.25000  0.49600  Biso   1.000  O
  B4       1.0000 0.76370  0.25000  0.60400  Biso   1.000  B
