data_ORAGEU_clean
_audit_creation_date              2014-07-02
_audit_creation_method            'Materials Studio'
_symmetry_space_group_name_H-M    'P1'
_symmetry_Int_Tables_number       1
_symmetry_cell_setting            triclinic
loop_
_symmetry_equiv_pos_as_xyz
  x,y,z
_cell_length_a                    13.8220
_cell_length_b                    13.8220
_cell_length_c                    19.8080
_cell_angle_alpha                 90.0000
_cell_angle_beta                  90.0000
_cell_angle_gamma                 120.0000
loop_
_atom_site_label
_atom_site_type_symbol
_atom_site_fract_x
_atom_site_fract_y
_atom_site_fract_z
_atom_site_U_iso_or_equiv
_atom_site_adp_type
_atom_site_occupancy
Gd1    Gd    0.67827   0.74624   0.25000   0.01267  Uiso   1.00
Gd2    Gd    0.06797   0.32173   0.25000   0.01267  Uiso   1.00
Gd3    Gd    0.25376   0.93203   0.25000   0.01267  Uiso   1.00
Gd4    Gd    0.32173   0.25376   0.75000   0.01267  Uiso   1.00
Gd5    Gd    0.93203   0.67827   0.75000   0.01267  Uiso   1.00
Gd6    Gd    0.74624   0.06797   0.75000   0.01267  Uiso   1.00
Re1    Re    0.28616   0.75258   0.56029   0.01267  Uiso   1.00
Re2    Re    0.46642   0.71384   0.56029   0.01267  Uiso   1.00
Re3    Re    0.24742   0.53358   0.56029   0.01267  Uiso   1.00
Re4    Re    0.71384   0.24742   0.06029   0.01267  Uiso   1.00
Re5    Re    0.53358   0.28616   0.06029   0.01267  Uiso   1.00
Re6    Re    0.75258   0.46642   0.06029   0.01267  Uiso   1.00
Re7    Re    0.71384   0.24742   0.43971   0.01267  Uiso   1.00
Re8    Re    0.53358   0.28616   0.43971   0.01267  Uiso   1.00
Re9    Re    0.75258   0.46642   0.43971   0.01267  Uiso   1.00
Re10   Re    0.28616   0.75258   0.93971   0.01267  Uiso   1.00
Re11   Re    0.46642   0.71384   0.93971   0.01267  Uiso   1.00
Re12   Re    0.24742   0.53358   0.93971   0.01267  Uiso   1.00
Re13   Re    0.33333   0.66666   0.44452   0.01267  Uiso   1.00
Re14   Re    0.66667   0.33334   0.94452   0.01267  Uiso   1.00
Re15   Re    0.66667   0.33334   0.55548   0.01267  Uiso   1.00
Re16   Re    0.33333   0.66666   0.05548   0.01267  Uiso   1.00
C1     C     0.46200   0.70800   0.37480   0.01267  Uiso   1.00
C2     C     0.23080   0.84820   0.51020   0.01267  Uiso   1.00
C3     C     0.14970   0.71960   0.62320   0.01267  Uiso   1.00
C4     C     0.36230   0.89950   0.61830   0.01267  Uiso   1.00
C5     C     0.24600   0.53800   0.37480   0.01267  Uiso   1.00
C6     C     0.61740   0.76920   0.51020   0.01267  Uiso   1.00
C7     C     0.56990   0.85030   0.62320   0.01267  Uiso   1.00
C8     C     0.53720   0.63770   0.61830   0.01267  Uiso   1.00
C9     C     0.29200   0.75400   0.37480   0.01267  Uiso   1.00
C10    C     0.15180   0.38260   0.51020   0.01267  Uiso   1.00
C11    C     0.28040   0.43010   0.62320   0.01267  Uiso   1.00
C12    C     0.10050   0.46280   0.61830   0.01267  Uiso   1.00
C13    C     0.53800   0.29200   0.87480   0.01267  Uiso   1.00
C14    C     0.76920   0.15180   0.01020   0.01267  Uiso   1.00
C15    C     0.85030   0.28040   0.12320   0.01267  Uiso   1.00
C16    C     0.63770   0.10050   0.11830   0.01267  Uiso   1.00
C17    C     0.75400   0.46200   0.87480   0.01267  Uiso   1.00
C18    C     0.38260   0.23080   0.01020   0.01267  Uiso   1.00
C19    C     0.43010   0.14970   0.12320   0.01267  Uiso   1.00
C20    C     0.46280   0.36230   0.11830   0.01267  Uiso   1.00
C21    C     0.70800   0.24600   0.87480   0.01267  Uiso   1.00
C22    C     0.84820   0.61740   0.01020   0.01267  Uiso   1.00
C23    C     0.71960   0.56990   0.12320   0.01267  Uiso   1.00
C24    C     0.89950   0.53720   0.11830   0.01267  Uiso   1.00
C25    C     0.53800   0.29200   0.62520   0.01267  Uiso   1.00
C26    C     0.76920   0.15180   0.48980   0.01267  Uiso   1.00
C27    C     0.85030   0.28040   0.37680   0.01267  Uiso   1.00
C28    C     0.63770   0.10050   0.38170   0.01267  Uiso   1.00
C29    C     0.75400   0.46200   0.62520   0.01267  Uiso   1.00
C30    C     0.38260   0.23080   0.48980   0.01267  Uiso   1.00
C31    C     0.43010   0.14970   0.37680   0.01267  Uiso   1.00
C32    C     0.46280   0.36230   0.38170   0.01267  Uiso   1.00
C33    C     0.70800   0.24600   0.62520   0.01267  Uiso   1.00
C34    C     0.84820   0.61740   0.48980   0.01267  Uiso   1.00
C35    C     0.71960   0.56990   0.37680   0.01267  Uiso   1.00
C36    C     0.89950   0.53720   0.38170   0.01267  Uiso   1.00
C37    C     0.46200   0.70800   0.12520   0.01267  Uiso   1.00
C38    C     0.23080   0.84820   0.98980   0.01267  Uiso   1.00
C39    C     0.14970   0.71960   0.87680   0.01267  Uiso   1.00
C40    C     0.36230   0.89950   0.88170   0.01267  Uiso   1.00
C41    C     0.24600   0.53800   0.12520   0.01267  Uiso   1.00
C42    C     0.61740   0.76920   0.98980   0.01267  Uiso   1.00
C43    C     0.56990   0.85030   0.87680   0.01267  Uiso   1.00
C44    C     0.53720   0.63770   0.88170   0.01267  Uiso   1.00
C45    C     0.29200   0.75400   0.12520   0.01267  Uiso   1.00
C46    C     0.15180   0.38260   0.98980   0.01267  Uiso   1.00
C47    C     0.28040   0.43010   0.87680   0.01267  Uiso   1.00
C48    C     0.10050   0.46280   0.88170   0.01267  Uiso   1.00
Se1    Se    0.45563   0.85476   0.49037   0.01267  Uiso   1.00
Se2    Se    0.39913   0.54437   0.49037   0.01267  Uiso   1.00
Se3    Se    0.14524   0.60087   0.49037   0.01267  Uiso   1.00
Se4    Se    0.54437   0.14524   0.99037   0.01267  Uiso   1.00
Se5    Se    0.60087   0.45563   0.99037   0.01267  Uiso   1.00
Se6    Se    0.85476   0.39913   0.99037   0.01267  Uiso   1.00
Se7    Se    0.54437   0.14524   0.50963   0.01267  Uiso   1.00
Se8    Se    0.60087   0.45563   0.50963   0.01267  Uiso   1.00
Se9    Se    0.85476   0.39913   0.50963   0.01267  Uiso   1.00
Se10   Se    0.45563   0.85476   0.00963   0.01267  Uiso   1.00
Se11   Se    0.39913   0.54437   0.00963   0.01267  Uiso   1.00
Se12   Se    0.14524   0.60087   0.00963   0.01267  Uiso   1.00
Se13   Se    0.33333   0.66666   0.65383   0.01267  Uiso   1.00
Se14   Se    0.66667   0.33334   0.15383   0.01267  Uiso   1.00
Se15   Se    0.66667   0.33334   0.34617   0.01267  Uiso   1.00
Se16   Se    0.33333   0.66666   0.84617   0.01267  Uiso   1.00
N1     N     0.53320   0.72690   0.33610   0.01267  Uiso   1.00
N2     N     0.07840   0.70570   0.65970   0.01267  Uiso   1.00
N3     N     0.20060   0.90380   0.48350   0.01267  Uiso   1.00
N4     N     0.39860   0.97930   0.64990   0.01267  Uiso   1.00
N5     N     0.19370   0.46680   0.33610   0.01267  Uiso   1.00
N6     N     0.62730   0.92160   0.65970   0.01267  Uiso   1.00
N7     N     0.70320   0.79940   0.48350   0.01267  Uiso   1.00
N8     N     0.58070   0.60140   0.64990   0.01267  Uiso   1.00
N9     N     0.27310   0.80630   0.33610   0.01267  Uiso   1.00
N10    N     0.29430   0.37270   0.65970   0.01267  Uiso   1.00
N11    N     0.09620   0.29680   0.48350   0.01267  Uiso   1.00
N12    N     0.02070   0.41930   0.64990   0.01267  Uiso   1.00
N13    N     0.46680   0.27310   0.83610   0.01267  Uiso   1.00
N14    N     0.92160   0.29430   0.15970   0.01267  Uiso   1.00
N15    N     0.79940   0.09620   0.98350   0.01267  Uiso   1.00
N16    N     0.60140   0.02070   0.14990   0.01267  Uiso   1.00
N17    N     0.80630   0.53320   0.83610   0.01267  Uiso   1.00
N18    N     0.37270   0.07840   0.15970   0.01267  Uiso   1.00
N19    N     0.29680   0.20060   0.98350   0.01267  Uiso   1.00
N20    N     0.41930   0.39860   0.14990   0.01267  Uiso   1.00
N21    N     0.72690   0.19370   0.83610   0.01267  Uiso   1.00
N22    N     0.70570   0.62730   0.15970   0.01267  Uiso   1.00
N23    N     0.90380   0.70320   0.98350   0.01267  Uiso   1.00
N24    N     0.97930   0.58070   0.14990   0.01267  Uiso   1.00
N25    N     0.46680   0.27310   0.66390   0.01267  Uiso   1.00
N26    N     0.92160   0.29430   0.34030   0.01267  Uiso   1.00
N27    N     0.79940   0.09620   0.51650   0.01267  Uiso   1.00
N28    N     0.60140   0.02070   0.35010   0.01267  Uiso   1.00
N29    N     0.80630   0.53320   0.66390   0.01267  Uiso   1.00
N30    N     0.37270   0.07840   0.34030   0.01267  Uiso   1.00
N31    N     0.29680   0.20060   0.51650   0.01267  Uiso   1.00
N32    N     0.41930   0.39860   0.35010   0.01267  Uiso   1.00
N33    N     0.72690   0.19370   0.66390   0.01267  Uiso   1.00
N34    N     0.70570   0.62730   0.34030   0.01267  Uiso   1.00
N35    N     0.90380   0.70320   0.51650   0.01267  Uiso   1.00
N36    N     0.97930   0.58070   0.35010   0.01267  Uiso   1.00
N37    N     0.53320   0.72690   0.16390   0.01267  Uiso   1.00
N38    N     0.07840   0.70570   0.84030   0.01267  Uiso   1.00
N39    N     0.20060   0.90380   0.01650   0.01267  Uiso   1.00
N40    N     0.39860   0.97930   0.85010   0.01267  Uiso   1.00
N41    N     0.19370   0.46680   0.16390   0.01267  Uiso   1.00
N42    N     0.62730   0.92160   0.84030   0.01267  Uiso   1.00
N43    N     0.70320   0.79940   0.01650   0.01267  Uiso   1.00
N44    N     0.58070   0.60140   0.85010   0.01267  Uiso   1.00
N45    N     0.27310   0.80630   0.16390   0.01267  Uiso   1.00
N46    N     0.29430   0.37270   0.84030   0.01267  Uiso   1.00
N47    N     0.09620   0.29680   0.01650   0.01267  Uiso   1.00
N48    N     0.02070   0.41930   0.85010   0.01267  Uiso   1.00
