data_image0
_cell_length_a       15.8769
_cell_length_b       23.5103
_cell_length_c       23.1577
_cell_angle_alpha    90
_cell_angle_beta     101.226
_cell_angle_gamma    90

_symmetry_space_group_name_H-M    "P 1"
_symmetry_int_tables_number       1

loop_
  _symmetry_equiv_pos_as_xyz
  'x, y, z'

loop_
  _atom_site_label
  _atom_site_occupancy
  _atom_site_fract_x
  _atom_site_fract_y
  _atom_site_fract_z
  _atom_site_thermal_displace_type
  _atom_site_B_iso_or_equiv
  _atom_site_type_symbol
  C1       1.0000 0.01680  0.41630  0.49530  Biso   1.000  C
  C2       1.0000 0.07450  0.37880  0.53000  Biso   1.000  C
  H1       1.0000 0.12570  0.36830  0.51730  Biso   1.000  H
  C3       1.0000 0.05890  0.35780  0.58050  Biso   1.000  C
  H2       1.0000 0.09840  0.33200  0.60280  Biso   1.000  H
  C4       1.0000 0.98430  0.37360  0.60050  Biso   1.000  C
  C5       1.0000 0.92650  0.41180  0.56740  Biso   1.000  C
  H3       1.0000 0.87630  0.42280  0.58110  Biso   1.000  H
  C6       1.0000 0.94180  0.43340  0.51560  Biso   1.000  C
  H4       1.0000 0.90270  0.45950  0.49340  Biso   1.000  H
  C7       1.0000 0.97290  0.35380  0.65880  Biso   1.000  C
  C8       1.0000 0.17940  0.53180  0.60310  Biso   1.000  C
  C9       1.0000 0.25310  0.50240  0.60590  Biso   1.000  C
  H5       1.0000 0.29340  0.51410  0.58280  Biso   1.000  H
  C10      1.0000 0.26990  0.45620  0.64150  Biso   1.000  C
  H6       1.0000 0.32100  0.43520  0.64150  Biso   1.000  H
  C11      1.0000 0.21500  0.43890  0.67770  Biso   1.000  C
  C12      1.0000 0.13910  0.46840  0.67460  Biso   1.000  C
  H7       1.0000 0.09960  0.45730  0.69850  Biso   1.000  H
  C13      1.0000 0.12060  0.51450  0.63630  Biso   1.000  C
  H8       1.0000 0.06750  0.53410  0.63310  Biso   1.000  H
  C14      1.0000 0.23530  0.38860  0.71610  Biso   1.000  C
  C15      1.0000 0.31210  0.46580  0.44670  Biso   1.000  C
  C16      1.0000 0.39470  0.48060  0.47550  Biso   1.000  C
  H9       1.0000 0.42270  0.51330  0.46420  Biso   1.000  H
  C17      1.0000 0.43470  0.44600  0.52140  Biso   1.000  C
  H10      1.0000 0.49290  0.45330  0.53920  Biso   1.000  H
  C18      1.0000 0.39090  0.40030  0.54250  Biso   1.000  C
  C19      1.0000 0.30920  0.38660  0.51070  Biso   1.000  C
  H11      1.0000 0.28020  0.35450  0.52230  Biso   1.000  H
  C20      1.0000 0.26990  0.41810  0.46370  Biso   1.000  C
  H12      1.0000 0.21450  0.40780  0.44260  Biso   1.000  H
  C21      1.0000 0.42990  0.37030  0.59530  Biso   1.000  C
  C22      1.0000 0.27450  0.61750  0.35480  Biso   1.000  C
  C23      1.0000 0.27200  0.64780  0.30500  Biso   1.000  C
  H13      1.0000 0.22450  0.64370  0.27330  Biso   1.000  H
  C24      1.0000 0.33830  0.68490  0.29970  Biso   1.000  C
  H14      1.0000 0.33680  0.70630  0.26470  Biso   1.000  H
  C25      1.0000 0.40720  0.68990  0.34740  Biso   1.000  C
  C26      1.0000 0.40920  0.65750  0.39640  Biso   1.000  C
  H15      1.0000 0.45790  0.65980  0.42740  Biso   1.000  H
  C27      1.0000 0.34320  0.62140  0.40270  Biso   1.000  C
  H16      1.0000 0.34420  0.60030  0.43780  Biso   1.000  H
  C28      1.0000 0.47970  0.72960  0.34310  Biso   1.000  C
  C29      1.0000 0.14270  0.68460  0.45570  Biso   1.000  C
  C30      1.0000 0.09850  0.69620  0.40120  Biso   1.000  C
  H17      1.0000 0.04340  0.68000  0.38780  Biso   1.000  H
  C31      1.0000 0.13550  0.73300  0.36380  Biso   1.000  C
  H18      1.0000 0.10660  0.74020  0.32460  Biso   1.000  H
  C32      1.0000 0.21170  0.75730  0.38500  Biso   1.000  C
  C33      1.0000 0.25540  0.74720  0.44220  Biso   1.000  C
  H19      1.0000 0.30980  0.76420  0.45630  Biso   1.000  H
  C34      1.0000 0.21790  0.71140  0.47850  Biso   1.000  C
  H20      1.0000 0.24460  0.70600  0.51860  Biso   1.000  H
  C35      1.0000 0.25460  0.79520  0.34630  Biso   1.000  C
  C36      1.0000 0.90900  0.56160  0.37070  Biso   1.000  C
  C37      1.0000 0.93500  0.58700  0.32330  Biso   1.000  C
  H21      1.0000 0.97560  0.56970  0.30360  Biso   1.000  H
  C38      1.0000 0.89800  0.63960  0.30610  Biso   1.000  C
  H22      1.0000 0.91800  0.65980  0.27590  Biso   1.000  H
  C39      1.0000 0.83490  0.66370  0.33010  Biso   1.000  C
  C40      1.0000 0.80800  0.63620  0.37540  Biso   1.000  C
  H23      1.0000 0.76570  0.65280  0.39390  Biso   1.000  H
  C41      1.0000 0.84310  0.58390  0.39370  Biso   1.000  C
  H24      1.0000 0.82110  0.56310  0.42280  Biso   1.000  H
  C42      1.0000 0.79430  0.72030  0.31020  Biso   1.000  C
  C43      1.0000 0.51090  0.57760  0.07760  Biso   1.000  C
  C44      1.0000 0.55980  0.62430  0.06410  Biso   1.000  C
  H25      1.0000 0.57470  0.62680  0.02640  Biso   1.000  H
  C45      1.0000 0.58600  0.66600  0.10520  Biso   1.000  C
  H26      1.0000 0.62010  0.69660  0.09600  Biso   1.000  H
  C46      1.0000 0.56290  0.66380  0.15990  Biso   1.000  C
  C47      1.0000 0.51560  0.61790  0.17310  Biso   1.000  C
  H27      1.0000 0.49980  0.61560  0.21050  Biso   1.000  H
  C48      1.0000 0.49120  0.57550  0.13200  Biso   1.000  C
  H28      1.0000 0.45980  0.54390  0.14210  Biso   1.000  H
  C49      1.0000 0.58340  0.71060  0.20360  Biso   1.000  C
  C50      1.0000 0.19800  0.61360  0.14400  Biso   1.000  C
  C51      1.0000 0.22050  0.66890  0.15430  Biso   1.000  C
  H29      1.0000 0.27510  0.68210  0.14910  Biso   1.000  H
  C52      1.0000 0.16220  0.70670  0.17280  Biso   1.000  C
  H30      1.0000 0.17760  0.74550  0.17970  Biso   1.000  H
  C53      1.0000 0.08300  0.68800  0.18110  Biso   1.000  C
  C54      1.0000 0.06440  0.62960  0.17270  Biso   1.000  C
  H31      1.0000 0.01180  0.61550  0.18070  Biso   1.000  H
  C55      1.0000 0.11890  0.59250  0.15350  Biso   1.000  C
  H32      1.0000 0.10400  0.55360  0.14680  Biso   1.000  H
  C56      1.0000 0.02350  0.72650  0.20100  Biso   1.000  C
  C57      1.0000 0.29880  0.71920  0.01940  Biso   1.000  C
  C58      1.0000 0.37170  0.72530  0.05840  Biso   1.000  C
  H33      1.0000 0.42210  0.70610  0.05280  Biso   1.000  H
  C59      1.0000 0.37390  0.76030  0.10800  Biso   1.000  C
  H34      1.0000 0.42410  0.76300  0.13790  Biso   1.000  H
  C60      1.0000 0.29860  0.79160  0.11200  Biso   1.000  C
  C61      1.0000 0.22650  0.78640  0.06920  Biso   1.000  C
  H35      1.0000 0.17690  0.80810  0.07170  Biso   1.000  H
  C62      1.0000 0.22510  0.74930  0.02190  Biso   1.000  C
  H36      1.0000 0.17490  0.74490  0.99240  Biso   1.000  H
  C63      1.0000 0.29440  0.82340  0.16560  Biso   1.000  C
  C64      1.0000 0.41420  0.46030  0.92340  Biso   1.000  C
  C65      1.0000 0.47560  0.49150  0.90410  Biso   1.000  C
  H37      1.0000 0.49920  0.52450  0.92490  Biso   1.000  H
  C66      1.0000 0.50260  0.47450  0.85460  Biso   1.000  C
  H38      1.0000 0.54580  0.49580  0.84090  Biso   1.000  H
  C67      1.0000 0.46850  0.42700  0.82380  Biso   1.000  C
  C68      1.0000 0.40790  0.39400  0.84560  Biso   1.000  C
  H39      1.0000 0.38710  0.35950  0.82670  Biso   1.000  H
  C69      1.0000 0.37950  0.41200  0.89410  Biso   1.000  C
  H40      1.0000 0.33580  0.39140  0.90790  Biso   1.000  H
  C70      1.0000 0.50380  0.40920  0.77050  Biso   1.000  C
  C71      1.0000 0.16630  0.57580  0.87830  Biso   1.000  C
  C72      1.0000 0.19790  0.52400  0.86680  Biso   1.000  C
  H41      1.0000 0.25790  0.51720  0.87760  Biso   1.000  H
  C73      1.0000 0.14440  0.48070  0.83960  Biso   1.000  C
  H42      1.0000 0.16770  0.44470  0.83290  Biso   1.000  H
  C74      1.0000 0.05840  0.49030  0.82280  Biso   1.000  C
  C75      1.0000 0.02670  0.54380  0.83480  Biso   1.000  C
  H43      1.0000 0.96670  0.55050  0.82370  Biso   1.000  H
  C76      1.0000 0.07830  0.58710  0.86190  Biso   1.000  C
  H44      1.0000 0.05510  0.62310  0.86900  Biso   1.000  H
  C77      1.0000 0.99740  0.44510  0.79670  Biso   1.000  C
  C78      1.0000 0.13530  0.47030  0.02010  Biso   1.000  C
  C79      1.0000 0.18270  0.42590  0.00790  Biso   1.000  C
  H45      1.0000 0.24020  0.42190  0.02850  Biso   1.000  H
  C80      1.0000 0.14900  0.38700  0.96650  Biso   1.000  C
  H46      1.0000 0.18330  0.35720  0.95570  Biso   1.000  H
  C81      1.0000 0.06180  0.39220  0.94020  Biso   1.000  C
  C82      1.0000 0.01450  0.43580  0.95520  Biso   1.000  C
  H47      1.0000 0.95580  0.43860  0.93680  Biso   1.000  H
  C83      1.0000 0.04910  0.47640  0.99680  Biso   1.000  C
  H48      1.0000 0.01560  0.50630  0.00830  Biso   1.000  H
  C84      1.0000 0.02660  0.35240  0.89160  Biso   1.000  C
  C85      1.0000 0.27230  0.95240  0.31390  Biso   1.000  C
  C86      1.0000 0.20860  0.99800  0.32020  Biso   1.000  C
  Ho1      1.0000 0.38981  0.86371  0.30106  Biso   1.000  Ho
  Ho2      1.0000 0.87176  0.35940  0.76991  Biso   1.000  Ho
  Ho3      1.0000 0.10629  0.30760  0.78027  Biso   1.000  Ho
  Ho4      1.0000 0.60987  0.78760  0.29972  Biso   1.000  Ho
  N1       1.0000 0.35800  0.58010  0.96580  Biso   1.000  N
  N2       1.0000 0.33030  0.51810  0.05720  Biso   1.000  N
  N3       1.0000 0.21500  0.60010  0.01110  Biso   1.000  N
  N4       1.0000 0.10550  0.50800  0.38300  Biso   1.000  N
  N5       1.0000 0.20970  0.56750  0.46780  Biso   1.000  N
  N6       1.0000 0.04790  0.54280  0.48140  Biso   1.000  N
  O1       1.0000 0.90600  0.36950  0.67720  Biso   1.000  O
  O2       1.0000 0.03030  0.32170  0.68650  Biso   1.000  O
  O3       1.0000 0.29760  0.35870  0.71080  Biso   1.000  O
  O4       1.0000 0.18850  0.37880  0.75440  Biso   1.000  O
  O5       1.0000 0.38310  0.33420  0.61440  Biso   1.000  O
  O6       1.0000 0.50540  0.38300  0.61860  Biso   1.000  O
  O7       1.0000 0.03720  0.43730  0.44450  Biso   1.000  O
  O8       1.0000 0.16190  0.58160  0.56850  Biso   1.000  O
  O9       1.0000 0.27240  0.49970  0.40050  Biso   1.000  O
  O10      1.0000 0.94410  0.50690  0.39030  Biso   1.000  O
  O11      1.0000 0.10820  0.64760  0.49420  Biso   1.000  O
  O12      1.0000 0.20310  0.58340  0.35510  Biso   1.000  O
  O13      1.0000 0.73010  0.73580  0.33040  Biso   1.000  O
  O14      1.0000 0.82460  0.74750  0.27270  Biso   1.000  O
  O15      1.0000 0.22300  0.79750  0.29130  Biso   1.000  O
  O16      1.0000 0.32230  0.82080  0.37090  Biso   1.000  O
  O17      1.0000 0.46110  0.77570  0.31120  Biso   1.000  O
  O18      1.0000 0.55340  0.72010  0.36610  Biso   1.000  O
  O19      1.0000 0.22240  0.84650  0.17040  Biso   1.000  O
  O20      1.0000 0.35890  0.82560  0.20710  Biso   1.000  O
  O21      1.0000 0.04830  0.77640  0.22050  Biso   1.000  O
  O22      1.0000 0.94550  0.71290  0.19690  Biso   1.000  O
  O23      1.0000 0.56000  0.70360  0.25260  Biso   1.000  O
  O24      1.0000 0.62330  0.75560  0.19770  Biso   1.000  O
  O25      1.0000 0.48280  0.53520  0.03590  Biso   1.000  O
  O26      1.0000 0.29800  0.68330  0.96950  Biso   1.000  O
  O27      1.0000 0.25790  0.57830  0.12510  Biso   1.000  O
  O28      1.0000 0.38490  0.47100  0.97570  Biso   1.000  O
  O29      1.0000 0.21480  0.62080  0.90390  Biso   1.000  O
  O30      1.0000 0.16860  0.51100  0.06480  Biso   1.000  O
  O31      1.0000 0.47740  0.36270  0.74500  Biso   1.000  O
  O32      1.0000 0.56090  0.43730  0.75480  Biso   1.000  O
  O33      1.0000 0.91800  0.45460  0.78790  Biso   1.000  O
  O34      1.0000 0.02660  0.39670  0.78300  Biso   1.000  O
  O35      1.0000 0.94820  0.35430  0.87080  Biso   1.000  O
  O36      1.0000 0.07900  0.32000  0.87250  Biso   1.000  O
  O37      1.0000 0.25030  0.91230  0.27380  Biso   1.000  O
  O38      1.0000 0.34550  0.95000  0.34460  Biso   1.000  O
  P1       1.0000 0.38485  0.53005  0.00882  Biso   1.000  P
  P2       1.0000 0.24604  0.55293  0.06140  Biso   1.000  P
  P3       1.0000 0.27330  0.61780  0.96725  Biso   1.000  P
  P4       1.0000 0.19343  0.53897  0.40562  Biso   1.000  P
  P5       1.0000 0.13180  0.58184  0.49970  Biso   1.000  P
  P6       1.0000 0.03810  0.50268  0.42667  Biso   1.000  P
  C87      1.0000 0.98320  0.91630  0.50470  Biso   1.000  C
  C88      1.0000 0.92550  0.87880  0.47000  Biso   1.000  C
  H49      1.0000 0.87430  0.86830  0.48270  Biso   1.000  H
  C89      1.0000 0.94110  0.85780  0.41950  Biso   1.000  C
  H50      1.0000 0.90160  0.83200  0.39720  Biso   1.000  H
  C90      1.0000 0.01570  0.87360  0.39950  Biso   1.000  C
  C91      1.0000 0.07350  0.91180  0.43260  Biso   1.000  C
  H51      1.0000 0.12370  0.92280  0.41890  Biso   1.000  H
  C92      1.0000 0.05820  0.93340  0.48440  Biso   1.000  C
  H52      1.0000 0.09730  0.95950  0.50660  Biso   1.000  H
  C93      1.0000 0.02710  0.85380  0.34120  Biso   1.000  C
  C94      1.0000 0.82060  0.03180  0.39690  Biso   1.000  C
  C95      1.0000 0.74690  0.00240  0.39410  Biso   1.000  C
  H53      1.0000 0.70660  0.01410  0.41720  Biso   1.000  H
  C96      1.0000 0.73010  0.95620  0.35850  Biso   1.000  C
  H54      1.0000 0.67900  0.93520  0.35850  Biso   1.000  H
  C97      1.0000 0.78500  0.93890  0.32230  Biso   1.000  C
  C98      1.0000 0.86090  0.96840  0.32540  Biso   1.000  C
  H55      1.0000 0.90040  0.95730  0.30150  Biso   1.000  H
  C99      1.0000 0.87940  0.01450  0.36370  Biso   1.000  C
  H56      1.0000 0.93250  0.03410  0.36690  Biso   1.000  H
  C100     1.0000 0.76470  0.88860  0.28390  Biso   1.000  C
  C101     1.0000 0.68790  0.96580  0.55330  Biso   1.000  C
  C102     1.0000 0.60530  0.98060  0.52450  Biso   1.000  C
  H57      1.0000 0.57730  0.01330  0.53580  Biso   1.000  H
  C103     1.0000 0.56530  0.94600  0.47860  Biso   1.000  C
  H58      1.0000 0.50710  0.95330  0.46080  Biso   1.000  H
  C104     1.0000 0.60910  0.90030  0.45750  Biso   1.000  C
  C105     1.0000 0.69080  0.88660  0.48930  Biso   1.000  C
  H59      1.0000 0.71980  0.85450  0.47770  Biso   1.000  H
  C106     1.0000 0.73010  0.91810  0.53630  Biso   1.000  C
  H60      1.0000 0.78550  0.90780  0.55740  Biso   1.000  H
  C107     1.0000 0.57010  0.87030  0.40470  Biso   1.000  C
  C108     1.0000 0.72550  0.11750  0.64520  Biso   1.000  C
  C109     1.0000 0.72800  0.14780  0.69500  Biso   1.000  C
  H61      1.0000 0.77550  0.14370  0.72670  Biso   1.000  H
  C110     1.0000 0.66170  0.18490  0.70030  Biso   1.000  C
  H62      1.0000 0.66320  0.20630  0.73530  Biso   1.000  H
  C111     1.0000 0.59280  0.18990  0.65260  Biso   1.000  C
  C112     1.0000 0.59080  0.15750  0.60360  Biso   1.000  C
  H63      1.0000 0.54210  0.15980  0.57260  Biso   1.000  H
  C113     1.0000 0.65680  0.12140  0.59730  Biso   1.000  C
  H64      1.0000 0.65580  0.10030  0.56220  Biso   1.000  H
  C114     1.0000 0.52030  0.22960  0.65690  Biso   1.000  C
  C115     1.0000 0.85730  0.18460  0.54430  Biso   1.000  C
  C116     1.0000 0.90150  0.19620  0.59880  Biso   1.000  C
  H65      1.0000 0.95660  0.18000  0.61220  Biso   1.000  H
  C117     1.0000 0.86450  0.23300  0.63620  Biso   1.000  C
  H66      1.0000 0.89340  0.24020  0.67540  Biso   1.000  H
  C118     1.0000 0.78830  0.25730  0.61500  Biso   1.000  C
  C119     1.0000 0.74460  0.24720  0.55780  Biso   1.000  C
  H67      1.0000 0.69020  0.26420  0.54370  Biso   1.000  H
  C120     1.0000 0.78210  0.21140  0.52150  Biso   1.000  C
  H68      1.0000 0.75540  0.20600  0.48140  Biso   1.000  H
  C121     1.0000 0.74540  0.29520  0.65370  Biso   1.000  C
  C122     1.0000 0.09100  0.06160  0.62930  Biso   1.000  C
  C123     1.0000 0.06500  0.08700  0.67670  Biso   1.000  C
  H69      1.0000 0.02440  0.06970  0.69640  Biso   1.000  H
  C124     1.0000 0.10200  0.13960  0.69390  Biso   1.000  C
  H70      1.0000 0.08200  0.15980  0.72410  Biso   1.000  H
  C125     1.0000 0.16510  0.16370  0.66990  Biso   1.000  C
  C126     1.0000 0.19200  0.13620  0.62460  Biso   1.000  C
  H71      1.0000 0.23430  0.15280  0.60610  Biso   1.000  H
  C127     1.0000 0.15690  0.08390  0.60630  Biso   1.000  C
  H72      1.0000 0.17890  0.06310  0.57720  Biso   1.000  H
  C128     1.0000 0.20570  0.22030  0.68980  Biso   1.000  C
  C129     1.0000 0.48910  0.07760  0.92240  Biso   1.000  C
  C130     1.0000 0.44020  0.12430  0.93590  Biso   1.000  C
  H73      1.0000 0.42530  0.12680  0.97360  Biso   1.000  H
  C131     1.0000 0.41400  0.16600  0.89480  Biso   1.000  C
  H74      1.0000 0.37990  0.19660  0.90400  Biso   1.000  H
  C132     1.0000 0.43710  0.16380  0.84010  Biso   1.000  C
  C133     1.0000 0.48440  0.11790  0.82690  Biso   1.000  C
  H75      1.0000 0.50020  0.11560  0.78950  Biso   1.000  H
  C134     1.0000 0.50880  0.07550  0.86800  Biso   1.000  C
  H76      1.0000 0.54020  0.04390  0.85790  Biso   1.000  H
  C135     1.0000 0.41660  0.21060  0.79640  Biso   1.000  C
  C136     1.0000 0.80200  0.11360  0.85600  Biso   1.000  C
  C137     1.0000 0.77950  0.16890  0.84570  Biso   1.000  C
  H77      1.0000 0.72490  0.18210  0.85090  Biso   1.000  H
  C138     1.0000 0.83780  0.20670  0.82720  Biso   1.000  C
  H78      1.0000 0.82240  0.24550  0.82030  Biso   1.000  H
  C139     1.0000 0.91700  0.18800  0.81890  Biso   1.000  C
  C140     1.0000 0.93560  0.12960  0.82730  Biso   1.000  C
  H79      1.0000 0.98820  0.11550  0.81930  Biso   1.000  H
  C141     1.0000 0.88110  0.09250  0.84650  Biso   1.000  C
  H80      1.0000 0.89600  0.05360  0.85320  Biso   1.000  H
  C142     1.0000 0.97650  0.22650  0.79900  Biso   1.000  C
  C143     1.0000 0.70120  0.21920  0.98060  Biso   1.000  C
  C144     1.0000 0.62830  0.22530  0.94160  Biso   1.000  C
  H81      1.0000 0.57790  0.20610  0.94720  Biso   1.000  H
  C145     1.0000 0.62610  0.26030  0.89200  Biso   1.000  C
  H82      1.0000 0.57590  0.26300  0.86210  Biso   1.000  H
  C146     1.0000 0.70140  0.29160  0.88800  Biso   1.000  C
  C147     1.0000 0.77350  0.28640  0.93080  Biso   1.000  C
  H83      1.0000 0.82310  0.30810  0.92830  Biso   1.000  H
  C148     1.0000 0.77490  0.24930  0.97810  Biso   1.000  C
  H84      1.0000 0.82510  0.24490  0.00760  Biso   1.000  H
  C149     1.0000 0.70560  0.32340  0.83440  Biso   1.000  C
  C150     1.0000 0.58580  0.96030  0.07660  Biso   1.000  C
  C151     1.0000 0.52440  0.99150  0.09590  Biso   1.000  C
  H85      1.0000 0.50080  0.02450  0.07510  Biso   1.000  H
  C152     1.0000 0.49740  0.97450  0.14540  Biso   1.000  C
  H86      1.0000 0.45420  0.99580  0.15910  Biso   1.000  H
  C153     1.0000 0.53150  0.92700  0.17620  Biso   1.000  C
  C154     1.0000 0.59210  0.89400  0.15440  Biso   1.000  C
  H87      1.0000 0.61290  0.85950  0.17330  Biso   1.000  H
  C155     1.0000 0.62050  0.91200  0.10590  Biso   1.000  C
  H88      1.0000 0.66420  0.89140  0.09210  Biso   1.000  H
  C156     1.0000 0.49620  0.90920  0.22950  Biso   1.000  C
  C157     1.0000 0.83370  0.07580  0.12170  Biso   1.000  C
  C158     1.0000 0.80210  0.02400  0.13320  Biso   1.000  C
  H89      1.0000 0.74210  0.01720  0.12240  Biso   1.000  H
  C159     1.0000 0.85560  0.98070  0.16040  Biso   1.000  C
  H90      1.0000 0.83230  0.94470  0.16710  Biso   1.000  H
  C160     1.0000 0.94160  0.99030  0.17720  Biso   1.000  C
  C161     1.0000 0.97330  0.04380  0.16520  Biso   1.000  C
  H91      1.0000 0.03330  0.05050  0.17630  Biso   1.000  H
  C162     1.0000 0.92170  0.08710  0.13810  Biso   1.000  C
  H92      1.0000 0.94490  0.12310  0.13100  Biso   1.000  H
  C163     1.0000 0.00260  0.94510  0.20330  Biso   1.000  C
  C164     1.0000 0.86470  0.97030  0.97990  Biso   1.000  C
  C165     1.0000 0.81730  0.92590  0.99210  Biso   1.000  C
  H93      1.0000 0.75980  0.92190  0.97150  Biso   1.000  H
  C166     1.0000 0.85100  0.88700  0.03350  Biso   1.000  C
  H94      1.0000 0.81670  0.85720  0.04430  Biso   1.000  H
  C167     1.0000 0.93820  0.89220  0.05980  Biso   1.000  C
  C168     1.0000 0.98550  0.93580  0.04480  Biso   1.000  C
  H95      1.0000 0.04420  0.93860  0.06320  Biso   1.000  H
  C169     1.0000 0.95090  0.97640  0.00320  Biso   1.000  C
  H96      1.0000 0.98440  0.00630  0.99170  Biso   1.000  H
  C170     1.0000 0.97340  0.85240  0.10840  Biso   1.000  C
  C171     1.0000 0.72770  0.45240  0.68610  Biso   1.000  C
  C172     1.0000 0.79140  0.49800  0.67980  Biso   1.000  C
  Ho5      1.0000 0.61019  0.36371  0.69894  Biso   1.000  Ho
  Ho6      1.0000 0.12824  0.85940  0.23009  Biso   1.000  Ho
  Ho7      1.0000 0.89371  0.80760  0.21973  Biso   1.000  Ho
  Ho8      1.0000 0.39013  0.28760  0.70028  Biso   1.000  Ho
  N7       1.0000 0.64200  0.08010  0.03420  Biso   1.000  N
  N8       1.0000 0.66970  0.01810  0.94280  Biso   1.000  N
  N9       1.0000 0.78500  0.10010  0.98890  Biso   1.000  N
  N10      1.0000 0.89450  0.00800  0.61700  Biso   1.000  N
  N11      1.0000 0.79030  0.06750  0.53220  Biso   1.000  N
  N12      1.0000 0.95210  0.04280  0.51860  Biso   1.000  N
  O39      1.0000 0.09400  0.86950  0.32280  Biso   1.000  O
  O40      1.0000 0.96970  0.82170  0.31350  Biso   1.000  O
  O41      1.0000 0.70240  0.85870  0.28920  Biso   1.000  O
  O42      1.0000 0.81150  0.87880  0.24560  Biso   1.000  O
  O43      1.0000 0.61690  0.83420  0.38560  Biso   1.000  O
  O44      1.0000 0.49460  0.88300  0.38140  Biso   1.000  O
  O45      1.0000 0.96280  0.93730  0.55550  Biso   1.000  O
  O46      1.0000 0.83810  0.08160  0.43150  Biso   1.000  O
  O47      1.0000 0.72760  0.99970  0.59950  Biso   1.000  O
  O48      1.0000 0.05590  0.00690  0.60970  Biso   1.000  O
  O49      1.0000 0.89180  0.14760  0.50580  Biso   1.000  O
  O50      1.0000 0.79690  0.08340  0.64490  Biso   1.000  O
  O51      1.0000 0.26990  0.23580  0.66960  Biso   1.000  O
  O52      1.0000 0.17540  0.24750  0.72730  Biso   1.000  O
  O53      1.0000 0.77700  0.29750  0.70870  Biso   1.000  O
  O54      1.0000 0.67770  0.32080  0.62910  Biso   1.000  O
  O55      1.0000 0.53890  0.27570  0.68880  Biso   1.000  O
  O56      1.0000 0.44660  0.22010  0.63390  Biso   1.000  O
  O57      1.0000 0.77760  0.34650  0.82960  Biso   1.000  O
  O58      1.0000 0.64110  0.32560  0.79290  Biso   1.000  O
  O59      1.0000 0.95170  0.27640  0.77950  Biso   1.000  O
  O60      1.0000 0.05450  0.21290  0.80310  Biso   1.000  O
  O61      1.0000 0.44000  0.20360  0.74740  Biso   1.000  O
  O62      1.0000 0.37670  0.25560  0.80230  Biso   1.000  O
  O63      1.0000 0.51720  0.03520  0.96410  Biso   1.000  O
  O64      1.0000 0.70200  0.18330  0.03050  Biso   1.000  O
  O65      1.0000 0.74210  0.07830  0.87490  Biso   1.000  O
  O66      1.0000 0.61510  0.97100  0.02430  Biso   1.000  O
  O67      1.0000 0.78520  0.12080  0.09610  Biso   1.000  O
  O68      1.0000 0.83140  0.01100  0.93520  Biso   1.000  O
  O69      1.0000 0.52260  0.86270  0.25500  Biso   1.000  O
  O70      1.0000 0.43910  0.93730  0.24520  Biso   1.000  O
  O71      1.0000 0.08200  0.95460  0.21210  Biso   1.000  O
  O72      1.0000 0.97340  0.89670  0.21700  Biso   1.000  O
  O73      1.0000 0.05180  0.85430  0.12920  Biso   1.000  O
  O74      1.0000 0.92100  0.82000  0.12750  Biso   1.000  O
  O75      1.0000 0.74970  0.41230  0.72620  Biso   1.000  O
  O76      1.0000 0.65450  0.45000  0.65540  Biso   1.000  O
  P7       1.0000 0.61515  0.03005  0.99118  Biso   1.000  P
  P8       1.0000 0.75396  0.05293  0.93860  Biso   1.000  P
  P9       1.0000 0.72670  0.11780  0.03275  Biso   1.000  P
  P10      1.0000 0.80657  0.03897  0.59438  Biso   1.000  P
  P11      1.0000 0.86820  0.08184  0.50030  Biso   1.000  P
  P12      1.0000 0.96190  0.00268  0.57333  Biso   1.000  P
