data_image0
_cell_length_a       14.4066
_cell_length_b       21.333
_cell_length_c       20.632
_cell_angle_alpha    90
_cell_angle_beta     90
_cell_angle_gamma    90

_symmetry_space_group_name_H-M    "P 1"
_symmetry_int_tables_number       1

loop_
  _symmetry_equiv_pos_as_xyz
  'x, y, z'

loop_
  _atom_site_label
  _atom_site_occupancy
  _atom_site_fract_x
  _atom_site_fract_y
  _atom_site_fract_z
  _atom_site_thermal_displace_type
  _atom_site_B_iso_or_equiv
  _atom_site_type_symbol
  Re1      1.0000 0.90421  0.63882  0.44122  Biso   1.000  Re
  S1       1.0000 0.86964  0.73725  0.48888  Biso   1.000  S
  N1       1.0000 0.14850  0.80890  0.31950  Biso   1.000  N
  C1       1.0000 0.09610  0.78650  0.35470  Biso   1.000  C
  N2       1.0000 0.35210  0.84140  0.15350  Biso   1.000  N
  C2       1.0000 0.09550  0.66930  0.61420  Biso   1.000  C
  C3       1.0000 0.88810  0.55140  0.39400  Biso   1.000  C
  C4       1.0000 0.79430  0.60450  0.49880  Biso   1.000  C
  C5       1.0000 0.79190  0.65920  0.37940  Biso   1.000  C
  N3       1.0000 0.88100  0.50620  0.36510  Biso   1.000  N
  N4       1.0000 0.73520  0.58470  0.52930  Biso   1.000  N
  N5       1.0000 0.73110  0.67040  0.34590  Biso   1.000  N
  Re2      1.0000 0.40421  0.13882  0.44122  Biso   1.000  Re
  S2       1.0000 0.36964  0.23725  0.48888  Biso   1.000  S
  N6       1.0000 0.64850  0.30890  0.31950  Biso   1.000  N
  C6       1.0000 0.59610  0.28650  0.35470  Biso   1.000  C
  N7       1.0000 0.85210  0.34140  0.15350  Biso   1.000  N
  C7       1.0000 0.59550  0.16930  0.61420  Biso   1.000  C
  C8       1.0000 0.38810  0.05140  0.39400  Biso   1.000  C
  C9       1.0000 0.29430  0.10450  0.49880  Biso   1.000  C
  C10      1.0000 0.29190  0.15920  0.37940  Biso   1.000  C
  N8       1.0000 0.38100  0.00620  0.36510  Biso   1.000  N
  N9       1.0000 0.23520  0.08470  0.52930  Biso   1.000  N
  N10      1.0000 0.23110  0.17040  0.34590  Biso   1.000  N
  Re3      1.0000 0.09579  0.36118  0.94122  Biso   1.000  Re
  S3       1.0000 0.13036  0.26275  0.98888  Biso   1.000  S
  N11      1.0000 0.85150  0.19110  0.81950  Biso   1.000  N
  C11      1.0000 0.90390  0.21350  0.85470  Biso   1.000  C
  N12      1.0000 0.64790  0.15860  0.65350  Biso   1.000  N
  C12      1.0000 0.90450  0.33070  0.11420  Biso   1.000  C
  C13      1.0000 0.11190  0.44860  0.89400  Biso   1.000  C
  C14      1.0000 0.20570  0.39550  0.99880  Biso   1.000  C
  C15      1.0000 0.20810  0.34080  0.87940  Biso   1.000  C
  N13      1.0000 0.11900  0.49380  0.86510  Biso   1.000  N
  N14      1.0000 0.26480  0.41530  0.02930  Biso   1.000  N
  N15      1.0000 0.26890  0.32960  0.84590  Biso   1.000  N
  Re4      1.0000 0.59579  0.86118  0.94122  Biso   1.000  Re
  S4       1.0000 0.63036  0.76275  0.98888  Biso   1.000  S
  N16      1.0000 0.35150  0.69110  0.81950  Biso   1.000  N
  C16      1.0000 0.40390  0.71350  0.85470  Biso   1.000  C
  N17      1.0000 0.14790  0.65860  0.65350  Biso   1.000  N
  C17      1.0000 0.40450  0.83070  0.11420  Biso   1.000  C
  C18      1.0000 0.61190  0.94860  0.89400  Biso   1.000  C
  C19      1.0000 0.70570  0.89550  0.99880  Biso   1.000  C
  C20      1.0000 0.70810  0.84080  0.87940  Biso   1.000  C
  N18      1.0000 0.61900  0.99380  0.86510  Biso   1.000  N
  N19      1.0000 0.76480  0.91530  0.02930  Biso   1.000  N
  N20      1.0000 0.76890  0.82960  0.84590  Biso   1.000  N
  Re5      1.0000 0.09579  0.63882  0.05878  Biso   1.000  Re
  S5       1.0000 0.13036  0.73725  0.01112  Biso   1.000  S
  N21      1.0000 0.85150  0.80890  0.18050  Biso   1.000  N
  C21      1.0000 0.90390  0.78650  0.14530  Biso   1.000  C
  N22      1.0000 0.64790  0.84140  0.34650  Biso   1.000  N
  C22      1.0000 0.90450  0.66930  0.88580  Biso   1.000  C
  C23      1.0000 0.11190  0.55140  0.10600  Biso   1.000  C
  C24      1.0000 0.20570  0.60450  0.00120  Biso   1.000  C
  C25      1.0000 0.20810  0.65920  0.12060  Biso   1.000  C
  N23      1.0000 0.11900  0.50620  0.13490  Biso   1.000  N
  N24      1.0000 0.26480  0.58470  0.97070  Biso   1.000  N
  N25      1.0000 0.26890  0.67040  0.15410  Biso   1.000  N
  Re6      1.0000 0.59579  0.13882  0.05878  Biso   1.000  Re
  S6       1.0000 0.63036  0.23725  0.01112  Biso   1.000  S
  N26      1.0000 0.35150  0.30890  0.18050  Biso   1.000  N
  C26      1.0000 0.40390  0.28650  0.14530  Biso   1.000  C
  N27      1.0000 0.14790  0.34140  0.34650  Biso   1.000  N
  C27      1.0000 0.40450  0.16930  0.88580  Biso   1.000  C
  C28      1.0000 0.61190  0.05140  0.10600  Biso   1.000  C
  C29      1.0000 0.70570  0.10450  0.00120  Biso   1.000  C
  C30      1.0000 0.70810  0.15920  0.12060  Biso   1.000  C
  N28      1.0000 0.61900  0.00620  0.13490  Biso   1.000  N
  N29      1.0000 0.76480  0.08470  0.97070  Biso   1.000  N
  N30      1.0000 0.76890  0.17040  0.15410  Biso   1.000  N
  Re7      1.0000 0.90421  0.36118  0.55878  Biso   1.000  Re
  S7       1.0000 0.86964  0.26275  0.51112  Biso   1.000  S
  N31      1.0000 0.14850  0.19110  0.68050  Biso   1.000  N
  C31      1.0000 0.09610  0.21350  0.64530  Biso   1.000  C
  N32      1.0000 0.35210  0.15860  0.84650  Biso   1.000  N
  C32      1.0000 0.09550  0.33070  0.38580  Biso   1.000  C
  C33      1.0000 0.88810  0.44860  0.60600  Biso   1.000  C
  C34      1.0000 0.79430  0.39550  0.50120  Biso   1.000  C
  C35      1.0000 0.79190  0.34080  0.62060  Biso   1.000  C
  N33      1.0000 0.88100  0.49380  0.63490  Biso   1.000  N
  N34      1.0000 0.73520  0.41530  0.47070  Biso   1.000  N
  N35      1.0000 0.73110  0.32960  0.65410  Biso   1.000  N
  Re8      1.0000 0.40421  0.86118  0.55878  Biso   1.000  Re
  S8       1.0000 0.36964  0.76275  0.51112  Biso   1.000  S
  N36      1.0000 0.64850  0.69110  0.68050  Biso   1.000  N
  C36      1.0000 0.59610  0.71350  0.64530  Biso   1.000  C
  N37      1.0000 0.85210  0.65860  0.84650  Biso   1.000  N
  C37      1.0000 0.59550  0.83070  0.38580  Biso   1.000  C
  C38      1.0000 0.38810  0.94860  0.60600  Biso   1.000  C
  C39      1.0000 0.29430  0.89550  0.50120  Biso   1.000  C
  C40      1.0000 0.29190  0.84080  0.62060  Biso   1.000  C
  N38      1.0000 0.38100  0.99380  0.63490  Biso   1.000  N
  N39      1.0000 0.23520  0.91530  0.47070  Biso   1.000  N
  N40      1.0000 0.23110  0.82960  0.65410  Biso   1.000  N
  Re9      1.0000 0.09579  0.36118  0.55878  Biso   1.000  Re
  S9       1.0000 0.13036  0.26275  0.51112  Biso   1.000  S
  N41      1.0000 0.85150  0.19110  0.68050  Biso   1.000  N
  C41      1.0000 0.90390  0.21350  0.64530  Biso   1.000  C
  N42      1.0000 0.64790  0.15860  0.84650  Biso   1.000  N
  C42      1.0000 0.90450  0.33070  0.38580  Biso   1.000  C
  C43      1.0000 0.11190  0.44860  0.60600  Biso   1.000  C
  C44      1.0000 0.20570  0.39550  0.50120  Biso   1.000  C
  C45      1.0000 0.20810  0.34080  0.62060  Biso   1.000  C
  N43      1.0000 0.11900  0.49380  0.63490  Biso   1.000  N
  N44      1.0000 0.26480  0.41530  0.47070  Biso   1.000  N
  N45      1.0000 0.26890  0.32960  0.65410  Biso   1.000  N
  Re10     1.0000 0.59579  0.86118  0.55878  Biso   1.000  Re
  S10      1.0000 0.63036  0.76275  0.51112  Biso   1.000  S
  N46      1.0000 0.35150  0.69110  0.68050  Biso   1.000  N
  C46      1.0000 0.40390  0.71350  0.64530  Biso   1.000  C
  N47      1.0000 0.14790  0.65860  0.84650  Biso   1.000  N
  C47      1.0000 0.40450  0.83070  0.38580  Biso   1.000  C
  C48      1.0000 0.61190  0.94860  0.60600  Biso   1.000  C
  C49      1.0000 0.70570  0.89550  0.50120  Biso   1.000  C
  C50      1.0000 0.70810  0.84080  0.62060  Biso   1.000  C
  N48      1.0000 0.61900  0.99380  0.63490  Biso   1.000  N
  N49      1.0000 0.76480  0.91530  0.47070  Biso   1.000  N
  N50      1.0000 0.76890  0.82960  0.65410  Biso   1.000  N
  Re11     1.0000 0.90421  0.63882  0.05878  Biso   1.000  Re
  S11      1.0000 0.86964  0.73725  0.01112  Biso   1.000  S
  N51      1.0000 0.14850  0.80890  0.18050  Biso   1.000  N
  C51      1.0000 0.09610  0.78650  0.14530  Biso   1.000  C
  N52      1.0000 0.35210  0.84140  0.34650  Biso   1.000  N
  C52      1.0000 0.09550  0.66930  0.88580  Biso   1.000  C
  C53      1.0000 0.88810  0.55140  0.10600  Biso   1.000  C
  C54      1.0000 0.79430  0.60450  0.00120  Biso   1.000  C
  C55      1.0000 0.79190  0.65920  0.12060  Biso   1.000  C
  N53      1.0000 0.88100  0.50620  0.13490  Biso   1.000  N
  N54      1.0000 0.73520  0.58470  0.97070  Biso   1.000  N
  N55      1.0000 0.73110  0.67040  0.15410  Biso   1.000  N
  Re12     1.0000 0.40421  0.13882  0.05878  Biso   1.000  Re
  S12      1.0000 0.36964  0.23725  0.01112  Biso   1.000  S
  N56      1.0000 0.64850  0.30890  0.18050  Biso   1.000  N
  C56      1.0000 0.59610  0.28650  0.14530  Biso   1.000  C
  N57      1.0000 0.85210  0.34140  0.34650  Biso   1.000  N
  C57      1.0000 0.59550  0.16930  0.88580  Biso   1.000  C
  C58      1.0000 0.38810  0.05140  0.10600  Biso   1.000  C
  C59      1.0000 0.29430  0.10450  0.00120  Biso   1.000  C
  C60      1.0000 0.29190  0.15920  0.12060  Biso   1.000  C
  N58      1.0000 0.38100  0.00620  0.13490  Biso   1.000  N
  N59      1.0000 0.23520  0.08470  0.97070  Biso   1.000  N
  N60      1.0000 0.23110  0.17040  0.15410  Biso   1.000  N
  Re13     1.0000 0.90421  0.36118  0.94122  Biso   1.000  Re
  S13      1.0000 0.86964  0.26275  0.98888  Biso   1.000  S
  N61      1.0000 0.14850  0.19110  0.81950  Biso   1.000  N
  C61      1.0000 0.09610  0.21350  0.85470  Biso   1.000  C
  N62      1.0000 0.35210  0.15860  0.65350  Biso   1.000  N
  C62      1.0000 0.09550  0.33070  0.11420  Biso   1.000  C
  C63      1.0000 0.88810  0.44860  0.89400  Biso   1.000  C
  C64      1.0000 0.79430  0.39550  0.99880  Biso   1.000  C
  C65      1.0000 0.79190  0.34080  0.87940  Biso   1.000  C
  N63      1.0000 0.88100  0.49380  0.86510  Biso   1.000  N
  N64      1.0000 0.73520  0.41530  0.02930  Biso   1.000  N
  N65      1.0000 0.73110  0.32960  0.84590  Biso   1.000  N
  Re14     1.0000 0.40421  0.86118  0.94122  Biso   1.000  Re
  S14      1.0000 0.36964  0.76275  0.98888  Biso   1.000  S
  N66      1.0000 0.64850  0.69110  0.81950  Biso   1.000  N
  C66      1.0000 0.59610  0.71350  0.85470  Biso   1.000  C
  N67      1.0000 0.85210  0.65860  0.65350  Biso   1.000  N
  C67      1.0000 0.59550  0.83070  0.11420  Biso   1.000  C
  C68      1.0000 0.38810  0.94860  0.89400  Biso   1.000  C
  C69      1.0000 0.29430  0.89550  0.99880  Biso   1.000  C
  C70      1.0000 0.29190  0.84080  0.87940  Biso   1.000  C
  N68      1.0000 0.38100  0.99380  0.86510  Biso   1.000  N
  N69      1.0000 0.23520  0.91530  0.02930  Biso   1.000  N
  N70      1.0000 0.23110  0.82960  0.84590  Biso   1.000  N
  Re15     1.0000 0.09579  0.63882  0.44122  Biso   1.000  Re
  S15      1.0000 0.13036  0.73725  0.48888  Biso   1.000  S
  N71      1.0000 0.85150  0.80890  0.31950  Biso   1.000  N
  C71      1.0000 0.90390  0.78650  0.35470  Biso   1.000  C
  N72      1.0000 0.64790  0.84140  0.15350  Biso   1.000  N
  C72      1.0000 0.90450  0.66930  0.61420  Biso   1.000  C
  C73      1.0000 0.11190  0.55140  0.39400  Biso   1.000  C
  C74      1.0000 0.20570  0.60450  0.49880  Biso   1.000  C
  C75      1.0000 0.20810  0.65920  0.37940  Biso   1.000  C
  N73      1.0000 0.11900  0.50620  0.36510  Biso   1.000  N
  N74      1.0000 0.26480  0.58470  0.52930  Biso   1.000  N
  N75      1.0000 0.26890  0.67040  0.34590  Biso   1.000  N
  Re16     1.0000 0.59579  0.13882  0.44122  Biso   1.000  Re
  S16      1.0000 0.63036  0.23725  0.48888  Biso   1.000  S
  N76      1.0000 0.35150  0.30890  0.31950  Biso   1.000  N
  C76      1.0000 0.40390  0.28650  0.35470  Biso   1.000  C
  N77      1.0000 0.14790  0.34140  0.15350  Biso   1.000  N
  C77      1.0000 0.40450  0.16930  0.61420  Biso   1.000  C
  C78      1.0000 0.61190  0.05140  0.39400  Biso   1.000  C
  C79      1.0000 0.70570  0.10450  0.49880  Biso   1.000  C
  C80      1.0000 0.70810  0.15920  0.37940  Biso   1.000  C
  N78      1.0000 0.61900  0.00620  0.36510  Biso   1.000  N
  N79      1.0000 0.76480  0.08470  0.52930  Biso   1.000  N
  N80      1.0000 0.76890  0.17040  0.34590  Biso   1.000  N
  Re17     1.0000 0.00000  0.74893  0.42061  Biso   1.000  Re
  Re18     1.0000 0.00000  0.69402  0.54139  Biso   1.000  Re
  S17      1.0000 0.00000  0.66123  0.35119  Biso   1.000  S
  S18      1.0000 0.00000  0.58396  0.51719  Biso   1.000  S
  C81      1.0000 0.00000  0.84210  0.45160  Biso   1.000  C
  C82      1.0000 0.00000  0.77800  0.59510  Biso   1.000  C
  N81      1.0000 0.00000  0.82300  0.62510  Biso   1.000  N
  N82      1.0000 0.00000  0.89460  0.46510  Biso   1.000  N
  Re19     1.0000 0.50000  0.24893  0.42061  Biso   1.000  Re
  Re20     1.0000 0.50000  0.19402  0.54139  Biso   1.000  Re
  S19      1.0000 0.50000  0.16123  0.35119  Biso   1.000  S
  S20      1.0000 0.50000  0.08396  0.51719  Biso   1.000  S
  C83      1.0000 0.50000  0.34210  0.45160  Biso   1.000  C
  C84      1.0000 0.50000  0.27800  0.59510  Biso   1.000  C
  N83      1.0000 0.50000  0.32300  0.62510  Biso   1.000  N
  N84      1.0000 0.50000  0.39460  0.46510  Biso   1.000  N
  Re21     1.0000 0.00000  0.25107  0.92061  Biso   1.000  Re
  Re22     1.0000 0.00000  0.30598  0.04139  Biso   1.000  Re
  S21      1.0000 0.00000  0.33877  0.85119  Biso   1.000  S
  S22      1.0000 0.00000  0.41604  0.01719  Biso   1.000  S
  C85      1.0000 0.00000  0.15790  0.95160  Biso   1.000  C
  C86      1.0000 0.00000  0.22200  0.09510  Biso   1.000  C
  N85      1.0000 0.00000  0.17700  0.12510  Biso   1.000  N
  N86      1.0000 0.00000  0.10540  0.96510  Biso   1.000  N
  Re23     1.0000 0.50000  0.75107  0.92061  Biso   1.000  Re
  Re24     1.0000 0.50000  0.80598  0.04139  Biso   1.000  Re
  S23      1.0000 0.50000  0.83877  0.85119  Biso   1.000  S
  S24      1.0000 0.50000  0.91604  0.01719  Biso   1.000  S
  C87      1.0000 0.50000  0.65790  0.95160  Biso   1.000  C
  C88      1.0000 0.50000  0.72200  0.09510  Biso   1.000  C
  N87      1.0000 0.50000  0.67700  0.12510  Biso   1.000  N
  N88      1.0000 0.50000  0.60540  0.96510  Biso   1.000  N
  Re25     1.0000 0.00000  0.74893  0.07939  Biso   1.000  Re
  Re26     1.0000 0.00000  0.69402  0.95861  Biso   1.000  Re
  S25      1.0000 0.00000  0.66123  0.14881  Biso   1.000  S
  S26      1.0000 0.00000  0.58396  0.98281  Biso   1.000  S
  C89      1.0000 0.00000  0.84210  0.04840  Biso   1.000  C
  C90      1.0000 0.00000  0.77800  0.90490  Biso   1.000  C
  N89      1.0000 0.00000  0.82300  0.87490  Biso   1.000  N
  N90      1.0000 0.00000  0.89460  0.03490  Biso   1.000  N
  Re27     1.0000 0.50000  0.24893  0.07939  Biso   1.000  Re
  Re28     1.0000 0.50000  0.19402  0.95861  Biso   1.000  Re
  S27      1.0000 0.50000  0.16123  0.14881  Biso   1.000  S
  S28      1.0000 0.50000  0.08396  0.98281  Biso   1.000  S
  C91      1.0000 0.50000  0.34210  0.04840  Biso   1.000  C
  C92      1.0000 0.50000  0.27800  0.90490  Biso   1.000  C
  N91      1.0000 0.50000  0.32300  0.87490  Biso   1.000  N
  N92      1.0000 0.50000  0.39460  0.03490  Biso   1.000  N
  Re29     1.0000 0.00000  0.25107  0.57939  Biso   1.000  Re
  Re30     1.0000 0.00000  0.30598  0.45861  Biso   1.000  Re
  S29      1.0000 0.00000  0.33877  0.64881  Biso   1.000  S
  S30      1.0000 0.00000  0.41604  0.48281  Biso   1.000  S
  C93      1.0000 0.00000  0.15790  0.54840  Biso   1.000  C
  C94      1.0000 0.00000  0.22200  0.40490  Biso   1.000  C
  N93      1.0000 0.00000  0.17700  0.37490  Biso   1.000  N
  N94      1.0000 0.00000  0.10540  0.53490  Biso   1.000  N
  Re31     1.0000 0.50000  0.75107  0.57939  Biso   1.000  Re
  Re32     1.0000 0.50000  0.80598  0.45861  Biso   1.000  Re
  S31      1.0000 0.50000  0.83877  0.64881  Biso   1.000  S
  S32      1.0000 0.50000  0.91604  0.48281  Biso   1.000  S
  C95      1.0000 0.50000  0.65790  0.54840  Biso   1.000  C
  C96      1.0000 0.50000  0.72200  0.40490  Biso   1.000  C
  N95      1.0000 0.50000  0.67700  0.37490  Biso   1.000  N
  N96      1.0000 0.50000  0.60540  0.53490  Biso   1.000  N
  Lu1      1.0000 0.26261  0.85730  0.25000  Biso   1.000  Lu
  Lu2      1.0000 0.76261  0.35730  0.25000  Biso   1.000  Lu
  Lu3      1.0000 0.73739  0.14270  0.75000  Biso   1.000  Lu
  Lu4      1.0000 0.23739  0.64270  0.75000  Biso   1.000  Lu
  Lu5      1.0000 0.73739  0.85730  0.25000  Biso   1.000  Lu
  Lu6      1.0000 0.23739  0.35730  0.25000  Biso   1.000  Lu
  Lu7      1.0000 0.26261  0.14270  0.75000  Biso   1.000  Lu
  Lu8      1.0000 0.76261  0.64270  0.75000  Biso   1.000  Lu
  K1       1.0000 0.58758  0.50000  0.50000  Biso   1.000  K
  K2       1.0000 0.08758  0.00000  0.50000  Biso   1.000  K
  K3       1.0000 0.41242  0.50000  0.00000  Biso   1.000  K
  K4       1.0000 0.91242  0.00000  0.00000  Biso   1.000  K
  K5       1.0000 0.41242  0.50000  0.50000  Biso   1.000  K
  K6       1.0000 0.91242  0.00000  0.50000  Biso   1.000  K
  K7       1.0000 0.58758  0.50000  0.00000  Biso   1.000  K
  K8       1.0000 0.08758  0.00000  0.00000  Biso   1.000  K
