data_image0
_cell_length_a       14.3389
_cell_length_b       21.2398
_cell_length_c       20.8514
_cell_angle_alpha    90
_cell_angle_beta     90
_cell_angle_gamma    90

_symmetry_space_group_name_H-M    "P 1"
_symmetry_int_tables_number       1

loop_
  _symmetry_equiv_pos_as_xyz
  'x, y, z'

loop_
  _atom_site_label
  _atom_site_occupancy
  _atom_site_fract_x
  _atom_site_fract_y
  _atom_site_fract_z
  _atom_site_thermal_displace_type
  _atom_site_B_iso_or_equiv
  _atom_site_type_symbol
  Re1      1.0000 0.90385  0.63846  0.44140  Biso   1.000  Re
  S1       1.0000 0.86931  0.73685  0.48855  Biso   1.000  S
  N1       1.0000 0.85300  0.65740  0.65260  Biso   1.000  N
  C1       1.0000 0.90440  0.78690  0.35580  Biso   1.000  C
  C2       1.0000 0.90420  0.66900  0.61270  Biso   1.000  C
  N2       1.0000 0.85250  0.80850  0.32020  Biso   1.000  N
  C3       1.0000 0.88800  0.55120  0.39470  Biso   1.000  C
  C4       1.0000 0.79140  0.65940  0.38020  Biso   1.000  C
  N3       1.0000 0.73130  0.67030  0.34610  Biso   1.000  N
  C5       1.0000 0.79240  0.60280  0.49660  Biso   1.000  C
  N4       1.0000 0.88110  0.50590  0.36570  Biso   1.000  N
  N5       1.0000 0.73210  0.58210  0.52520  Biso   1.000  N
  Re2      1.0000 0.40385  0.13846  0.44140  Biso   1.000  Re
  S2       1.0000 0.36931  0.23685  0.48855  Biso   1.000  S
  N6       1.0000 0.35300  0.15740  0.65260  Biso   1.000  N
  C6       1.0000 0.40440  0.28690  0.35580  Biso   1.000  C
  C7       1.0000 0.40420  0.16900  0.61270  Biso   1.000  C
  N7       1.0000 0.35250  0.30850  0.32020  Biso   1.000  N
  C8       1.0000 0.38800  0.05120  0.39470  Biso   1.000  C
  C9       1.0000 0.29140  0.15940  0.38020  Biso   1.000  C
  N8       1.0000 0.23130  0.17030  0.34610  Biso   1.000  N
  C10      1.0000 0.29240  0.10280  0.49660  Biso   1.000  C
  N9       1.0000 0.38110  0.00590  0.36570  Biso   1.000  N
  N10      1.0000 0.23210  0.08210  0.52520  Biso   1.000  N
  Re3      1.0000 0.09615  0.36154  0.94140  Biso   1.000  Re
  S3       1.0000 0.13069  0.26315  0.98855  Biso   1.000  S
  N11      1.0000 0.14700  0.34260  0.15260  Biso   1.000  N
  C11      1.0000 0.09560  0.21310  0.85580  Biso   1.000  C
  C12      1.0000 0.09580  0.33100  0.11270  Biso   1.000  C
  N12      1.0000 0.14750  0.19150  0.82020  Biso   1.000  N
  C13      1.0000 0.11200  0.44880  0.89470  Biso   1.000  C
  C14      1.0000 0.20860  0.34060  0.88020  Biso   1.000  C
  N13      1.0000 0.26870  0.32970  0.84610  Biso   1.000  N
  C15      1.0000 0.20760  0.39720  0.99660  Biso   1.000  C
  N14      1.0000 0.11890  0.49410  0.86570  Biso   1.000  N
  N15      1.0000 0.26790  0.41790  0.02520  Biso   1.000  N
  Re4      1.0000 0.59615  0.86154  0.94140  Biso   1.000  Re
  S4       1.0000 0.63069  0.76315  0.98855  Biso   1.000  S
  N16      1.0000 0.64700  0.84260  0.15260  Biso   1.000  N
  C16      1.0000 0.59560  0.71310  0.85580  Biso   1.000  C
  C17      1.0000 0.59580  0.83100  0.11270  Biso   1.000  C
  N17      1.0000 0.64750  0.69150  0.82020  Biso   1.000  N
  C18      1.0000 0.61200  0.94880  0.89470  Biso   1.000  C
  C19      1.0000 0.70860  0.84060  0.88020  Biso   1.000  C
  N18      1.0000 0.76870  0.82970  0.84610  Biso   1.000  N
  C20      1.0000 0.70760  0.89720  0.99660  Biso   1.000  C
  N19      1.0000 0.61890  0.99410  0.86570  Biso   1.000  N
  N20      1.0000 0.76790  0.91790  0.02520  Biso   1.000  N
  Re5      1.0000 0.09615  0.63846  0.05860  Biso   1.000  Re
  S5       1.0000 0.13069  0.73685  0.01145  Biso   1.000  S
  N21      1.0000 0.14700  0.65740  0.84740  Biso   1.000  N
  C21      1.0000 0.09560  0.78690  0.14420  Biso   1.000  C
  C22      1.0000 0.09580  0.66900  0.88730  Biso   1.000  C
  N22      1.0000 0.14750  0.80850  0.17980  Biso   1.000  N
  C23      1.0000 0.11200  0.55120  0.10530  Biso   1.000  C
  C24      1.0000 0.20860  0.65940  0.11980  Biso   1.000  C
  N23      1.0000 0.26870  0.67030  0.15390  Biso   1.000  N
  C25      1.0000 0.20760  0.60280  0.00340  Biso   1.000  C
  N24      1.0000 0.11890  0.50590  0.13430  Biso   1.000  N
  N25      1.0000 0.26790  0.58210  0.97480  Biso   1.000  N
  Re6      1.0000 0.59615  0.13846  0.05860  Biso   1.000  Re
  S6       1.0000 0.63069  0.23685  0.01145  Biso   1.000  S
  N26      1.0000 0.64700  0.15740  0.84740  Biso   1.000  N
  C26      1.0000 0.59560  0.28690  0.14420  Biso   1.000  C
  C27      1.0000 0.59580  0.16900  0.88730  Biso   1.000  C
  N27      1.0000 0.64750  0.30850  0.17980  Biso   1.000  N
  C28      1.0000 0.61200  0.05120  0.10530  Biso   1.000  C
  C29      1.0000 0.70860  0.15940  0.11980  Biso   1.000  C
  N28      1.0000 0.76870  0.17030  0.15390  Biso   1.000  N
  C30      1.0000 0.70760  0.10280  0.00340  Biso   1.000  C
  N29      1.0000 0.61890  0.00590  0.13430  Biso   1.000  N
  N30      1.0000 0.76790  0.08210  0.97480  Biso   1.000  N
  Re7      1.0000 0.90385  0.36154  0.55860  Biso   1.000  Re
  S7       1.0000 0.86931  0.26315  0.51145  Biso   1.000  S
  N31      1.0000 0.85300  0.34260  0.34740  Biso   1.000  N
  C31      1.0000 0.90440  0.21310  0.64420  Biso   1.000  C
  C32      1.0000 0.90420  0.33100  0.38730  Biso   1.000  C
  N32      1.0000 0.85250  0.19150  0.67980  Biso   1.000  N
  C33      1.0000 0.88800  0.44880  0.60530  Biso   1.000  C
  C34      1.0000 0.79140  0.34060  0.61980  Biso   1.000  C
  N33      1.0000 0.73130  0.32970  0.65390  Biso   1.000  N
  C35      1.0000 0.79240  0.39720  0.50340  Biso   1.000  C
  N34      1.0000 0.88110  0.49410  0.63430  Biso   1.000  N
  N35      1.0000 0.73210  0.41790  0.47480  Biso   1.000  N
  Re8      1.0000 0.40385  0.86154  0.55860  Biso   1.000  Re
  S8       1.0000 0.36931  0.76315  0.51145  Biso   1.000  S
  N36      1.0000 0.35300  0.84260  0.34740  Biso   1.000  N
  C36      1.0000 0.40440  0.71310  0.64420  Biso   1.000  C
  C37      1.0000 0.40420  0.83100  0.38730  Biso   1.000  C
  N37      1.0000 0.35250  0.69150  0.67980  Biso   1.000  N
  C38      1.0000 0.38800  0.94880  0.60530  Biso   1.000  C
  C39      1.0000 0.29140  0.84060  0.61980  Biso   1.000  C
  N38      1.0000 0.23130  0.82970  0.65390  Biso   1.000  N
  C40      1.0000 0.29240  0.89720  0.50340  Biso   1.000  C
  N39      1.0000 0.38110  0.99410  0.63430  Biso   1.000  N
  N40      1.0000 0.23210  0.91790  0.47480  Biso   1.000  N
  Re9      1.0000 0.09615  0.36154  0.55860  Biso   1.000  Re
  S9       1.0000 0.13069  0.26315  0.51145  Biso   1.000  S
  N41      1.0000 0.14700  0.34260  0.34740  Biso   1.000  N
  C41      1.0000 0.09560  0.21310  0.64420  Biso   1.000  C
  C42      1.0000 0.09580  0.33100  0.38730  Biso   1.000  C
  N42      1.0000 0.14750  0.19150  0.67980  Biso   1.000  N
  C43      1.0000 0.11200  0.44880  0.60530  Biso   1.000  C
  C44      1.0000 0.20860  0.34060  0.61980  Biso   1.000  C
  N43      1.0000 0.26870  0.32970  0.65390  Biso   1.000  N
  C45      1.0000 0.20760  0.39720  0.50340  Biso   1.000  C
  N44      1.0000 0.11890  0.49410  0.63430  Biso   1.000  N
  N45      1.0000 0.26790  0.41790  0.47480  Biso   1.000  N
  Re10     1.0000 0.59615  0.86154  0.55860  Biso   1.000  Re
  S10      1.0000 0.63069  0.76315  0.51145  Biso   1.000  S
  N46      1.0000 0.64700  0.84260  0.34740  Biso   1.000  N
  C46      1.0000 0.59560  0.71310  0.64420  Biso   1.000  C
  C47      1.0000 0.59580  0.83100  0.38730  Biso   1.000  C
  N47      1.0000 0.64750  0.69150  0.67980  Biso   1.000  N
  C48      1.0000 0.61200  0.94880  0.60530  Biso   1.000  C
  C49      1.0000 0.70860  0.84060  0.61980  Biso   1.000  C
  N48      1.0000 0.76870  0.82970  0.65390  Biso   1.000  N
  C50      1.0000 0.70760  0.89720  0.50340  Biso   1.000  C
  N49      1.0000 0.61890  0.99410  0.63430  Biso   1.000  N
  N50      1.0000 0.76790  0.91790  0.47480  Biso   1.000  N
  Re11     1.0000 0.90385  0.63846  0.05860  Biso   1.000  Re
  S11      1.0000 0.86931  0.73685  0.01145  Biso   1.000  S
  N51      1.0000 0.85300  0.65740  0.84740  Biso   1.000  N
  C51      1.0000 0.90440  0.78690  0.14420  Biso   1.000  C
  C52      1.0000 0.90420  0.66900  0.88730  Biso   1.000  C
  N52      1.0000 0.85250  0.80850  0.17980  Biso   1.000  N
  C53      1.0000 0.88800  0.55120  0.10530  Biso   1.000  C
  C54      1.0000 0.79140  0.65940  0.11980  Biso   1.000  C
  N53      1.0000 0.73130  0.67030  0.15390  Biso   1.000  N
  C55      1.0000 0.79240  0.60280  0.00340  Biso   1.000  C
  N54      1.0000 0.88110  0.50590  0.13430  Biso   1.000  N
  N55      1.0000 0.73210  0.58210  0.97480  Biso   1.000  N
  Re12     1.0000 0.40385  0.13846  0.05860  Biso   1.000  Re
  S12      1.0000 0.36931  0.23685  0.01145  Biso   1.000  S
  N56      1.0000 0.35300  0.15740  0.84740  Biso   1.000  N
  C56      1.0000 0.40440  0.28690  0.14420  Biso   1.000  C
  C57      1.0000 0.40420  0.16900  0.88730  Biso   1.000  C
  N57      1.0000 0.35250  0.30850  0.17980  Biso   1.000  N
  C58      1.0000 0.38800  0.05120  0.10530  Biso   1.000  C
  C59      1.0000 0.29140  0.15940  0.11980  Biso   1.000  C
  N58      1.0000 0.23130  0.17030  0.15390  Biso   1.000  N
  C60      1.0000 0.29240  0.10280  0.00340  Biso   1.000  C
  N59      1.0000 0.38110  0.00590  0.13430  Biso   1.000  N
  N60      1.0000 0.23210  0.08210  0.97480  Biso   1.000  N
  Re13     1.0000 0.90385  0.36154  0.94140  Biso   1.000  Re
  S13      1.0000 0.86931  0.26315  0.98855  Biso   1.000  S
  N61      1.0000 0.85300  0.34260  0.15260  Biso   1.000  N
  C61      1.0000 0.90440  0.21310  0.85580  Biso   1.000  C
  C62      1.0000 0.90420  0.33100  0.11270  Biso   1.000  C
  N62      1.0000 0.85250  0.19150  0.82020  Biso   1.000  N
  C63      1.0000 0.88800  0.44880  0.89470  Biso   1.000  C
  C64      1.0000 0.79140  0.34060  0.88020  Biso   1.000  C
  N63      1.0000 0.73130  0.32970  0.84610  Biso   1.000  N
  C65      1.0000 0.79240  0.39720  0.99660  Biso   1.000  C
  N64      1.0000 0.88110  0.49410  0.86570  Biso   1.000  N
  N65      1.0000 0.73210  0.41790  0.02520  Biso   1.000  N
  Re14     1.0000 0.40385  0.86154  0.94140  Biso   1.000  Re
  S14      1.0000 0.36931  0.76315  0.98855  Biso   1.000  S
  N66      1.0000 0.35300  0.84260  0.15260  Biso   1.000  N
  C66      1.0000 0.40440  0.71310  0.85580  Biso   1.000  C
  C67      1.0000 0.40420  0.83100  0.11270  Biso   1.000  C
  N67      1.0000 0.35250  0.69150  0.82020  Biso   1.000  N
  C68      1.0000 0.38800  0.94880  0.89470  Biso   1.000  C
  C69      1.0000 0.29140  0.84060  0.88020  Biso   1.000  C
  N68      1.0000 0.23130  0.82970  0.84610  Biso   1.000  N
  C70      1.0000 0.29240  0.89720  0.99660  Biso   1.000  C
  N69      1.0000 0.38110  0.99410  0.86570  Biso   1.000  N
  N70      1.0000 0.23210  0.91790  0.02520  Biso   1.000  N
  Re15     1.0000 0.09615  0.63846  0.44140  Biso   1.000  Re
  S15      1.0000 0.13069  0.73685  0.48855  Biso   1.000  S
  N71      1.0000 0.14700  0.65740  0.65260  Biso   1.000  N
  C71      1.0000 0.09560  0.78690  0.35580  Biso   1.000  C
  C72      1.0000 0.09580  0.66900  0.61270  Biso   1.000  C
  N72      1.0000 0.14750  0.80850  0.32020  Biso   1.000  N
  C73      1.0000 0.11200  0.55120  0.39470  Biso   1.000  C
  C74      1.0000 0.20860  0.65940  0.38020  Biso   1.000  C
  N73      1.0000 0.26870  0.67030  0.34610  Biso   1.000  N
  C75      1.0000 0.20760  0.60280  0.49660  Biso   1.000  C
  N74      1.0000 0.11890  0.50590  0.36570  Biso   1.000  N
  N75      1.0000 0.26790  0.58210  0.52520  Biso   1.000  N
  Re16     1.0000 0.59615  0.13846  0.44140  Biso   1.000  Re
  S16      1.0000 0.63069  0.23685  0.48855  Biso   1.000  S
  N76      1.0000 0.64700  0.15740  0.65260  Biso   1.000  N
  C76      1.0000 0.59560  0.28690  0.35580  Biso   1.000  C
  C77      1.0000 0.59580  0.16900  0.61270  Biso   1.000  C
  N77      1.0000 0.64750  0.30850  0.32020  Biso   1.000  N
  C78      1.0000 0.61200  0.05120  0.39470  Biso   1.000  C
  C79      1.0000 0.70860  0.15940  0.38020  Biso   1.000  C
  N78      1.0000 0.76870  0.17030  0.34610  Biso   1.000  N
  C80      1.0000 0.70760  0.10280  0.49660  Biso   1.000  C
  N79      1.0000 0.61890  0.00590  0.36570  Biso   1.000  N
  N80      1.0000 0.76790  0.08210  0.52520  Biso   1.000  N
  Re17     1.0000 0.00000  0.69366  0.54058  Biso   1.000  Re
  Re18     1.0000 0.00000  0.74892  0.42127  Biso   1.000  Re
  S17      1.0000 0.00000  0.58398  0.51602  Biso   1.000  S
  S18      1.0000 0.00000  0.66116  0.35261  Biso   1.000  S
  C81      1.0000 0.00000  0.77770  0.59380  Biso   1.000  C
  N81      1.0000 0.00000  0.82280  0.62390  Biso   1.000  N
  C82      1.0000 0.00000  0.84240  0.45120  Biso   1.000  C
  N82      1.0000 0.00000  0.89440  0.46390  Biso   1.000  N
  Re19     1.0000 0.50000  0.19366  0.54058  Biso   1.000  Re
  Re20     1.0000 0.50000  0.24892  0.42127  Biso   1.000  Re
  S19      1.0000 0.50000  0.08398  0.51602  Biso   1.000  S
  S20      1.0000 0.50000  0.16116  0.35261  Biso   1.000  S
  C83      1.0000 0.50000  0.27770  0.59380  Biso   1.000  C
  N83      1.0000 0.50000  0.32280  0.62390  Biso   1.000  N
  C84      1.0000 0.50000  0.34240  0.45120  Biso   1.000  C
  N84      1.0000 0.50000  0.39440  0.46390  Biso   1.000  N
  Re21     1.0000 0.00000  0.30634  0.04058  Biso   1.000  Re
  Re22     1.0000 0.00000  0.25109  0.92127  Biso   1.000  Re
  S21      1.0000 0.00000  0.41602  0.01602  Biso   1.000  S
  S22      1.0000 0.00000  0.33884  0.85261  Biso   1.000  S
  C85      1.0000 0.00000  0.22230  0.09380  Biso   1.000  C
  N85      1.0000 0.00000  0.17720  0.12390  Biso   1.000  N
  C86      1.0000 0.00000  0.15760  0.95120  Biso   1.000  C
  N86      1.0000 0.00000  0.10560  0.96390  Biso   1.000  N
  Re23     1.0000 0.50000  0.80634  0.04058  Biso   1.000  Re
  Re24     1.0000 0.50000  0.75109  0.92127  Biso   1.000  Re
  S23      1.0000 0.50000  0.91602  0.01602  Biso   1.000  S
  S24      1.0000 0.50000  0.83884  0.85261  Biso   1.000  S
  C87      1.0000 0.50000  0.72230  0.09380  Biso   1.000  C
  N87      1.0000 0.50000  0.67720  0.12390  Biso   1.000  N
  C88      1.0000 0.50000  0.65760  0.95120  Biso   1.000  C
  N88      1.0000 0.50000  0.60560  0.96390  Biso   1.000  N
  Re25     1.0000 0.00000  0.69366  0.95942  Biso   1.000  Re
  Re26     1.0000 0.00000  0.74892  0.07873  Biso   1.000  Re
  S25      1.0000 0.00000  0.58398  0.98398  Biso   1.000  S
  S26      1.0000 0.00000  0.66116  0.14739  Biso   1.000  S
  C89      1.0000 0.00000  0.77770  0.90620  Biso   1.000  C
  N89      1.0000 0.00000  0.82280  0.87610  Biso   1.000  N
  C90      1.0000 0.00000  0.84240  0.04880  Biso   1.000  C
  N90      1.0000 0.00000  0.89440  0.03610  Biso   1.000  N
  Re27     1.0000 0.50000  0.19366  0.95942  Biso   1.000  Re
  Re28     1.0000 0.50000  0.24892  0.07873  Biso   1.000  Re
  S27      1.0000 0.50000  0.08398  0.98398  Biso   1.000  S
  S28      1.0000 0.50000  0.16116  0.14739  Biso   1.000  S
  C91      1.0000 0.50000  0.27770  0.90620  Biso   1.000  C
  N91      1.0000 0.50000  0.32280  0.87610  Biso   1.000  N
  C92      1.0000 0.50000  0.34240  0.04880  Biso   1.000  C
  N92      1.0000 0.50000  0.39440  0.03610  Biso   1.000  N
  Re29     1.0000 0.00000  0.30634  0.45942  Biso   1.000  Re
  Re30     1.0000 0.00000  0.25109  0.57873  Biso   1.000  Re
  S29      1.0000 0.00000  0.41602  0.48398  Biso   1.000  S
  S30      1.0000 0.00000  0.33884  0.64739  Biso   1.000  S
  C93      1.0000 0.00000  0.22230  0.40620  Biso   1.000  C
  N93      1.0000 0.00000  0.17720  0.37610  Biso   1.000  N
  C94      1.0000 0.00000  0.15760  0.54880  Biso   1.000  C
  N94      1.0000 0.00000  0.10560  0.53610  Biso   1.000  N
  Re31     1.0000 0.50000  0.80634  0.45942  Biso   1.000  Re
  Re32     1.0000 0.50000  0.75109  0.57873  Biso   1.000  Re
  S31      1.0000 0.50000  0.91602  0.48398  Biso   1.000  S
  S32      1.0000 0.50000  0.83884  0.64739  Biso   1.000  S
  C95      1.0000 0.50000  0.72230  0.40620  Biso   1.000  C
  N95      1.0000 0.50000  0.67720  0.37610  Biso   1.000  N
  C96      1.0000 0.50000  0.65760  0.54880  Biso   1.000  C
  N96      1.0000 0.50000  0.60560  0.53610  Biso   1.000  N
  Ho1      1.0000 0.76280  0.64156  0.75000  Biso   1.000  Ho
  Ho2      1.0000 0.26280  0.14156  0.75000  Biso   1.000  Ho
  Ho3      1.0000 0.23720  0.35844  0.25000  Biso   1.000  Ho
  Ho4      1.0000 0.73720  0.85844  0.25000  Biso   1.000  Ho
  Ho5      1.0000 0.23720  0.64156  0.75000  Biso   1.000  Ho
  Ho6      1.0000 0.73720  0.14156  0.75000  Biso   1.000  Ho
  Ho7      1.0000 0.76280  0.35844  0.25000  Biso   1.000  Ho
  Ho8      1.0000 0.26280  0.85844  0.25000  Biso   1.000  Ho
  K1       1.0000 0.58466  0.50000  0.50000  Biso   1.000  K
  K2       1.0000 0.08466  0.00000  0.50000  Biso   1.000  K
  K3       1.0000 0.41534  0.50000  0.00000  Biso   1.000  K
  K4       1.0000 0.91534  0.00000  0.00000  Biso   1.000  K
  K5       1.0000 0.41534  0.50000  0.50000  Biso   1.000  K
  K6       1.0000 0.91534  0.00000  0.50000  Biso   1.000  K
  K7       1.0000 0.58466  0.50000  0.00000  Biso   1.000  K
  K8       1.0000 0.08466  0.00000  0.00000  Biso   1.000  K
