data_image0
_cell_length_a       14.5185
_cell_length_b       21.5702
_cell_length_c       20.6201
_cell_angle_alpha    90
_cell_angle_beta     90
_cell_angle_gamma    90

_symmetry_space_group_name_H-M    "P 1"
_symmetry_int_tables_number       1

loop_
  _symmetry_equiv_pos_as_xyz
  'x, y, z'

loop_
  _atom_site_label
  _atom_site_occupancy
  _atom_site_fract_x
  _atom_site_fract_y
  _atom_site_fract_z
  _atom_site_thermal_displace_type
  _atom_site_B_iso_or_equiv
  _atom_site_type_symbol
  Re1      1.0000 0.09510  0.36178  0.55917  Biso   1.000  Re
  S1       1.0000 0.12940  0.26452  0.51164  Biso   1.000  S
  N1       1.0000 0.14680  0.34150  0.34580  Biso   1.000  N
  N2       1.0000 0.26690  0.33090  0.65480  Biso   1.000  N
  N3       1.0000 0.11950  0.49320  0.63560  Biso   1.000  N
  N4       1.0000 0.26080  0.41400  0.46780  Biso   1.000  N
  N5       1.0000 0.14800  0.19260  0.67950  Biso   1.000  N
  C1       1.0000 0.09480  0.33060  0.38650  Biso   1.000  C
  C2       1.0000 0.20600  0.34160  0.62130  Biso   1.000  C
  C3       1.0000 0.11090  0.44800  0.60610  Biso   1.000  C
  C4       1.0000 0.20370  0.39570  0.50070  Biso   1.000  C
  C5       1.0000 0.09530  0.21480  0.64520  Biso   1.000  C
  Re2      1.0000 0.59510  0.86178  0.55917  Biso   1.000  Re
  S2       1.0000 0.62940  0.76452  0.51164  Biso   1.000  S
  N6       1.0000 0.64680  0.84150  0.34580  Biso   1.000  N
  N7       1.0000 0.76690  0.83090  0.65480  Biso   1.000  N
  N8       1.0000 0.61950  0.99320  0.63560  Biso   1.000  N
  N9       1.0000 0.76080  0.91400  0.46780  Biso   1.000  N
  N10      1.0000 0.64800  0.69260  0.67950  Biso   1.000  N
  C6       1.0000 0.59480  0.83060  0.38650  Biso   1.000  C
  C7       1.0000 0.70600  0.84160  0.62130  Biso   1.000  C
  C8       1.0000 0.61090  0.94800  0.60610  Biso   1.000  C
  C9       1.0000 0.70370  0.89570  0.50070  Biso   1.000  C
  C10      1.0000 0.59530  0.71480  0.64520  Biso   1.000  C
  Re3      1.0000 0.90490  0.63822  0.05917  Biso   1.000  Re
  S3       1.0000 0.87060  0.73548  0.01164  Biso   1.000  S
  N11      1.0000 0.85320  0.65850  0.84580  Biso   1.000  N
  N12      1.0000 0.73310  0.66910  0.15480  Biso   1.000  N
  N13      1.0000 0.88050  0.50680  0.13560  Biso   1.000  N
  N14      1.0000 0.73920  0.58600  0.96780  Biso   1.000  N
  N15      1.0000 0.85200  0.80740  0.17950  Biso   1.000  N
  C11      1.0000 0.90520  0.66940  0.88650  Biso   1.000  C
  C12      1.0000 0.79400  0.65840  0.12130  Biso   1.000  C
  C13      1.0000 0.88910  0.55200  0.10610  Biso   1.000  C
  C14      1.0000 0.79630  0.60430  0.00070  Biso   1.000  C
  C15      1.0000 0.90470  0.78520  0.14520  Biso   1.000  C
  Re4      1.0000 0.40490  0.13822  0.05917  Biso   1.000  Re
  S4       1.0000 0.37060  0.23548  0.01164  Biso   1.000  S
  N16      1.0000 0.35320  0.15850  0.84580  Biso   1.000  N
  N17      1.0000 0.23310  0.16910  0.15480  Biso   1.000  N
  N18      1.0000 0.38050  0.00680  0.13560  Biso   1.000  N
  N19      1.0000 0.23920  0.08600  0.96780  Biso   1.000  N
  N20      1.0000 0.35200  0.30740  0.17950  Biso   1.000  N
  C16      1.0000 0.40520  0.16940  0.88650  Biso   1.000  C
  C17      1.0000 0.29400  0.15840  0.12130  Biso   1.000  C
  C18      1.0000 0.38910  0.05200  0.10610  Biso   1.000  C
  C19      1.0000 0.29630  0.10430  0.00070  Biso   1.000  C
  C20      1.0000 0.40470  0.28520  0.14520  Biso   1.000  C
  Re5      1.0000 0.90490  0.36178  0.94083  Biso   1.000  Re
  S5       1.0000 0.87060  0.26452  0.98836  Biso   1.000  S
  N21      1.0000 0.85320  0.34150  0.15420  Biso   1.000  N
  N22      1.0000 0.73310  0.33090  0.84520  Biso   1.000  N
  N23      1.0000 0.88050  0.49320  0.86440  Biso   1.000  N
  N24      1.0000 0.73920  0.41400  0.03220  Biso   1.000  N
  N25      1.0000 0.85200  0.19260  0.82050  Biso   1.000  N
  C21      1.0000 0.90520  0.33060  0.11350  Biso   1.000  C
  C22      1.0000 0.79400  0.34160  0.87870  Biso   1.000  C
  C23      1.0000 0.88910  0.44800  0.89390  Biso   1.000  C
  C24      1.0000 0.79630  0.39570  0.99930  Biso   1.000  C
  C25      1.0000 0.90470  0.21480  0.85480  Biso   1.000  C
  Re6      1.0000 0.40490  0.86178  0.94083  Biso   1.000  Re
  S6       1.0000 0.37060  0.76452  0.98836  Biso   1.000  S
  N26      1.0000 0.35320  0.84150  0.15420  Biso   1.000  N
  N27      1.0000 0.23310  0.83090  0.84520  Biso   1.000  N
  N28      1.0000 0.38050  0.99320  0.86440  Biso   1.000  N
  N29      1.0000 0.23920  0.91400  0.03220  Biso   1.000  N
  N30      1.0000 0.35200  0.69260  0.82050  Biso   1.000  N
  C26      1.0000 0.40520  0.83060  0.11350  Biso   1.000  C
  C27      1.0000 0.29400  0.84160  0.87870  Biso   1.000  C
  C28      1.0000 0.38910  0.94800  0.89390  Biso   1.000  C
  C29      1.0000 0.29630  0.89570  0.99930  Biso   1.000  C
  C30      1.0000 0.40470  0.71480  0.85480  Biso   1.000  C
  Re7      1.0000 0.09510  0.63822  0.44083  Biso   1.000  Re
  S7       1.0000 0.12940  0.73548  0.48836  Biso   1.000  S
  N31      1.0000 0.14680  0.65850  0.65420  Biso   1.000  N
  N32      1.0000 0.26690  0.66910  0.34520  Biso   1.000  N
  N33      1.0000 0.11950  0.50680  0.36440  Biso   1.000  N
  N34      1.0000 0.26080  0.58600  0.53220  Biso   1.000  N
  N35      1.0000 0.14800  0.80740  0.32050  Biso   1.000  N
  C31      1.0000 0.09480  0.66940  0.61350  Biso   1.000  C
  C32      1.0000 0.20600  0.65840  0.37870  Biso   1.000  C
  C33      1.0000 0.11090  0.55200  0.39390  Biso   1.000  C
  C34      1.0000 0.20370  0.60430  0.49930  Biso   1.000  C
  C35      1.0000 0.09530  0.78520  0.35480  Biso   1.000  C
  Re8      1.0000 0.59510  0.13822  0.44083  Biso   1.000  Re
  S8       1.0000 0.62940  0.23548  0.48836  Biso   1.000  S
  N36      1.0000 0.64680  0.15850  0.65420  Biso   1.000  N
  N37      1.0000 0.76690  0.16910  0.34520  Biso   1.000  N
  N38      1.0000 0.61950  0.00680  0.36440  Biso   1.000  N
  N39      1.0000 0.76080  0.08600  0.53220  Biso   1.000  N
  N40      1.0000 0.64800  0.30740  0.32050  Biso   1.000  N
  C36      1.0000 0.59480  0.16940  0.61350  Biso   1.000  C
  C37      1.0000 0.70600  0.15840  0.37870  Biso   1.000  C
  C38      1.0000 0.61090  0.05200  0.39390  Biso   1.000  C
  C39      1.0000 0.70370  0.10430  0.49930  Biso   1.000  C
  C40      1.0000 0.59530  0.28520  0.35480  Biso   1.000  C
  Re9      1.0000 0.90490  0.63822  0.44083  Biso   1.000  Re
  S9       1.0000 0.87060  0.73548  0.48836  Biso   1.000  S
  N41      1.0000 0.85320  0.65850  0.65420  Biso   1.000  N
  N42      1.0000 0.73310  0.66910  0.34520  Biso   1.000  N
  N43      1.0000 0.88050  0.50680  0.36440  Biso   1.000  N
  N44      1.0000 0.73920  0.58600  0.53220  Biso   1.000  N
  N45      1.0000 0.85200  0.80740  0.32050  Biso   1.000  N
  C41      1.0000 0.90520  0.66940  0.61350  Biso   1.000  C
  C42      1.0000 0.79400  0.65840  0.37870  Biso   1.000  C
  C43      1.0000 0.88910  0.55200  0.39390  Biso   1.000  C
  C44      1.0000 0.79630  0.60430  0.49930  Biso   1.000  C
  C45      1.0000 0.90470  0.78520  0.35480  Biso   1.000  C
  Re10     1.0000 0.40490  0.13822  0.44083  Biso   1.000  Re
  S10      1.0000 0.37060  0.23548  0.48836  Biso   1.000  S
  N46      1.0000 0.35320  0.15850  0.65420  Biso   1.000  N
  N47      1.0000 0.23310  0.16910  0.34520  Biso   1.000  N
  N48      1.0000 0.38050  0.00680  0.36440  Biso   1.000  N
  N49      1.0000 0.23920  0.08600  0.53220  Biso   1.000  N
  N50      1.0000 0.35200  0.30740  0.32050  Biso   1.000  N
  C46      1.0000 0.40520  0.16940  0.61350  Biso   1.000  C
  C47      1.0000 0.29400  0.15840  0.37870  Biso   1.000  C
  C48      1.0000 0.38910  0.05200  0.39390  Biso   1.000  C
  C49      1.0000 0.29630  0.10430  0.49930  Biso   1.000  C
  C50      1.0000 0.40470  0.28520  0.35480  Biso   1.000  C
  Re11     1.0000 0.09510  0.36178  0.94083  Biso   1.000  Re
  S11      1.0000 0.12940  0.26452  0.98836  Biso   1.000  S
  N51      1.0000 0.14680  0.34150  0.15420  Biso   1.000  N
  N52      1.0000 0.26690  0.33090  0.84520  Biso   1.000  N
  N53      1.0000 0.11950  0.49320  0.86440  Biso   1.000  N
  N54      1.0000 0.26080  0.41400  0.03220  Biso   1.000  N
  N55      1.0000 0.14800  0.19260  0.82050  Biso   1.000  N
  C51      1.0000 0.09480  0.33060  0.11350  Biso   1.000  C
  C52      1.0000 0.20600  0.34160  0.87870  Biso   1.000  C
  C53      1.0000 0.11090  0.44800  0.89390  Biso   1.000  C
  C54      1.0000 0.20370  0.39570  0.99930  Biso   1.000  C
  C55      1.0000 0.09530  0.21480  0.85480  Biso   1.000  C
  Re12     1.0000 0.59510  0.86178  0.94083  Biso   1.000  Re
  S12      1.0000 0.62940  0.76452  0.98836  Biso   1.000  S
  N56      1.0000 0.64680  0.84150  0.15420  Biso   1.000  N
  N57      1.0000 0.76690  0.83090  0.84520  Biso   1.000  N
  N58      1.0000 0.61950  0.99320  0.86440  Biso   1.000  N
  N59      1.0000 0.76080  0.91400  0.03220  Biso   1.000  N
  N60      1.0000 0.64800  0.69260  0.82050  Biso   1.000  N
  C56      1.0000 0.59480  0.83060  0.11350  Biso   1.000  C
  C57      1.0000 0.70600  0.84160  0.87870  Biso   1.000  C
  C58      1.0000 0.61090  0.94800  0.89390  Biso   1.000  C
  C59      1.0000 0.70370  0.89570  0.99930  Biso   1.000  C
  C60      1.0000 0.59530  0.71480  0.85480  Biso   1.000  C
  Re13     1.0000 0.09510  0.63822  0.05917  Biso   1.000  Re
  S13      1.0000 0.12940  0.73548  0.01164  Biso   1.000  S
  N61      1.0000 0.14680  0.65850  0.84580  Biso   1.000  N
  N62      1.0000 0.26690  0.66910  0.15480  Biso   1.000  N
  N63      1.0000 0.11950  0.50680  0.13560  Biso   1.000  N
  N64      1.0000 0.26080  0.58600  0.96780  Biso   1.000  N
  N65      1.0000 0.14800  0.80740  0.17950  Biso   1.000  N
  C61      1.0000 0.09480  0.66940  0.88650  Biso   1.000  C
  C62      1.0000 0.20600  0.65840  0.12130  Biso   1.000  C
  C63      1.0000 0.11090  0.55200  0.10610  Biso   1.000  C
  C64      1.0000 0.20370  0.60430  0.00070  Biso   1.000  C
  C65      1.0000 0.09530  0.78520  0.14520  Biso   1.000  C
  Re14     1.0000 0.59510  0.13822  0.05917  Biso   1.000  Re
  S14      1.0000 0.62940  0.23548  0.01164  Biso   1.000  S
  N66      1.0000 0.64680  0.15850  0.84580  Biso   1.000  N
  N67      1.0000 0.76690  0.16910  0.15480  Biso   1.000  N
  N68      1.0000 0.61950  0.00680  0.13560  Biso   1.000  N
  N69      1.0000 0.76080  0.08600  0.96780  Biso   1.000  N
  N70      1.0000 0.64800  0.30740  0.17950  Biso   1.000  N
  C66      1.0000 0.59480  0.16940  0.88650  Biso   1.000  C
  C67      1.0000 0.70600  0.15840  0.12130  Biso   1.000  C
  C68      1.0000 0.61090  0.05200  0.10610  Biso   1.000  C
  C69      1.0000 0.70370  0.10430  0.00070  Biso   1.000  C
  C70      1.0000 0.59530  0.28520  0.14520  Biso   1.000  C
  Re15     1.0000 0.90490  0.36178  0.55917  Biso   1.000  Re
  S15      1.0000 0.87060  0.26452  0.51164  Biso   1.000  S
  N71      1.0000 0.85320  0.34150  0.34580  Biso   1.000  N
  N72      1.0000 0.73310  0.33090  0.65480  Biso   1.000  N
  N73      1.0000 0.88050  0.49320  0.63560  Biso   1.000  N
  N74      1.0000 0.73920  0.41400  0.46780  Biso   1.000  N
  N75      1.0000 0.85200  0.19260  0.67950  Biso   1.000  N
  C71      1.0000 0.90520  0.33060  0.38650  Biso   1.000  C
  C72      1.0000 0.79400  0.34160  0.62130  Biso   1.000  C
  C73      1.0000 0.88910  0.44800  0.60610  Biso   1.000  C
  C74      1.0000 0.79630  0.39570  0.50070  Biso   1.000  C
  C75      1.0000 0.90470  0.21480  0.64520  Biso   1.000  C
  Re16     1.0000 0.40490  0.86178  0.55917  Biso   1.000  Re
  S16      1.0000 0.37060  0.76452  0.51164  Biso   1.000  S
  N76      1.0000 0.35320  0.84150  0.34580  Biso   1.000  N
  N77      1.0000 0.23310  0.83090  0.65480  Biso   1.000  N
  N78      1.0000 0.38050  0.99320  0.63560  Biso   1.000  N
  N79      1.0000 0.23920  0.91400  0.46780  Biso   1.000  N
  N80      1.0000 0.35200  0.69260  0.67950  Biso   1.000  N
  C76      1.0000 0.40520  0.83060  0.38650  Biso   1.000  C
  C77      1.0000 0.29400  0.84160  0.62130  Biso   1.000  C
  C78      1.0000 0.38910  0.94800  0.60610  Biso   1.000  C
  C79      1.0000 0.29630  0.89570  0.50070  Biso   1.000  C
  C80      1.0000 0.40470  0.71480  0.64520  Biso   1.000  C
  Re17     1.0000 0.00000  0.30712  0.45901  Biso   1.000  Re
  Re18     1.0000 0.00000  0.25294  0.57970  Biso   1.000  Re
  S17      1.0000 0.00000  0.33973  0.64939  Biso   1.000  S
  S18      1.0000 0.00000  0.41616  0.48322  Biso   1.000  S
  N81      1.0000 0.00000  0.18100  0.37460  Biso   1.000  N
  N82      1.0000 0.00000  0.10860  0.53610  Biso   1.000  N
  C81      1.0000 0.00000  0.22400  0.40600  Biso   1.000  C
  C82      1.0000 0.00000  0.16070  0.54910  Biso   1.000  C
  Re19     1.0000 0.50000  0.80712  0.45901  Biso   1.000  Re
  Re20     1.0000 0.50000  0.75294  0.57970  Biso   1.000  Re
  S19      1.0000 0.50000  0.83973  0.64939  Biso   1.000  S
  S20      1.0000 0.50000  0.91616  0.48322  Biso   1.000  S
  N83      1.0000 0.50000  0.68100  0.37460  Biso   1.000  N
  N84      1.0000 0.50000  0.60860  0.53610  Biso   1.000  N
  C83      1.0000 0.50000  0.72400  0.40600  Biso   1.000  C
  C84      1.0000 0.50000  0.66070  0.54910  Biso   1.000  C
  Re21     1.0000 0.00000  0.69288  0.95901  Biso   1.000  Re
  Re22     1.0000 0.00000  0.74706  0.07970  Biso   1.000  Re
  S21      1.0000 0.00000  0.66027  0.14939  Biso   1.000  S
  S22      1.0000 0.00000  0.58384  0.98322  Biso   1.000  S
  N85      1.0000 0.00000  0.81900  0.87460  Biso   1.000  N
  N86      1.0000 0.00000  0.89140  0.03610  Biso   1.000  N
  C85      1.0000 0.00000  0.77600  0.90600  Biso   1.000  C
  C86      1.0000 0.00000  0.83930  0.04910  Biso   1.000  C
  Re23     1.0000 0.50000  0.19288  0.95901  Biso   1.000  Re
  Re24     1.0000 0.50000  0.24706  0.07970  Biso   1.000  Re
  S23      1.0000 0.50000  0.16027  0.14939  Biso   1.000  S
  S24      1.0000 0.50000  0.08384  0.98322  Biso   1.000  S
  N87      1.0000 0.50000  0.31900  0.87460  Biso   1.000  N
  N88      1.0000 0.50000  0.39140  0.03610  Biso   1.000  N
  C87      1.0000 0.50000  0.27600  0.90600  Biso   1.000  C
  C88      1.0000 0.50000  0.33930  0.04910  Biso   1.000  C
  Re25     1.0000 0.00000  0.30712  0.04099  Biso   1.000  Re
  Re26     1.0000 0.00000  0.25294  0.92030  Biso   1.000  Re
  S25      1.0000 0.00000  0.33973  0.85061  Biso   1.000  S
  S26      1.0000 0.00000  0.41616  0.01678  Biso   1.000  S
  N89      1.0000 0.00000  0.18100  0.12540  Biso   1.000  N
  N90      1.0000 0.00000  0.10860  0.96390  Biso   1.000  N
  C89      1.0000 0.00000  0.22400  0.09400  Biso   1.000  C
  C90      1.0000 0.00000  0.16070  0.95090  Biso   1.000  C
  Re27     1.0000 0.50000  0.80712  0.04099  Biso   1.000  Re
  Re28     1.0000 0.50000  0.75294  0.92030  Biso   1.000  Re
  S27      1.0000 0.50000  0.83973  0.85061  Biso   1.000  S
  S28      1.0000 0.50000  0.91616  0.01678  Biso   1.000  S
  N91      1.0000 0.50000  0.68100  0.12540  Biso   1.000  N
  N92      1.0000 0.50000  0.60860  0.96390  Biso   1.000  N
  C91      1.0000 0.50000  0.72400  0.09400  Biso   1.000  C
  C92      1.0000 0.50000  0.66070  0.95090  Biso   1.000  C
  Re29     1.0000 0.00000  0.69288  0.54099  Biso   1.000  Re
  Re30     1.0000 0.00000  0.74706  0.42030  Biso   1.000  Re
  S29      1.0000 0.00000  0.66027  0.35061  Biso   1.000  S
  S30      1.0000 0.00000  0.58384  0.51678  Biso   1.000  S
  N93      1.0000 0.00000  0.81900  0.62540  Biso   1.000  N
  N94      1.0000 0.00000  0.89140  0.46390  Biso   1.000  N
  C93      1.0000 0.00000  0.77600  0.59400  Biso   1.000  C
  C94      1.0000 0.00000  0.83930  0.45090  Biso   1.000  C
  Re31     1.0000 0.50000  0.19288  0.54099  Biso   1.000  Re
  Re32     1.0000 0.50000  0.24706  0.42030  Biso   1.000  Re
  S31      1.0000 0.50000  0.16027  0.35061  Biso   1.000  S
  S32      1.0000 0.50000  0.08384  0.51678  Biso   1.000  S
  N95      1.0000 0.50000  0.31900  0.62540  Biso   1.000  N
  N96      1.0000 0.50000  0.39140  0.46390  Biso   1.000  N
  C95      1.0000 0.50000  0.27600  0.59400  Biso   1.000  C
  C96      1.0000 0.50000  0.33930  0.45090  Biso   1.000  C
  Er1      1.0000 0.23821  0.35683  0.25000  Biso   1.000  Er
  Er2      1.0000 0.73821  0.85683  0.25000  Biso   1.000  Er
  Er3      1.0000 0.76179  0.64317  0.75000  Biso   1.000  Er
  Er4      1.0000 0.26179  0.14317  0.75000  Biso   1.000  Er
  Er5      1.0000 0.76179  0.35683  0.25000  Biso   1.000  Er
  Er6      1.0000 0.26179  0.85683  0.25000  Biso   1.000  Er
  Er7      1.0000 0.23821  0.64317  0.75000  Biso   1.000  Er
  Er8      1.0000 0.73821  0.14317  0.75000  Biso   1.000  Er
  K1       1.0000 0.40920  0.50000  0.50000  Biso   1.000  K
  K2       1.0000 0.90920  0.00000  0.50000  Biso   1.000  K
  K3       1.0000 0.59080  0.50000  0.00000  Biso   1.000  K
  K4       1.0000 0.09080  0.00000  0.00000  Biso   1.000  K
  K5       1.0000 0.59080  0.50000  0.50000  Biso   1.000  K
  K6       1.0000 0.09080  0.00000  0.50000  Biso   1.000  K
  K7       1.0000 0.40920  0.50000  0.00000  Biso   1.000  K
  K8       1.0000 0.90920  0.00000  0.00000  Biso   1.000  K
