data_image0
_cell_length_a       14.4098
_cell_length_b       21.2942
_cell_length_c       20.9128
_cell_angle_alpha    90
_cell_angle_beta     90
_cell_angle_gamma    90

_symmetry_space_group_name_H-M    "P 1"
_symmetry_int_tables_number       1

loop_
  _symmetry_equiv_pos_as_xyz
  'x, y, z'

loop_
  _atom_site_label
  _atom_site_occupancy
  _atom_site_fract_x
  _atom_site_fract_y
  _atom_site_fract_z
  _atom_site_thermal_displace_type
  _atom_site_B_iso_or_equiv
  _atom_site_type_symbol
  Re1      1.0000 0.90428  0.63924  0.44141  Biso   1.000  Re
  S1       1.0000 0.86977  0.73760  0.48887  Biso   1.000  S
  N1       1.0000 0.85320  0.65740  0.65210  Biso   1.000  N
  N2       1.0000 0.73170  0.67130  0.34630  Biso   1.000  N
  N3       1.0000 0.88060  0.50750  0.36560  Biso   1.000  N
  N4       1.0000 0.73260  0.58310  0.52450  Biso   1.000  N
  N5       1.0000 0.85310  0.80940  0.32100  Biso   1.000  N
  C1       1.0000 0.90450  0.66950  0.61190  Biso   1.000  C
  C2       1.0000 0.79260  0.65940  0.37930  Biso   1.000  C
  C3       1.0000 0.88800  0.55180  0.39420  Biso   1.000  C
  C4       1.0000 0.79290  0.60360  0.49730  Biso   1.000  C
  C5       1.0000 0.90500  0.78760  0.35620  Biso   1.000  C
  Re2      1.0000 0.40428  0.13924  0.44141  Biso   1.000  Re
  S2       1.0000 0.36977  0.23760  0.48887  Biso   1.000  S
  N6       1.0000 0.35320  0.15740  0.65210  Biso   1.000  N
  N7       1.0000 0.23170  0.17130  0.34630  Biso   1.000  N
  N8       1.0000 0.38060  0.00750  0.36560  Biso   1.000  N
  N9       1.0000 0.23260  0.08310  0.52450  Biso   1.000  N
  N10      1.0000 0.35310  0.30940  0.32100  Biso   1.000  N
  C6       1.0000 0.40450  0.16950  0.61190  Biso   1.000  C
  C7       1.0000 0.29260  0.15940  0.37930  Biso   1.000  C
  C8       1.0000 0.38800  0.05180  0.39420  Biso   1.000  C
  C9       1.0000 0.29290  0.10360  0.49730  Biso   1.000  C
  C10      1.0000 0.40500  0.28760  0.35620  Biso   1.000  C
  Re3      1.0000 0.09572  0.36076  0.94141  Biso   1.000  Re
  S3       1.0000 0.13023  0.26240  0.98887  Biso   1.000  S
  N11      1.0000 0.14680  0.34260  0.15210  Biso   1.000  N
  N12      1.0000 0.26830  0.32870  0.84630  Biso   1.000  N
  N13      1.0000 0.11940  0.49250  0.86560  Biso   1.000  N
  N14      1.0000 0.26740  0.41690  0.02450  Biso   1.000  N
  N15      1.0000 0.14690  0.19060  0.82100  Biso   1.000  N
  C11      1.0000 0.09550  0.33050  0.11190  Biso   1.000  C
  C12      1.0000 0.20740  0.34060  0.87930  Biso   1.000  C
  C13      1.0000 0.11200  0.44820  0.89420  Biso   1.000  C
  C14      1.0000 0.20710  0.39640  0.99730  Biso   1.000  C
  C15      1.0000 0.09500  0.21240  0.85620  Biso   1.000  C
  Re4      1.0000 0.59572  0.86076  0.94141  Biso   1.000  Re
  S4       1.0000 0.63023  0.76240  0.98887  Biso   1.000  S
  N16      1.0000 0.64680  0.84260  0.15210  Biso   1.000  N
  N17      1.0000 0.76830  0.82870  0.84630  Biso   1.000  N
  N18      1.0000 0.61940  0.99250  0.86560  Biso   1.000  N
  N19      1.0000 0.76740  0.91690  0.02450  Biso   1.000  N
  N20      1.0000 0.64690  0.69060  0.82100  Biso   1.000  N
  C16      1.0000 0.59550  0.83050  0.11190  Biso   1.000  C
  C17      1.0000 0.70740  0.84060  0.87930  Biso   1.000  C
  C18      1.0000 0.61200  0.94820  0.89420  Biso   1.000  C
  C19      1.0000 0.70710  0.89640  0.99730  Biso   1.000  C
  C20      1.0000 0.59500  0.71240  0.85620  Biso   1.000  C
  Re5      1.0000 0.09572  0.63924  0.05859  Biso   1.000  Re
  S5       1.0000 0.13023  0.73760  0.01113  Biso   1.000  S
  N21      1.0000 0.14680  0.65740  0.84790  Biso   1.000  N
  N22      1.0000 0.26830  0.67130  0.15370  Biso   1.000  N
  N23      1.0000 0.11940  0.50750  0.13440  Biso   1.000  N
  N24      1.0000 0.26740  0.58310  0.97550  Biso   1.000  N
  N25      1.0000 0.14690  0.80940  0.17900  Biso   1.000  N
  C21      1.0000 0.09550  0.66950  0.88810  Biso   1.000  C
  C22      1.0000 0.20740  0.65940  0.12070  Biso   1.000  C
  C23      1.0000 0.11200  0.55180  0.10580  Biso   1.000  C
  C24      1.0000 0.20710  0.60360  0.00270  Biso   1.000  C
  C25      1.0000 0.09500  0.78760  0.14380  Biso   1.000  C
  Re6      1.0000 0.59572  0.13924  0.05859  Biso   1.000  Re
  S6       1.0000 0.63023  0.23760  0.01113  Biso   1.000  S
  N26      1.0000 0.64680  0.15740  0.84790  Biso   1.000  N
  N27      1.0000 0.76830  0.17130  0.15370  Biso   1.000  N
  N28      1.0000 0.61940  0.00750  0.13440  Biso   1.000  N
  N29      1.0000 0.76740  0.08310  0.97550  Biso   1.000  N
  N30      1.0000 0.64690  0.30940  0.17900  Biso   1.000  N
  C26      1.0000 0.59550  0.16950  0.88810  Biso   1.000  C
  C27      1.0000 0.70740  0.15940  0.12070  Biso   1.000  C
  C28      1.0000 0.61200  0.05180  0.10580  Biso   1.000  C
  C29      1.0000 0.70710  0.10360  0.00270  Biso   1.000  C
  C30      1.0000 0.59500  0.28760  0.14380  Biso   1.000  C
  Re7      1.0000 0.90428  0.36076  0.55859  Biso   1.000  Re
  S7       1.0000 0.86977  0.26240  0.51113  Biso   1.000  S
  N31      1.0000 0.85320  0.34260  0.34790  Biso   1.000  N
  N32      1.0000 0.73170  0.32870  0.65370  Biso   1.000  N
  N33      1.0000 0.88060  0.49250  0.63440  Biso   1.000  N
  N34      1.0000 0.73260  0.41690  0.47550  Biso   1.000  N
  N35      1.0000 0.85310  0.19060  0.67900  Biso   1.000  N
  C31      1.0000 0.90450  0.33050  0.38810  Biso   1.000  C
  C32      1.0000 0.79260  0.34060  0.62070  Biso   1.000  C
  C33      1.0000 0.88800  0.44820  0.60580  Biso   1.000  C
  C34      1.0000 0.79290  0.39640  0.50270  Biso   1.000  C
  C35      1.0000 0.90500  0.21240  0.64380  Biso   1.000  C
  Re8      1.0000 0.40428  0.86076  0.55859  Biso   1.000  Re
  S8       1.0000 0.36977  0.76240  0.51113  Biso   1.000  S
  N36      1.0000 0.35320  0.84260  0.34790  Biso   1.000  N
  N37      1.0000 0.23170  0.82870  0.65370  Biso   1.000  N
  N38      1.0000 0.38060  0.99250  0.63440  Biso   1.000  N
  N39      1.0000 0.23260  0.91690  0.47550  Biso   1.000  N
  N40      1.0000 0.35310  0.69060  0.67900  Biso   1.000  N
  C36      1.0000 0.40450  0.83050  0.38810  Biso   1.000  C
  C37      1.0000 0.29260  0.84060  0.62070  Biso   1.000  C
  C38      1.0000 0.38800  0.94820  0.60580  Biso   1.000  C
  C39      1.0000 0.29290  0.89640  0.50270  Biso   1.000  C
  C40      1.0000 0.40500  0.71240  0.64380  Biso   1.000  C
  Re9      1.0000 0.09572  0.36076  0.55859  Biso   1.000  Re
  S9       1.0000 0.13023  0.26240  0.51113  Biso   1.000  S
  N41      1.0000 0.14680  0.34260  0.34790  Biso   1.000  N
  N42      1.0000 0.26830  0.32870  0.65370  Biso   1.000  N
  N43      1.0000 0.11940  0.49250  0.63440  Biso   1.000  N
  N44      1.0000 0.26740  0.41690  0.47550  Biso   1.000  N
  N45      1.0000 0.14690  0.19060  0.67900  Biso   1.000  N
  C41      1.0000 0.09550  0.33050  0.38810  Biso   1.000  C
  C42      1.0000 0.20740  0.34060  0.62070  Biso   1.000  C
  C43      1.0000 0.11200  0.44820  0.60580  Biso   1.000  C
  C44      1.0000 0.20710  0.39640  0.50270  Biso   1.000  C
  C45      1.0000 0.09500  0.21240  0.64380  Biso   1.000  C
  Re10     1.0000 0.59572  0.86076  0.55859  Biso   1.000  Re
  S10      1.0000 0.63023  0.76240  0.51113  Biso   1.000  S
  N46      1.0000 0.64680  0.84260  0.34790  Biso   1.000  N
  N47      1.0000 0.76830  0.82870  0.65370  Biso   1.000  N
  N48      1.0000 0.61940  0.99250  0.63440  Biso   1.000  N
  N49      1.0000 0.76740  0.91690  0.47550  Biso   1.000  N
  N50      1.0000 0.64690  0.69060  0.67900  Biso   1.000  N
  C46      1.0000 0.59550  0.83050  0.38810  Biso   1.000  C
  C47      1.0000 0.70740  0.84060  0.62070  Biso   1.000  C
  C48      1.0000 0.61200  0.94820  0.60580  Biso   1.000  C
  C49      1.0000 0.70710  0.89640  0.50270  Biso   1.000  C
  C50      1.0000 0.59500  0.71240  0.64380  Biso   1.000  C
  Re11     1.0000 0.90428  0.63924  0.05859  Biso   1.000  Re
  S11      1.0000 0.86977  0.73760  0.01113  Biso   1.000  S
  N51      1.0000 0.85320  0.65740  0.84790  Biso   1.000  N
  N52      1.0000 0.73170  0.67130  0.15370  Biso   1.000  N
  N53      1.0000 0.88060  0.50750  0.13440  Biso   1.000  N
  N54      1.0000 0.73260  0.58310  0.97550  Biso   1.000  N
  N55      1.0000 0.85310  0.80940  0.17900  Biso   1.000  N
  C51      1.0000 0.90450  0.66950  0.88810  Biso   1.000  C
  C52      1.0000 0.79260  0.65940  0.12070  Biso   1.000  C
  C53      1.0000 0.88800  0.55180  0.10580  Biso   1.000  C
  C54      1.0000 0.79290  0.60360  0.00270  Biso   1.000  C
  C55      1.0000 0.90500  0.78760  0.14380  Biso   1.000  C
  Re12     1.0000 0.40428  0.13924  0.05859  Biso   1.000  Re
  S12      1.0000 0.36977  0.23760  0.01113  Biso   1.000  S
  N56      1.0000 0.35320  0.15740  0.84790  Biso   1.000  N
  N57      1.0000 0.23170  0.17130  0.15370  Biso   1.000  N
  N58      1.0000 0.38060  0.00750  0.13440  Biso   1.000  N
  N59      1.0000 0.23260  0.08310  0.97550  Biso   1.000  N
  N60      1.0000 0.35310  0.30940  0.17900  Biso   1.000  N
  C56      1.0000 0.40450  0.16950  0.88810  Biso   1.000  C
  C57      1.0000 0.29260  0.15940  0.12070  Biso   1.000  C
  C58      1.0000 0.38800  0.05180  0.10580  Biso   1.000  C
  C59      1.0000 0.29290  0.10360  0.00270  Biso   1.000  C
  C60      1.0000 0.40500  0.28760  0.14380  Biso   1.000  C
  Re13     1.0000 0.90428  0.36076  0.94141  Biso   1.000  Re
  S13      1.0000 0.86977  0.26240  0.98887  Biso   1.000  S
  N61      1.0000 0.85320  0.34260  0.15210  Biso   1.000  N
  N62      1.0000 0.73170  0.32870  0.84630  Biso   1.000  N
  N63      1.0000 0.88060  0.49250  0.86560  Biso   1.000  N
  N64      1.0000 0.73260  0.41690  0.02450  Biso   1.000  N
  N65      1.0000 0.85310  0.19060  0.82100  Biso   1.000  N
  C61      1.0000 0.90450  0.33050  0.11190  Biso   1.000  C
  C62      1.0000 0.79260  0.34060  0.87930  Biso   1.000  C
  C63      1.0000 0.88800  0.44820  0.89420  Biso   1.000  C
  C64      1.0000 0.79290  0.39640  0.99730  Biso   1.000  C
  C65      1.0000 0.90500  0.21240  0.85620  Biso   1.000  C
  Re14     1.0000 0.40428  0.86076  0.94141  Biso   1.000  Re
  S14      1.0000 0.36977  0.76240  0.98887  Biso   1.000  S
  N66      1.0000 0.35320  0.84260  0.15210  Biso   1.000  N
  N67      1.0000 0.23170  0.82870  0.84630  Biso   1.000  N
  N68      1.0000 0.38060  0.99250  0.86560  Biso   1.000  N
  N69      1.0000 0.23260  0.91690  0.02450  Biso   1.000  N
  N70      1.0000 0.35310  0.69060  0.82100  Biso   1.000  N
  C66      1.0000 0.40450  0.83050  0.11190  Biso   1.000  C
  C67      1.0000 0.29260  0.84060  0.87930  Biso   1.000  C
  C68      1.0000 0.38800  0.94820  0.89420  Biso   1.000  C
  C69      1.0000 0.29290  0.89640  0.99730  Biso   1.000  C
  C70      1.0000 0.40500  0.71240  0.85620  Biso   1.000  C
  Re15     1.0000 0.09572  0.63924  0.44141  Biso   1.000  Re
  S15      1.0000 0.13023  0.73760  0.48887  Biso   1.000  S
  N71      1.0000 0.14680  0.65740  0.65210  Biso   1.000  N
  N72      1.0000 0.26830  0.67130  0.34630  Biso   1.000  N
  N73      1.0000 0.11940  0.50750  0.36560  Biso   1.000  N
  N74      1.0000 0.26740  0.58310  0.52450  Biso   1.000  N
  N75      1.0000 0.14690  0.80940  0.32100  Biso   1.000  N
  C71      1.0000 0.09550  0.66950  0.61190  Biso   1.000  C
  C72      1.0000 0.20740  0.65940  0.37930  Biso   1.000  C
  C73      1.0000 0.11200  0.55180  0.39420  Biso   1.000  C
  C74      1.0000 0.20710  0.60360  0.49730  Biso   1.000  C
  C75      1.0000 0.09500  0.78760  0.35620  Biso   1.000  C
  Re16     1.0000 0.59572  0.13924  0.44141  Biso   1.000  Re
  S16      1.0000 0.63023  0.23760  0.48887  Biso   1.000  S
  N76      1.0000 0.64680  0.15740  0.65210  Biso   1.000  N
  N77      1.0000 0.76830  0.17130  0.34630  Biso   1.000  N
  N78      1.0000 0.61940  0.00750  0.36560  Biso   1.000  N
  N79      1.0000 0.76740  0.08310  0.52450  Biso   1.000  N
  N80      1.0000 0.64690  0.30940  0.32100  Biso   1.000  N
  C76      1.0000 0.59550  0.16950  0.61190  Biso   1.000  C
  C77      1.0000 0.70740  0.15940  0.37930  Biso   1.000  C
  C78      1.0000 0.61200  0.05180  0.39420  Biso   1.000  C
  C79      1.0000 0.70710  0.10360  0.49730  Biso   1.000  C
  C80      1.0000 0.59500  0.28760  0.35620  Biso   1.000  C
  Re17     1.0000 0.00000  0.69405  0.54050  Biso   1.000  Re
  Re18     1.0000 0.00000  0.74952  0.42165  Biso   1.000  Re
  S17      1.0000 0.00000  0.66211  0.35266  Biso   1.000  S
  S18      1.0000 0.00000  0.58398  0.51618  Biso   1.000  S
  N81      1.0000 0.00000  0.82150  0.62400  Biso   1.000  N
  N82      1.0000 0.00000  0.89510  0.46390  Biso   1.000  N
  C81      1.0000 0.00000  0.77800  0.59420  Biso   1.000  C
  C82      1.0000 0.00000  0.84240  0.45150  Biso   1.000  C
  Re19     1.0000 0.50000  0.19405  0.54050  Biso   1.000  Re
  Re20     1.0000 0.50000  0.24952  0.42165  Biso   1.000  Re
  S19      1.0000 0.50000  0.16211  0.35266  Biso   1.000  S
  S20      1.0000 0.50000  0.08398  0.51618  Biso   1.000  S
  N83      1.0000 0.50000  0.32150  0.62400  Biso   1.000  N
  N84      1.0000 0.50000  0.39510  0.46390  Biso   1.000  N
  C83      1.0000 0.50000  0.27800  0.59420  Biso   1.000  C
  C84      1.0000 0.50000  0.34240  0.45150  Biso   1.000  C
  Re21     1.0000 0.00000  0.30595  0.04050  Biso   1.000  Re
  Re22     1.0000 0.00000  0.25048  0.92165  Biso   1.000  Re
  S21      1.0000 0.00000  0.33789  0.85266  Biso   1.000  S
  S22      1.0000 0.00000  0.41602  0.01618  Biso   1.000  S
  N85      1.0000 0.00000  0.17850  0.12400  Biso   1.000  N
  N86      1.0000 0.00000  0.10490  0.96390  Biso   1.000  N
  C85      1.0000 0.00000  0.22200  0.09420  Biso   1.000  C
  C86      1.0000 0.00000  0.15760  0.95150  Biso   1.000  C
  Re23     1.0000 0.50000  0.80595  0.04050  Biso   1.000  Re
  Re24     1.0000 0.50000  0.75048  0.92165  Biso   1.000  Re
  S23      1.0000 0.50000  0.83789  0.85266  Biso   1.000  S
  S24      1.0000 0.50000  0.91602  0.01618  Biso   1.000  S
  N87      1.0000 0.50000  0.67850  0.12400  Biso   1.000  N
  N88      1.0000 0.50000  0.60490  0.96390  Biso   1.000  N
  C87      1.0000 0.50000  0.72200  0.09420  Biso   1.000  C
  C88      1.0000 0.50000  0.65760  0.95150  Biso   1.000  C
  Re25     1.0000 0.00000  0.69405  0.95950  Biso   1.000  Re
  Re26     1.0000 0.00000  0.74952  0.07835  Biso   1.000  Re
  S25      1.0000 0.00000  0.66211  0.14734  Biso   1.000  S
  S26      1.0000 0.00000  0.58398  0.98382  Biso   1.000  S
  N89      1.0000 0.00000  0.82150  0.87600  Biso   1.000  N
  N90      1.0000 0.00000  0.89510  0.03610  Biso   1.000  N
  C89      1.0000 0.00000  0.77800  0.90580  Biso   1.000  C
  C90      1.0000 0.00000  0.84240  0.04850  Biso   1.000  C
  Re27     1.0000 0.50000  0.19405  0.95950  Biso   1.000  Re
  Re28     1.0000 0.50000  0.24952  0.07835  Biso   1.000  Re
  S27      1.0000 0.50000  0.16211  0.14734  Biso   1.000  S
  S28      1.0000 0.50000  0.08398  0.98382  Biso   1.000  S
  N91      1.0000 0.50000  0.32150  0.87600  Biso   1.000  N
  N92      1.0000 0.50000  0.39510  0.03610  Biso   1.000  N
  C91      1.0000 0.50000  0.27800  0.90580  Biso   1.000  C
  C92      1.0000 0.50000  0.34240  0.04850  Biso   1.000  C
  Re29     1.0000 0.00000  0.30595  0.45950  Biso   1.000  Re
  Re30     1.0000 0.00000  0.25048  0.57835  Biso   1.000  Re
  S29      1.0000 0.00000  0.33789  0.64734  Biso   1.000  S
  S30      1.0000 0.00000  0.41602  0.48382  Biso   1.000  S
  N93      1.0000 0.00000  0.17850  0.37600  Biso   1.000  N
  N94      1.0000 0.00000  0.10490  0.53610  Biso   1.000  N
  C93      1.0000 0.00000  0.22200  0.40580  Biso   1.000  C
  C94      1.0000 0.00000  0.15760  0.54850  Biso   1.000  C
  Re31     1.0000 0.50000  0.80595  0.45950  Biso   1.000  Re
  Re32     1.0000 0.50000  0.75048  0.57835  Biso   1.000  Re
  S31      1.0000 0.50000  0.83789  0.64734  Biso   1.000  S
  S32      1.0000 0.50000  0.91602  0.48382  Biso   1.000  S
  N95      1.0000 0.50000  0.67850  0.37600  Biso   1.000  N
  N96      1.0000 0.50000  0.60490  0.53610  Biso   1.000  N
  C95      1.0000 0.50000  0.72200  0.40580  Biso   1.000  C
  C96      1.0000 0.50000  0.65760  0.54850  Biso   1.000  C
  Tb1      1.0000 0.76280  0.64081  0.75000  Biso   1.000  Tb
  Tb2      1.0000 0.26280  0.14081  0.75000  Biso   1.000  Tb
  Tb3      1.0000 0.23720  0.35919  0.25000  Biso   1.000  Tb
  Tb4      1.0000 0.73720  0.85919  0.25000  Biso   1.000  Tb
  Tb5      1.0000 0.23720  0.64081  0.75000  Biso   1.000  Tb
  Tb6      1.0000 0.73720  0.14081  0.75000  Biso   1.000  Tb
  Tb7      1.0000 0.76280  0.35919  0.25000  Biso   1.000  Tb
  Tb8      1.0000 0.26280  0.85919  0.25000  Biso   1.000  Tb
  K1       1.0000 0.91430  0.00000  0.50000  Biso   1.000  K
  K2       1.0000 0.41430  0.50000  0.50000  Biso   1.000  K
  K3       1.0000 0.08570  0.00000  0.00000  Biso   1.000  K
  K4       1.0000 0.58570  0.50000  0.00000  Biso   1.000  K
  K5       1.0000 0.08570  0.00000  0.50000  Biso   1.000  K
  K6       1.0000 0.58570  0.50000  0.50000  Biso   1.000  K
  K7       1.0000 0.91430  0.00000  0.00000  Biso   1.000  K
  K8       1.0000 0.41430  0.50000  0.00000  Biso   1.000  K
