data_image0
_cell_length_a       14.6039
_cell_length_b       21.1262
_cell_length_c       20.6028
_cell_angle_alpha    90
_cell_angle_beta     90
_cell_angle_gamma    90

_symmetry_space_group_name_H-M    "P 1"
_symmetry_int_tables_number       1

loop_
  _symmetry_equiv_pos_as_xyz
  'x, y, z'

loop_
  _atom_site_label
  _atom_site_occupancy
  _atom_site_fract_x
  _atom_site_fract_y
  _atom_site_fract_z
  _atom_site_thermal_displace_type
  _atom_site_B_iso_or_equiv
  _atom_site_type_symbol
  Re1      1.0000 0.40555  0.14149  0.05694  Biso   1.000  Re
  S1       1.0000 0.37099  0.24112  0.00991  Biso   1.000  S
  N1       1.0000 0.35090  0.30970  0.18000  Biso   1.000  N
  C1       1.0000 0.40520  0.28970  0.14470  Biso   1.000  C
  N2       1.0000 0.14640  0.33990  0.34530  Biso   1.000  N
  C2       1.0000 0.40550  0.17350  0.88470  Biso   1.000  C
  C3       1.0000 0.29850  0.10630  0.99870  Biso   1.000  C
  C4       1.0000 0.38990  0.05310  0.10350  Biso   1.000  C
  C5       1.0000 0.29440  0.16100  0.11830  Biso   1.000  C
  N3       1.0000 0.38110  0.00750  0.13280  Biso   1.000  N
  N4       1.0000 0.23220  0.17020  0.15110  Biso   1.000  N
  N5       1.0000 0.24140  0.08800  0.96550  Biso   1.000  N
  K1       1.0000 0.10860  0.01340  0.03700  Biso   1.000  K
  Re2      1.0000 0.90555  0.64149  0.05694  Biso   1.000  Re
  S2       1.0000 0.87099  0.74112  0.00991  Biso   1.000  S
  N6       1.0000 0.85090  0.80970  0.18000  Biso   1.000  N
  C6       1.0000 0.90520  0.78970  0.14470  Biso   1.000  C
  N7       1.0000 0.64640  0.83990  0.34530  Biso   1.000  N
  C7       1.0000 0.90550  0.67350  0.88470  Biso   1.000  C
  C8       1.0000 0.79850  0.60630  0.99870  Biso   1.000  C
  C9       1.0000 0.88990  0.55310  0.10350  Biso   1.000  C
  C10      1.0000 0.79440  0.66100  0.11830  Biso   1.000  C
  N8       1.0000 0.88110  0.50750  0.13280  Biso   1.000  N
  N9       1.0000 0.73220  0.67020  0.15110  Biso   1.000  N
  N10      1.0000 0.74140  0.58800  0.96550  Biso   1.000  N
  K2       1.0000 0.60860  0.51340  0.03700  Biso   1.000  K
  Re3      1.0000 0.59445  0.85851  0.55694  Biso   1.000  Re
  S3       1.0000 0.62901  0.75888  0.50991  Biso   1.000  S
  N11      1.0000 0.64910  0.69030  0.68000  Biso   1.000  N
  C11      1.0000 0.59480  0.71030  0.64470  Biso   1.000  C
  N12      1.0000 0.85360  0.66010  0.84530  Biso   1.000  N
  C12      1.0000 0.59450  0.82650  0.38470  Biso   1.000  C
  C13      1.0000 0.70150  0.89370  0.49870  Biso   1.000  C
  C14      1.0000 0.61010  0.94690  0.60350  Biso   1.000  C
  C15      1.0000 0.70560  0.83900  0.61830  Biso   1.000  C
  N13      1.0000 0.61890  0.99250  0.63280  Biso   1.000  N
  N14      1.0000 0.76780  0.82980  0.65110  Biso   1.000  N
  N15      1.0000 0.75860  0.91200  0.46550  Biso   1.000  N
  K3       1.0000 0.89140  0.98660  0.53700  Biso   1.000  K
  Re4      1.0000 0.09445  0.35851  0.55694  Biso   1.000  Re
  S4       1.0000 0.12901  0.25888  0.50991  Biso   1.000  S
  N16      1.0000 0.14910  0.19030  0.68000  Biso   1.000  N
  C16      1.0000 0.09480  0.21030  0.64470  Biso   1.000  C
  N17      1.0000 0.35360  0.16010  0.84530  Biso   1.000  N
  C17      1.0000 0.09450  0.32650  0.38470  Biso   1.000  C
  C18      1.0000 0.20150  0.39370  0.49870  Biso   1.000  C
  C19      1.0000 0.11010  0.44690  0.60350  Biso   1.000  C
  C20      1.0000 0.20560  0.33900  0.61830  Biso   1.000  C
  N18      1.0000 0.11890  0.49250  0.63280  Biso   1.000  N
  N19      1.0000 0.26780  0.32980  0.65110  Biso   1.000  N
  N20      1.0000 0.25860  0.41200  0.46550  Biso   1.000  N
  K4       1.0000 0.39140  0.48660  0.53700  Biso   1.000  K
  Re5      1.0000 0.59445  0.14149  0.44306  Biso   1.000  Re
  S5       1.0000 0.62901  0.24112  0.49009  Biso   1.000  S
  N21      1.0000 0.64910  0.30970  0.32000  Biso   1.000  N
  C21      1.0000 0.59480  0.28970  0.35530  Biso   1.000  C
  N22      1.0000 0.85360  0.33990  0.15470  Biso   1.000  N
  C22      1.0000 0.59450  0.17350  0.61530  Biso   1.000  C
  C23      1.0000 0.70150  0.10630  0.50130  Biso   1.000  C
  C24      1.0000 0.61010  0.05310  0.39650  Biso   1.000  C
  C25      1.0000 0.70560  0.16100  0.38170  Biso   1.000  C
  N23      1.0000 0.61890  0.00750  0.36720  Biso   1.000  N
  N24      1.0000 0.76780  0.17020  0.34890  Biso   1.000  N
  N25      1.0000 0.75860  0.08800  0.53450  Biso   1.000  N
  K5       1.0000 0.89140  0.01340  0.46300  Biso   1.000  K
  Re6      1.0000 0.09445  0.64149  0.44306  Biso   1.000  Re
  S6       1.0000 0.12901  0.74112  0.49009  Biso   1.000  S
  N26      1.0000 0.14910  0.80970  0.32000  Biso   1.000  N
  C26      1.0000 0.09480  0.78970  0.35530  Biso   1.000  C
  N27      1.0000 0.35360  0.83990  0.15470  Biso   1.000  N
  C27      1.0000 0.09450  0.67350  0.61530  Biso   1.000  C
  C28      1.0000 0.20150  0.60630  0.50130  Biso   1.000  C
  C29      1.0000 0.11010  0.55310  0.39650  Biso   1.000  C
  C30      1.0000 0.20560  0.66100  0.38170  Biso   1.000  C
  N28      1.0000 0.11890  0.50750  0.36720  Biso   1.000  N
  N29      1.0000 0.26780  0.67020  0.34890  Biso   1.000  N
  N30      1.0000 0.25860  0.58800  0.53450  Biso   1.000  N
  K6       1.0000 0.39140  0.51340  0.46300  Biso   1.000  K
  Re7      1.0000 0.40555  0.85851  0.94306  Biso   1.000  Re
  S7       1.0000 0.37099  0.75888  0.99009  Biso   1.000  S
  N31      1.0000 0.35090  0.69030  0.82000  Biso   1.000  N
  C31      1.0000 0.40520  0.71030  0.85530  Biso   1.000  C
  N32      1.0000 0.14640  0.66010  0.65470  Biso   1.000  N
  C32      1.0000 0.40550  0.82650  0.11530  Biso   1.000  C
  C33      1.0000 0.29850  0.89370  0.00130  Biso   1.000  C
  C34      1.0000 0.38990  0.94690  0.89650  Biso   1.000  C
  C35      1.0000 0.29440  0.83900  0.88170  Biso   1.000  C
  N33      1.0000 0.38110  0.99250  0.86720  Biso   1.000  N
  N34      1.0000 0.23220  0.82980  0.84890  Biso   1.000  N
  N35      1.0000 0.24140  0.91200  0.03450  Biso   1.000  N
  K7       1.0000 0.10860  0.98660  0.96300  Biso   1.000  K
  Re8      1.0000 0.90555  0.35851  0.94306  Biso   1.000  Re
  S8       1.0000 0.87099  0.25888  0.99009  Biso   1.000  S
  N36      1.0000 0.85090  0.19030  0.82000  Biso   1.000  N
  C36      1.0000 0.90520  0.21030  0.85530  Biso   1.000  C
  N37      1.0000 0.64640  0.16010  0.65470  Biso   1.000  N
  C37      1.0000 0.90550  0.32650  0.11530  Biso   1.000  C
  C38      1.0000 0.79850  0.39370  0.00130  Biso   1.000  C
  C39      1.0000 0.88990  0.44690  0.89650  Biso   1.000  C
  C40      1.0000 0.79440  0.33900  0.88170  Biso   1.000  C
  N38      1.0000 0.88110  0.49250  0.86720  Biso   1.000  N
  N39      1.0000 0.73220  0.32980  0.84890  Biso   1.000  N
  N40      1.0000 0.74140  0.41200  0.03450  Biso   1.000  N
  K8       1.0000 0.60860  0.48660  0.96300  Biso   1.000  K
  Re9      1.0000 0.59445  0.85851  0.94306  Biso   1.000  Re
  S9       1.0000 0.62901  0.75888  0.99009  Biso   1.000  S
  N41      1.0000 0.64910  0.69030  0.82000  Biso   1.000  N
  C41      1.0000 0.59480  0.71030  0.85530  Biso   1.000  C
  N42      1.0000 0.85360  0.66010  0.65470  Biso   1.000  N
  C42      1.0000 0.59450  0.82650  0.11530  Biso   1.000  C
  C43      1.0000 0.70150  0.89370  0.00130  Biso   1.000  C
  C44      1.0000 0.61010  0.94690  0.89650  Biso   1.000  C
  C45      1.0000 0.70560  0.83900  0.88170  Biso   1.000  C
  N43      1.0000 0.61890  0.99250  0.86720  Biso   1.000  N
  N44      1.0000 0.76780  0.82980  0.84890  Biso   1.000  N
  N45      1.0000 0.75860  0.91200  0.03450  Biso   1.000  N
  K9       1.0000 0.89140  0.98660  0.96300  Biso   1.000  K
  Re10     1.0000 0.09445  0.35851  0.94306  Biso   1.000  Re
  S10      1.0000 0.12901  0.25888  0.99009  Biso   1.000  S
  N46      1.0000 0.14910  0.19030  0.82000  Biso   1.000  N
  C46      1.0000 0.09480  0.21030  0.85530  Biso   1.000  C
  N47      1.0000 0.35360  0.16010  0.65470  Biso   1.000  N
  C47      1.0000 0.09450  0.32650  0.11530  Biso   1.000  C
  C48      1.0000 0.20150  0.39370  0.00130  Biso   1.000  C
  C49      1.0000 0.11010  0.44690  0.89650  Biso   1.000  C
  C50      1.0000 0.20560  0.33900  0.88170  Biso   1.000  C
  N48      1.0000 0.11890  0.49250  0.86720  Biso   1.000  N
  N49      1.0000 0.26780  0.32980  0.84890  Biso   1.000  N
  N50      1.0000 0.25860  0.41200  0.03450  Biso   1.000  N
  K10      1.0000 0.39140  0.48660  0.96300  Biso   1.000  K
  Re11     1.0000 0.40555  0.14149  0.44306  Biso   1.000  Re
  S11      1.0000 0.37099  0.24112  0.49009  Biso   1.000  S
  N51      1.0000 0.35090  0.30970  0.32000  Biso   1.000  N
  C51      1.0000 0.40520  0.28970  0.35530  Biso   1.000  C
  N52      1.0000 0.14640  0.33990  0.15470  Biso   1.000  N
  C52      1.0000 0.40550  0.17350  0.61530  Biso   1.000  C
  C53      1.0000 0.29850  0.10630  0.50130  Biso   1.000  C
  C54      1.0000 0.38990  0.05310  0.39650  Biso   1.000  C
  C55      1.0000 0.29440  0.16100  0.38170  Biso   1.000  C
  N53      1.0000 0.38110  0.00750  0.36720  Biso   1.000  N
  N54      1.0000 0.23220  0.17020  0.34890  Biso   1.000  N
  N55      1.0000 0.24140  0.08800  0.53450  Biso   1.000  N
  K11      1.0000 0.10860  0.01340  0.46300  Biso   1.000  K
  Re12     1.0000 0.90555  0.64149  0.44306  Biso   1.000  Re
  S12      1.0000 0.87099  0.74112  0.49009  Biso   1.000  S
  N56      1.0000 0.85090  0.80970  0.32000  Biso   1.000  N
  C56      1.0000 0.90520  0.78970  0.35530  Biso   1.000  C
  N57      1.0000 0.64640  0.83990  0.15470  Biso   1.000  N
  C57      1.0000 0.90550  0.67350  0.61530  Biso   1.000  C
  C58      1.0000 0.79850  0.60630  0.50130  Biso   1.000  C
  C59      1.0000 0.88990  0.55310  0.39650  Biso   1.000  C
  C60      1.0000 0.79440  0.66100  0.38170  Biso   1.000  C
  N58      1.0000 0.88110  0.50750  0.36720  Biso   1.000  N
  N59      1.0000 0.73220  0.67020  0.34890  Biso   1.000  N
  N60      1.0000 0.74140  0.58800  0.53450  Biso   1.000  N
  K12      1.0000 0.60860  0.51340  0.46300  Biso   1.000  K
  Re13     1.0000 0.40555  0.85851  0.55694  Biso   1.000  Re
  S13      1.0000 0.37099  0.75888  0.50991  Biso   1.000  S
  N61      1.0000 0.35090  0.69030  0.68000  Biso   1.000  N
  C61      1.0000 0.40520  0.71030  0.64470  Biso   1.000  C
  N62      1.0000 0.14640  0.66010  0.84530  Biso   1.000  N
  C62      1.0000 0.40550  0.82650  0.38470  Biso   1.000  C
  C63      1.0000 0.29850  0.89370  0.49870  Biso   1.000  C
  C64      1.0000 0.38990  0.94690  0.60350  Biso   1.000  C
  C65      1.0000 0.29440  0.83900  0.61830  Biso   1.000  C
  N63      1.0000 0.38110  0.99250  0.63280  Biso   1.000  N
  N64      1.0000 0.23220  0.82980  0.65110  Biso   1.000  N
  N65      1.0000 0.24140  0.91200  0.46550  Biso   1.000  N
  K13      1.0000 0.10860  0.98660  0.53700  Biso   1.000  K
  Re14     1.0000 0.90555  0.35851  0.55694  Biso   1.000  Re
  S14      1.0000 0.87099  0.25888  0.50991  Biso   1.000  S
  N66      1.0000 0.85090  0.19030  0.68000  Biso   1.000  N
  C66      1.0000 0.90520  0.21030  0.64470  Biso   1.000  C
  N67      1.0000 0.64640  0.16010  0.84530  Biso   1.000  N
  C67      1.0000 0.90550  0.32650  0.38470  Biso   1.000  C
  C68      1.0000 0.79850  0.39370  0.49870  Biso   1.000  C
  C69      1.0000 0.88990  0.44690  0.60350  Biso   1.000  C
  C70      1.0000 0.79440  0.33900  0.61830  Biso   1.000  C
  N68      1.0000 0.88110  0.49250  0.63280  Biso   1.000  N
  N69      1.0000 0.73220  0.32980  0.65110  Biso   1.000  N
  N70      1.0000 0.74140  0.41200  0.46550  Biso   1.000  N
  K14      1.0000 0.60860  0.48660  0.53700  Biso   1.000  K
  Re15     1.0000 0.59445  0.14149  0.05694  Biso   1.000  Re
  S15      1.0000 0.62901  0.24112  0.00991  Biso   1.000  S
  N71      1.0000 0.64910  0.30970  0.18000  Biso   1.000  N
  C71      1.0000 0.59480  0.28970  0.14470  Biso   1.000  C
  N72      1.0000 0.85360  0.33990  0.34530  Biso   1.000  N
  C72      1.0000 0.59450  0.17350  0.88470  Biso   1.000  C
  C73      1.0000 0.70150  0.10630  0.99870  Biso   1.000  C
  C74      1.0000 0.61010  0.05310  0.10350  Biso   1.000  C
  C75      1.0000 0.70560  0.16100  0.11830  Biso   1.000  C
  N73      1.0000 0.61890  0.00750  0.13280  Biso   1.000  N
  N74      1.0000 0.76780  0.17020  0.15110  Biso   1.000  N
  N75      1.0000 0.75860  0.08800  0.96550  Biso   1.000  N
  K15      1.0000 0.89140  0.01340  0.03700  Biso   1.000  K
  Re16     1.0000 0.09445  0.64149  0.05694  Biso   1.000  Re
  S16      1.0000 0.12901  0.74112  0.00991  Biso   1.000  S
  N76      1.0000 0.14910  0.80970  0.18000  Biso   1.000  N
  C76      1.0000 0.09480  0.78970  0.14470  Biso   1.000  C
  N77      1.0000 0.35360  0.83990  0.34530  Biso   1.000  N
  C77      1.0000 0.09450  0.67350  0.88470  Biso   1.000  C
  C78      1.0000 0.20150  0.60630  0.99870  Biso   1.000  C
  C79      1.0000 0.11010  0.55310  0.10350  Biso   1.000  C
  C80      1.0000 0.20560  0.66100  0.11830  Biso   1.000  C
  N78      1.0000 0.11890  0.50750  0.13280  Biso   1.000  N
  N79      1.0000 0.26780  0.67020  0.15110  Biso   1.000  N
  N80      1.0000 0.25860  0.58800  0.96550  Biso   1.000  N
  K16      1.0000 0.39140  0.51340  0.03700  Biso   1.000  K
  Tm1      1.0000 0.23745  0.35798  0.25000  Biso   1.000  Tm
  Tm2      1.0000 0.73745  0.85798  0.25000  Biso   1.000  Tm
  Tm3      1.0000 0.76255  0.64202  0.75000  Biso   1.000  Tm
  Tm4      1.0000 0.26255  0.14202  0.75000  Biso   1.000  Tm
  Tm5      1.0000 0.76255  0.35798  0.25000  Biso   1.000  Tm
  Tm6      1.0000 0.26255  0.85798  0.25000  Biso   1.000  Tm
  Tm7      1.0000 0.23745  0.64202  0.75000  Biso   1.000  Tm
  Tm8      1.0000 0.73745  0.14202  0.75000  Biso   1.000  Tm
  Re17     1.0000 0.50000  0.19772  0.95712  Biso   1.000  Re
  Re18     1.0000 0.50000  0.25242  0.07814  Biso   1.000  Re
  S17      1.0000 0.50000  0.08605  0.98080  Biso   1.000  S
  S18      1.0000 0.50000  0.16356  0.14740  Biso   1.000  S
  C81      1.0000 0.50000  0.34710  0.04820  Biso   1.000  C
  C82      1.0000 0.50000  0.28170  0.90280  Biso   1.000  C
  N81      1.0000 0.50000  0.39990  0.03330  Biso   1.000  N
  N82      1.0000 0.50000  0.32710  0.87090  Biso   1.000  N
  Re19     1.0000 0.00000  0.69772  0.95712  Biso   1.000  Re
  Re20     1.0000 0.00000  0.75242  0.07814  Biso   1.000  Re
  S19      1.0000 0.00000  0.58605  0.98080  Biso   1.000  S
  S20      1.0000 0.00000  0.66356  0.14740  Biso   1.000  S
  C83      1.0000 0.00000  0.84710  0.04820  Biso   1.000  C
  C84      1.0000 0.00000  0.78170  0.90280  Biso   1.000  C
  N83      1.0000 0.00000  0.89990  0.03330  Biso   1.000  N
  N84      1.0000 0.00000  0.82710  0.87090  Biso   1.000  N
  Re21     1.0000 0.50000  0.80228  0.45712  Biso   1.000  Re
  Re22     1.0000 0.50000  0.74758  0.57814  Biso   1.000  Re
  S21      1.0000 0.50000  0.91395  0.48080  Biso   1.000  S
  S22      1.0000 0.50000  0.83644  0.64740  Biso   1.000  S
  C85      1.0000 0.50000  0.65290  0.54820  Biso   1.000  C
  C86      1.0000 0.50000  0.71830  0.40280  Biso   1.000  C
  N85      1.0000 0.50000  0.60010  0.53330  Biso   1.000  N
  N86      1.0000 0.50000  0.67290  0.37090  Biso   1.000  N
  Re23     1.0000 0.00000  0.30228  0.45712  Biso   1.000  Re
  Re24     1.0000 0.00000  0.24758  0.57814  Biso   1.000  Re
  S23      1.0000 0.00000  0.41395  0.48080  Biso   1.000  S
  S24      1.0000 0.00000  0.33644  0.64740  Biso   1.000  S
  C87      1.0000 0.00000  0.15290  0.54820  Biso   1.000  C
  C88      1.0000 0.00000  0.21830  0.40280  Biso   1.000  C
  N87      1.0000 0.00000  0.10010  0.53330  Biso   1.000  N
  N88      1.0000 0.00000  0.17290  0.37090  Biso   1.000  N
  Re25     1.0000 0.50000  0.19772  0.54288  Biso   1.000  Re
  Re26     1.0000 0.50000  0.25242  0.42186  Biso   1.000  Re
  S25      1.0000 0.50000  0.08605  0.51920  Biso   1.000  S
  S26      1.0000 0.50000  0.16356  0.35260  Biso   1.000  S
  C89      1.0000 0.50000  0.34710  0.45180  Biso   1.000  C
  C90      1.0000 0.50000  0.28170  0.59720  Biso   1.000  C
  N89      1.0000 0.50000  0.39990  0.46670  Biso   1.000  N
  N90      1.0000 0.50000  0.32710  0.62910  Biso   1.000  N
  Re27     1.0000 0.00000  0.69772  0.54288  Biso   1.000  Re
  Re28     1.0000 0.00000  0.75242  0.42186  Biso   1.000  Re
  S27      1.0000 0.00000  0.58605  0.51920  Biso   1.000  S
  S28      1.0000 0.00000  0.66356  0.35260  Biso   1.000  S
  C91      1.0000 0.00000  0.84710  0.45180  Biso   1.000  C
  C92      1.0000 0.00000  0.78170  0.59720  Biso   1.000  C
  N91      1.0000 0.00000  0.89990  0.46670  Biso   1.000  N
  N92      1.0000 0.00000  0.82710  0.62910  Biso   1.000  N
  Re29     1.0000 0.50000  0.80228  0.04288  Biso   1.000  Re
  Re30     1.0000 0.50000  0.74758  0.92186  Biso   1.000  Re
  S29      1.0000 0.50000  0.91395  0.01920  Biso   1.000  S
  S30      1.0000 0.50000  0.83644  0.85260  Biso   1.000  S
  C93      1.0000 0.50000  0.65290  0.95180  Biso   1.000  C
  C94      1.0000 0.50000  0.71830  0.09720  Biso   1.000  C
  N93      1.0000 0.50000  0.60010  0.96670  Biso   1.000  N
  N94      1.0000 0.50000  0.67290  0.12910  Biso   1.000  N
  Re31     1.0000 0.00000  0.30228  0.04288  Biso   1.000  Re
  Re32     1.0000 0.00000  0.24758  0.92186  Biso   1.000  Re
  S31      1.0000 0.00000  0.41395  0.01920  Biso   1.000  S
  S32      1.0000 0.00000  0.33644  0.85260  Biso   1.000  S
  C95      1.0000 0.00000  0.15290  0.95180  Biso   1.000  C
  C96      1.0000 0.00000  0.21830  0.09720  Biso   1.000  C
  N95      1.0000 0.00000  0.10010  0.96670  Biso   1.000  N
  N96      1.0000 0.00000  0.17290  0.12910  Biso   1.000  N
  O1       1.0000 0.12210  0.00000  0.00000  Biso   1.000  O
  O2       1.0000 0.62210  0.50000  0.00000  Biso   1.000  O
  O3       1.0000 0.87790  0.00000  0.50000  Biso   1.000  O
  O4       1.0000 0.37790  0.50000  0.50000  Biso   1.000  O
  O5       1.0000 0.87790  0.00000  0.00000  Biso   1.000  O
  O6       1.0000 0.37790  0.50000  0.00000  Biso   1.000  O
  O7       1.0000 0.12210  0.00000  0.50000  Biso   1.000  O
  O8       1.0000 0.62210  0.50000  0.50000  Biso   1.000  O
