data_image0
_cell_length_a       15.6115
_cell_length_b       15.6115
_cell_length_c       15.1842
_cell_angle_alpha    90
_cell_angle_beta     90
_cell_angle_gamma    120

_symmetry_space_group_name_H-M    "P 1"
_symmetry_int_tables_number       1

loop_
  _symmetry_equiv_pos_as_xyz
  'x, y, z'

loop_
  _atom_site_label
  _atom_site_occupancy
  _atom_site_fract_x
  _atom_site_fract_y
  _atom_site_fract_z
  _atom_site_thermal_displace_type
  _atom_site_B_iso_or_equiv
  _atom_site_type_symbol
  O1       1.0000 0.80442  0.38449  0.85858  Biso   1.000  O
  O2       1.0000 0.94169  0.38839  0.90578  Biso   1.000  O
  C1       1.0000 0.86535  0.35303  0.86078  Biso   1.000  C
  C2       1.0000 0.84068  0.26490  0.80310  Biso   1.000  C
  C3       1.0000 0.89300  0.21530  0.80570  Biso   1.000  C
  H1       1.0000 0.94610  0.23520  0.84410  Biso   1.000  H
  O3       1.0000 0.61551  0.41993  0.85858  Biso   1.000  O
  O4       1.0000 0.61161  0.55330  0.90578  Biso   1.000  O
  C4       1.0000 0.64697  0.51232  0.86078  Biso   1.000  C
  C5       1.0000 0.73510  0.57578  0.80310  Biso   1.000  C
  C6       1.0000 0.78470  0.67770  0.80570  Biso   1.000  C
  H2       1.0000 0.76480  0.71090  0.84410  Biso   1.000  H
  O5       1.0000 0.58007  0.19558  0.85858  Biso   1.000  O
  O6       1.0000 0.44670  0.05831  0.90578  Biso   1.000  O
  C7       1.0000 0.48768  0.13465  0.86078  Biso   1.000  C
  C8       1.0000 0.42422  0.15932  0.80310  Biso   1.000  C
  C9       1.0000 0.32230  0.10700  0.80570  Biso   1.000  C
  H3       1.0000 0.28910  0.05390  0.84410  Biso   1.000  H
  O7       1.0000 0.19558  0.61551  0.85858  Biso   1.000  O
  O8       1.0000 0.05831  0.61161  0.90578  Biso   1.000  O
  C10      1.0000 0.13465  0.64697  0.86078  Biso   1.000  C
  C11      1.0000 0.15932  0.73510  0.80310  Biso   1.000  C
  C12      1.0000 0.10700  0.78470  0.80570  Biso   1.000  C
  H4       1.0000 0.05390  0.76480  0.84410  Biso   1.000  H
  O9       1.0000 0.38449  0.58007  0.85858  Biso   1.000  O
  O10      1.0000 0.38839  0.44670  0.90578  Biso   1.000  O
  C13      1.0000 0.35303  0.48768  0.86078  Biso   1.000  C
  C14      1.0000 0.26490  0.42422  0.80310  Biso   1.000  C
  C15      1.0000 0.21530  0.32230  0.80570  Biso   1.000  C
  H5       1.0000 0.23520  0.28910  0.84410  Biso   1.000  H
  O11      1.0000 0.41993  0.80442  0.85858  Biso   1.000  O
  O12      1.0000 0.55330  0.94169  0.90578  Biso   1.000  O
  C16      1.0000 0.51232  0.86535  0.86078  Biso   1.000  C
  C17      1.0000 0.57578  0.84068  0.80310  Biso   1.000  C
  C18      1.0000 0.67770  0.89300  0.80570  Biso   1.000  C
  H6       1.0000 0.71090  0.94610  0.84410  Biso   1.000  H
  O13      1.0000 0.38449  0.80442  0.64142  Biso   1.000  O
  O14      1.0000 0.38839  0.94169  0.59422  Biso   1.000  O
  C19      1.0000 0.35303  0.86535  0.63922  Biso   1.000  C
  C20      1.0000 0.26490  0.84068  0.69690  Biso   1.000  C
  C21      1.0000 0.21530  0.89300  0.69430  Biso   1.000  C
  H7       1.0000 0.23520  0.94610  0.65590  Biso   1.000  H
  O15      1.0000 0.41993  0.61551  0.64142  Biso   1.000  O
  O16      1.0000 0.55330  0.61161  0.59422  Biso   1.000  O
  C22      1.0000 0.51232  0.64697  0.63922  Biso   1.000  C
  C23      1.0000 0.57578  0.73510  0.69690  Biso   1.000  C
  C24      1.0000 0.67770  0.78470  0.69430  Biso   1.000  C
  H8       1.0000 0.71090  0.76480  0.65590  Biso   1.000  H
  O17      1.0000 0.19558  0.58007  0.64142  Biso   1.000  O
  O18      1.0000 0.05831  0.44670  0.59422  Biso   1.000  O
  C25      1.0000 0.13465  0.48768  0.63922  Biso   1.000  C
  C26      1.0000 0.15932  0.42422  0.69690  Biso   1.000  C
  C27      1.0000 0.10700  0.32230  0.69430  Biso   1.000  C
  H9       1.0000 0.05390  0.28910  0.65590  Biso   1.000  H
  O19      1.0000 0.61551  0.19558  0.64142  Biso   1.000  O
  O20      1.0000 0.61161  0.05831  0.59422  Biso   1.000  O
  C28      1.0000 0.64697  0.13465  0.63922  Biso   1.000  C
  C29      1.0000 0.73510  0.15932  0.69690  Biso   1.000  C
  C30      1.0000 0.78470  0.10700  0.69430  Biso   1.000  C
  H10      1.0000 0.76480  0.05390  0.65590  Biso   1.000  H
  O21      1.0000 0.58007  0.38449  0.64142  Biso   1.000  O
  O22      1.0000 0.44670  0.38839  0.59422  Biso   1.000  O
  C31      1.0000 0.48768  0.35303  0.63922  Biso   1.000  C
  C32      1.0000 0.42422  0.26490  0.69690  Biso   1.000  C
  C33      1.0000 0.32230  0.21530  0.69430  Biso   1.000  C
  H11      1.0000 0.28910  0.23520  0.65590  Biso   1.000  H
  O23      1.0000 0.80442  0.41993  0.64142  Biso   1.000  O
  O24      1.0000 0.94169  0.55330  0.59422  Biso   1.000  O
  C34      1.0000 0.86535  0.51232  0.63922  Biso   1.000  C
  C35      1.0000 0.84068  0.57578  0.69690  Biso   1.000  C
  C36      1.0000 0.89300  0.67770  0.69430  Biso   1.000  C
  H12      1.0000 0.94610  0.71090  0.65590  Biso   1.000  H
  O25      1.0000 0.19558  0.61551  0.14142  Biso   1.000  O
  O26      1.0000 0.05831  0.61161  0.09422  Biso   1.000  O
  C37      1.0000 0.13465  0.64697  0.13922  Biso   1.000  C
  C38      1.0000 0.15932  0.73510  0.19690  Biso   1.000  C
  C39      1.0000 0.10700  0.78470  0.19430  Biso   1.000  C
  H13      1.0000 0.05390  0.76480  0.15590  Biso   1.000  H
  O27      1.0000 0.38449  0.58007  0.14142  Biso   1.000  O
  O28      1.0000 0.38839  0.44670  0.09422  Biso   1.000  O
  C40      1.0000 0.35303  0.48768  0.13922  Biso   1.000  C
  C41      1.0000 0.26490  0.42422  0.19690  Biso   1.000  C
  C42      1.0000 0.21530  0.32230  0.19430  Biso   1.000  C
  H14      1.0000 0.23520  0.28910  0.15590  Biso   1.000  H
  O29      1.0000 0.41993  0.80442  0.14142  Biso   1.000  O
  O30      1.0000 0.55330  0.94169  0.09422  Biso   1.000  O
  C43      1.0000 0.51232  0.86535  0.13922  Biso   1.000  C
  C44      1.0000 0.57578  0.84068  0.19690  Biso   1.000  C
  C45      1.0000 0.67770  0.89300  0.19430  Biso   1.000  C
  H15      1.0000 0.71090  0.94610  0.15590  Biso   1.000  H
  O31      1.0000 0.80442  0.38449  0.14142  Biso   1.000  O
  O32      1.0000 0.94169  0.38839  0.09422  Biso   1.000  O
  C46      1.0000 0.86535  0.35303  0.13922  Biso   1.000  C
  C47      1.0000 0.84068  0.26490  0.19690  Biso   1.000  C
  C48      1.0000 0.89300  0.21530  0.19430  Biso   1.000  C
  H16      1.0000 0.94610  0.23520  0.15590  Biso   1.000  H
  O33      1.0000 0.61551  0.41993  0.14142  Biso   1.000  O
  O34      1.0000 0.61161  0.55330  0.09422  Biso   1.000  O
  C49      1.0000 0.64697  0.51232  0.13922  Biso   1.000  C
  C50      1.0000 0.73510  0.57578  0.19690  Biso   1.000  C
  C51      1.0000 0.78470  0.67770  0.19430  Biso   1.000  C
  H17      1.0000 0.76480  0.71090  0.15590  Biso   1.000  H
  O35      1.0000 0.58007  0.19558  0.14142  Biso   1.000  O
  O36      1.0000 0.44670  0.05831  0.09422  Biso   1.000  O
  C52      1.0000 0.48768  0.13465  0.13922  Biso   1.000  C
  C53      1.0000 0.42422  0.15932  0.19690  Biso   1.000  C
  C54      1.0000 0.32230  0.10700  0.19430  Biso   1.000  C
  H18      1.0000 0.28910  0.05390  0.15590  Biso   1.000  H
  O37      1.0000 0.61551  0.19558  0.35858  Biso   1.000  O
  O38      1.0000 0.61161  0.05831  0.40578  Biso   1.000  O
  C55      1.0000 0.64697  0.13465  0.36078  Biso   1.000  C
  C56      1.0000 0.73510  0.15932  0.30310  Biso   1.000  C
  C57      1.0000 0.78470  0.10700  0.30570  Biso   1.000  C
  H19      1.0000 0.76480  0.05390  0.34410  Biso   1.000  H
  O39      1.0000 0.58007  0.38449  0.35858  Biso   1.000  O
  O40      1.0000 0.44670  0.38839  0.40578  Biso   1.000  O
  C58      1.0000 0.48768  0.35303  0.36078  Biso   1.000  C
  C59      1.0000 0.42422  0.26490  0.30310  Biso   1.000  C
  C60      1.0000 0.32230  0.21530  0.30570  Biso   1.000  C
  H20      1.0000 0.28910  0.23520  0.34410  Biso   1.000  H
  O41      1.0000 0.80442  0.41993  0.35858  Biso   1.000  O
  O42      1.0000 0.94169  0.55330  0.40578  Biso   1.000  O
  C61      1.0000 0.86535  0.51232  0.36078  Biso   1.000  C
  C62      1.0000 0.84068  0.57578  0.30310  Biso   1.000  C
  C63      1.0000 0.89300  0.67770  0.30570  Biso   1.000  C
  H21      1.0000 0.94610  0.71090  0.34410  Biso   1.000  H
  O43      1.0000 0.38449  0.80442  0.35858  Biso   1.000  O
  O44      1.0000 0.38839  0.94169  0.40578  Biso   1.000  O
  C64      1.0000 0.35303  0.86535  0.36078  Biso   1.000  C
  C65      1.0000 0.26490  0.84068  0.30310  Biso   1.000  C
  C66      1.0000 0.21530  0.89300  0.30570  Biso   1.000  C
  H22      1.0000 0.23520  0.94610  0.34410  Biso   1.000  H
  O45      1.0000 0.41993  0.61551  0.35858  Biso   1.000  O
  O46      1.0000 0.55330  0.61161  0.40578  Biso   1.000  O
  C67      1.0000 0.51232  0.64697  0.36078  Biso   1.000  C
  C68      1.0000 0.57578  0.73510  0.30310  Biso   1.000  C
  C69      1.0000 0.67770  0.78470  0.30570  Biso   1.000  C
  H23      1.0000 0.71090  0.76480  0.34410  Biso   1.000  H
  O47      1.0000 0.19558  0.58007  0.35858  Biso   1.000  O
  O48      1.0000 0.05831  0.44670  0.40578  Biso   1.000  O
  C70      1.0000 0.13465  0.48768  0.36078  Biso   1.000  C
  C71      1.0000 0.15932  0.42422  0.30310  Biso   1.000  C
  C72      1.0000 0.10700  0.32230  0.30570  Biso   1.000  C
  H24      1.0000 0.05390  0.28910  0.34410  Biso   1.000  H
  Ce1      1.0000 0.66667  0.33333  0.75000  Biso   1.000  Ce
  Ce2      1.0000 0.33333  0.66667  0.75000  Biso   1.000  Ce
  Ce3      1.0000 0.33333  0.66667  0.25000  Biso   1.000  Ce
  Ce4      1.0000 0.66667  0.33333  0.25000  Biso   1.000  Ce
  Mg1      1.0000 0.00000  0.50000  0.00000  Biso   1.000  Mg
  Mg2      1.0000 0.50000  0.50000  0.00000  Biso   1.000  Mg
  Mg3      1.0000 0.50000  0.00000  0.00000  Biso   1.000  Mg
  Mg4      1.0000 0.50000  0.00000  0.50000  Biso   1.000  Mg
  Mg5      1.0000 0.50000  0.50000  0.50000  Biso   1.000  Mg
  Mg6      1.0000 0.00000  0.50000  0.50000  Biso   1.000  Mg
  N1       1.0000 0.76299  0.23701  0.75000  Biso   1.000  N
  C73      1.0000 0.86493  0.13507  0.75000  Biso   1.000  C
  H25      1.0000 0.89930  0.10070  0.75000  Biso   1.000  H
  N2       1.0000 0.76299  0.52598  0.75000  Biso   1.000  N
  C74      1.0000 0.86493  0.72986  0.75000  Biso   1.000  C
  H26      1.0000 0.89930  0.79860  0.75000  Biso   1.000  H
  N3       1.0000 0.47402  0.23701  0.75000  Biso   1.000  N
  C75      1.0000 0.27014  0.13507  0.75000  Biso   1.000  C
  H27      1.0000 0.20140  0.10070  0.75000  Biso   1.000  H
  N4       1.0000 0.23701  0.76299  0.75000  Biso   1.000  N
  C76      1.0000 0.13507  0.86493  0.75000  Biso   1.000  C
  H28      1.0000 0.10070  0.89930  0.75000  Biso   1.000  H
  N5       1.0000 0.23701  0.47402  0.75000  Biso   1.000  N
  C77      1.0000 0.13507  0.27014  0.75000  Biso   1.000  C
  H29      1.0000 0.10070  0.20140  0.75000  Biso   1.000  H
  N6       1.0000 0.52598  0.76299  0.75000  Biso   1.000  N
  C78      1.0000 0.72986  0.86493  0.75000  Biso   1.000  C
  H30      1.0000 0.79860  0.89930  0.75000  Biso   1.000  H
  N7       1.0000 0.23701  0.76299  0.25000  Biso   1.000  N
  C79      1.0000 0.13507  0.86493  0.25000  Biso   1.000  C
  H31      1.0000 0.10070  0.89930  0.25000  Biso   1.000  H
  N8       1.0000 0.23701  0.47402  0.25000  Biso   1.000  N
  C80      1.0000 0.13507  0.27014  0.25000  Biso   1.000  C
  H32      1.0000 0.10070  0.20140  0.25000  Biso   1.000  H
  N9       1.0000 0.52598  0.76299  0.25000  Biso   1.000  N
  C81      1.0000 0.72986  0.86493  0.25000  Biso   1.000  C
  H33      1.0000 0.79860  0.89930  0.25000  Biso   1.000  H
  N10      1.0000 0.76299  0.23701  0.25000  Biso   1.000  N
  C82      1.0000 0.86493  0.13507  0.25000  Biso   1.000  C
  H34      1.0000 0.89930  0.10070  0.25000  Biso   1.000  H
  N11      1.0000 0.76299  0.52598  0.25000  Biso   1.000  N
  C83      1.0000 0.86493  0.72986  0.25000  Biso   1.000  C
  H35      1.0000 0.89930  0.79860  0.25000  Biso   1.000  H
  N12      1.0000 0.47402  0.23701  0.25000  Biso   1.000  N
  C84      1.0000 0.27014  0.13507  0.25000  Biso   1.000  C
  H36      1.0000 0.20140  0.10070  0.25000  Biso   1.000  H
