data_image0
_cell_length_a       7.4219
_cell_length_b       31.5289
_cell_length_c       13.6682
_cell_angle_alpha    90
_cell_angle_beta     91.807
_cell_angle_gamma    90

_symmetry_space_group_name_H-M    "P 1"
_symmetry_int_tables_number       1

loop_
  _symmetry_equiv_pos_as_xyz
  'x, y, z'

loop_
  _atom_site_label
  _atom_site_occupancy
  _atom_site_fract_x
  _atom_site_fract_y
  _atom_site_fract_z
  _atom_site_thermal_displace_type
  _atom_site_B_iso_or_equiv
  _atom_site_type_symbol
  Be1      1.0000 0.19340  0.50667  0.88980  Biso   1.000  Be
  Be2      1.0000 0.81400  0.42782  0.76200  Biso   1.000  Be
  Be3      1.0000 0.17220  0.17301  0.73750  Biso   1.000  Be
  Be4      1.0000 0.64630  0.26514  0.88010  Biso   1.000  Be
  Be5      1.0000 0.32370  0.52340  0.60610  Biso   1.000  Be
  Be6      1.0000 0.40260  0.22093  0.11940  Biso   1.000  Be
  P1       1.0000 0.20499  0.50187  0.10207  Biso   1.000  P
  P2       1.0000 0.26181  0.08029  0.73159  Biso   1.000  P
  P3       1.0000 0.79447  0.20955  0.73623  Biso   1.000  P
  P4       1.0000 0.19555  0.45062  0.72499  Biso   1.000  P
  P5       1.0000 0.69473  0.48400  0.60613  Biso   1.000  P
  P6       1.0000 0.71314  0.33701  0.74225  Biso   1.000  P
  P7       1.0000 0.29640  0.21951  0.90867  Biso   1.000  P
  P8       1.0000 0.75050  0.26220  0.09228  Biso   1.000  P
  O1       1.0000 0.26510  0.49819  0.99863  Biso   1.000  O
  O2       1.0000 0.02190  0.48165  0.11885  Biso   1.000  O
  O3       1.0000 0.20890  0.54766  0.13554  Biso   1.000  O
  O4       1.0000 0.33520  0.47326  0.16763  Biso   1.000  O
  H1       1.0000 0.45670  0.48330  0.16250  Biso   1.000  H
  O5       1.0000 0.18470  0.12332  0.70564  Biso   1.000  O
  O6       1.0000 0.20420  0.06760  0.83307  Biso   1.000  O
  O7       1.0000 0.20230  0.04851  0.65290  Biso   1.000  O
  O8       1.0000 0.47310  0.08351  0.73177  Biso   1.000  O
  H2       1.0000 0.50810  0.06520  0.70470  Biso   1.000  H
  O9       1.0000 0.95890  0.18210  0.73053  Biso   1.000  O
  O10      1.0000 0.79310  0.23223  0.83476  Biso   1.000  O
  O11      1.0000 0.77030  0.23993  0.65066  Biso   1.000  O
  O12      1.0000 0.63470  0.17670  0.72883  Biso   1.000  O
  H3       1.0000 0.52590  0.18770  0.72310  Biso   1.000  H
  O13      1.0000 0.01740  0.42702  0.72057  Biso   1.000  O
  O14      1.0000 0.19340  0.48593  0.64828  Biso   1.000  O
  O15      1.0000 0.24740  0.46606  0.82595  Biso   1.000  O
  O16      1.0000 0.33610  0.41573  0.69569  Biso   1.000  O
  H4       1.0000 0.44450  0.42640  0.69660  Biso   1.000  H
  O17      1.0000 0.67770  0.44666  0.67640  Biso   1.000  O
  O18      1.0000 0.53350  0.51247  0.60945  Biso   1.000  O
  O19      1.0000 0.73460  0.46626  0.50582  Biso   1.000  O
  O20      1.0000 0.85420  0.51411  0.63947  Biso   1.000  O
  H5       1.0000 0.95050  0.50650  0.63560  Biso   1.000  H
  O21      1.0000 0.88040  0.31896  0.69536  Biso   1.000  O
  O22      1.0000 0.75070  0.38027  0.78367  Biso   1.000  O
  O23      1.0000 0.63760  0.30914  0.81985  Biso   1.000  O
  O24      1.0000 0.56260  0.34291  0.65899  Biso   1.000  O
  H6       1.0000 0.54150  0.32120  0.62250  Biso   1.000  H
  O25      1.0000 0.33400  0.20504  0.01312  Biso   1.000  O
  O26      1.0000 0.44560  0.24642  0.86913  Biso   1.000  O
  O27      1.0000 0.25340  0.18025  0.84772  Biso   1.000  O
  O28      1.0000 0.12930  0.25033  0.90555  Biso   1.000  O
  H7       1.0000 0.03040  0.24160  0.88650  Biso   1.000  H
  O29      1.0000 0.78940  0.29922  0.16127  Biso   1.000  O
  O30      1.0000 0.61200  0.23200  0.12981  Biso   1.000  O
  O31      1.0000 0.70830  0.27844  0.99060  Biso   1.000  O
  O32      1.0000 0.92880  0.23435  0.09069  Biso   1.000  O
  H8       1.0000 0.01780  0.24790  0.10100  Biso   1.000  H
  Be7      1.0000 0.30660  0.00667  0.61020  Biso   1.000  Be
  Be8      1.0000 0.68600  0.92782  0.73800  Biso   1.000  Be
  Be9      1.0000 0.32780  0.67301  0.76250  Biso   1.000  Be
  Be10     1.0000 0.85370  0.76514  0.61990  Biso   1.000  Be
  Be11     1.0000 0.17630  0.02340  0.89390  Biso   1.000  Be
  Be12     1.0000 0.09740  0.72093  0.38060  Biso   1.000  Be
  P9       1.0000 0.29501  0.00187  0.39793  Biso   1.000  P
  P10      1.0000 0.23819  0.58029  0.76841  Biso   1.000  P
  P11      1.0000 0.70553  0.70955  0.76377  Biso   1.000  P
  P12      1.0000 0.30445  0.95062  0.77501  Biso   1.000  P
  P13      1.0000 0.80527  0.98400  0.89387  Biso   1.000  P
  P14      1.0000 0.78686  0.83701  0.75775  Biso   1.000  P
  P15      1.0000 0.20360  0.71951  0.59133  Biso   1.000  P
  P16      1.0000 0.74950  0.76220  0.40772  Biso   1.000  P
  O33      1.0000 0.23490  0.99819  0.50137  Biso   1.000  O
  O34      1.0000 0.47810  0.98165  0.38115  Biso   1.000  O
  O35      1.0000 0.29110  0.04766  0.36446  Biso   1.000  O
  O36      1.0000 0.16480  0.97326  0.33237  Biso   1.000  O
  H9       1.0000 0.04330  0.98330  0.33750  Biso   1.000  H
  O37      1.0000 0.31530  0.62332  0.79436  Biso   1.000  O
  O38      1.0000 0.29580  0.56760  0.66693  Biso   1.000  O
  O39      1.0000 0.29770  0.54851  0.84710  Biso   1.000  O
  O40      1.0000 0.02690  0.58351  0.76823  Biso   1.000  O
  H10      1.0000 0.99190  0.56520  0.79530  Biso   1.000  H
  O41      1.0000 0.54110  0.68210  0.76947  Biso   1.000  O
  O42      1.0000 0.70690  0.73223  0.66524  Biso   1.000  O
  O43      1.0000 0.72970  0.73993  0.84934  Biso   1.000  O
  O44      1.0000 0.86530  0.67670  0.77117  Biso   1.000  O
  H11      1.0000 0.97410  0.68770  0.77690  Biso   1.000  H
  O45      1.0000 0.48260  0.92702  0.77943  Biso   1.000  O
  O46      1.0000 0.30660  0.98593  0.85172  Biso   1.000  O
  O47      1.0000 0.25260  0.96606  0.67405  Biso   1.000  O
  O48      1.0000 0.16390  0.91573  0.80431  Biso   1.000  O
  H12      1.0000 0.05550  0.92640  0.80340  Biso   1.000  H
  O49      1.0000 0.82230  0.94666  0.82360  Biso   1.000  O
  O50      1.0000 0.96650  0.01247  0.89055  Biso   1.000  O
  O51      1.0000 0.76540  0.96626  0.99418  Biso   1.000  O
  O52      1.0000 0.64580  0.01411  0.86053  Biso   1.000  O
  H13      1.0000 0.54950  0.00650  0.86440  Biso   1.000  H
  O53      1.0000 0.61960  0.81896  0.80464  Biso   1.000  O
  O54      1.0000 0.74930  0.88027  0.71633  Biso   1.000  O
  O55      1.0000 0.86240  0.80914  0.68015  Biso   1.000  O
  O56      1.0000 0.93740  0.84291  0.84101  Biso   1.000  O
  H14      1.0000 0.95850  0.82120  0.87750  Biso   1.000  H
  O57      1.0000 0.16600  0.70504  0.48688  Biso   1.000  O
  O58      1.0000 0.05440  0.74642  0.63087  Biso   1.000  O
  O59      1.0000 0.24660  0.68025  0.65228  Biso   1.000  O
  O60      1.0000 0.37070  0.75033  0.59445  Biso   1.000  O
  H15      1.0000 0.46960  0.74160  0.61350  Biso   1.000  H
  O61      1.0000 0.71060  0.79922  0.33873  Biso   1.000  O
  O62      1.0000 0.88800  0.73200  0.37019  Biso   1.000  O
  O63      1.0000 0.79170  0.77844  0.50940  Biso   1.000  O
  O64      1.0000 0.57120  0.73435  0.40931  Biso   1.000  O
  H16      1.0000 0.48220  0.74790  0.39900  Biso   1.000  H
  Be13     1.0000 0.80660  0.49333  0.11020  Biso   1.000  Be
  Be14     1.0000 0.18600  0.57218  0.23800  Biso   1.000  Be
  Be15     1.0000 0.82780  0.82699  0.26250  Biso   1.000  Be
  Be16     1.0000 0.35370  0.73486  0.11990  Biso   1.000  Be
  Be17     1.0000 0.67630  0.47660  0.39390  Biso   1.000  Be
  Be18     1.0000 0.59740  0.77907  0.88060  Biso   1.000  Be
  P17      1.0000 0.79501  0.49813  0.89793  Biso   1.000  P
  P18      1.0000 0.73819  0.91971  0.26841  Biso   1.000  P
  P19      1.0000 0.20553  0.79045  0.26377  Biso   1.000  P
  P20      1.0000 0.80445  0.54938  0.27501  Biso   1.000  P
  P21      1.0000 0.30527  0.51600  0.39387  Biso   1.000  P
  P22      1.0000 0.28686  0.66299  0.25775  Biso   1.000  P
  P23      1.0000 0.70360  0.78049  0.09133  Biso   1.000  P
  P24      1.0000 0.24950  0.73780  0.90772  Biso   1.000  P
  O65      1.0000 0.73490  0.50181  0.00137  Biso   1.000  O
  O66      1.0000 0.97810  0.51835  0.88115  Biso   1.000  O
  O67      1.0000 0.79110  0.45234  0.86446  Biso   1.000  O
  O68      1.0000 0.66480  0.52674  0.83237  Biso   1.000  O
  H17      1.0000 0.54330  0.51670  0.83750  Biso   1.000  H
  O69      1.0000 0.81530  0.87668  0.29436  Biso   1.000  O
  O70      1.0000 0.79580  0.93240  0.16693  Biso   1.000  O
  O71      1.0000 0.79770  0.95149  0.34710  Biso   1.000  O
  O72      1.0000 0.52690  0.91649  0.26823  Biso   1.000  O
  H18      1.0000 0.49190  0.93480  0.29530  Biso   1.000  H
  O73      1.0000 0.04110  0.81790  0.26947  Biso   1.000  O
  O74      1.0000 0.20690  0.76777  0.16524  Biso   1.000  O
  O75      1.0000 0.22970  0.76007  0.34934  Biso   1.000  O
  O76      1.0000 0.36530  0.82330  0.27117  Biso   1.000  O
  H19      1.0000 0.47410  0.81230  0.27690  Biso   1.000  H
  O77      1.0000 0.98260  0.57298  0.27943  Biso   1.000  O
  O78      1.0000 0.80660  0.51407  0.35172  Biso   1.000  O
  O79      1.0000 0.75260  0.53394  0.17405  Biso   1.000  O
  O80      1.0000 0.66390  0.58427  0.30431  Biso   1.000  O
  H20      1.0000 0.55550  0.57360  0.30340  Biso   1.000  H
  O81      1.0000 0.32230  0.55334  0.32360  Biso   1.000  O
  O82      1.0000 0.46650  0.48753  0.39055  Biso   1.000  O
  O83      1.0000 0.26540  0.53374  0.49418  Biso   1.000  O
  O84      1.0000 0.14580  0.48589  0.36053  Biso   1.000  O
  H21      1.0000 0.04950  0.49350  0.36440  Biso   1.000  H
  O85      1.0000 0.11960  0.68104  0.30464  Biso   1.000  O
  O86      1.0000 0.24930  0.61973  0.21633  Biso   1.000  O
  O87      1.0000 0.36240  0.69086  0.18015  Biso   1.000  O
  O88      1.0000 0.43740  0.65709  0.34101  Biso   1.000  O
  H22      1.0000 0.45850  0.67880  0.37750  Biso   1.000  H
  O89      1.0000 0.66600  0.79496  0.98688  Biso   1.000  O
  O90      1.0000 0.55440  0.75358  0.13087  Biso   1.000  O
  O91      1.0000 0.74660  0.81975  0.15228  Biso   1.000  O
  O92      1.0000 0.87070  0.74967  0.09445  Biso   1.000  O
  H23      1.0000 0.96960  0.75840  0.11350  Biso   1.000  H
  O93      1.0000 0.21060  0.70078  0.83873  Biso   1.000  O
  O94      1.0000 0.38800  0.76800  0.87019  Biso   1.000  O
  O95      1.0000 0.29170  0.72156  0.00940  Biso   1.000  O
  O96      1.0000 0.07120  0.76565  0.90931  Biso   1.000  O
  H24      1.0000 0.98220  0.75210  0.89900  Biso   1.000  H
  Be19     1.0000 0.69340  0.99333  0.38980  Biso   1.000  Be
  Be20     1.0000 0.31400  0.07218  0.26200  Biso   1.000  Be
  Be21     1.0000 0.67220  0.32699  0.23750  Biso   1.000  Be
  Be22     1.0000 0.14630  0.23486  0.38010  Biso   1.000  Be
  Be23     1.0000 0.82370  0.97660  0.10610  Biso   1.000  Be
  Be24     1.0000 0.90260  0.27907  0.61940  Biso   1.000  Be
  P25      1.0000 0.70499  0.99813  0.60207  Biso   1.000  P
  P26      1.0000 0.76181  0.41971  0.23159  Biso   1.000  P
  P27      1.0000 0.29447  0.29045  0.23623  Biso   1.000  P
  P28      1.0000 0.69555  0.04938  0.22499  Biso   1.000  P
  P29      1.0000 0.19473  0.01600  0.10613  Biso   1.000  P
  P30      1.0000 0.21314  0.16299  0.24225  Biso   1.000  P
  P31      1.0000 0.79640  0.28049  0.40867  Biso   1.000  P
  P32      1.0000 0.25050  0.23780  0.59228  Biso   1.000  P
  O97      1.0000 0.76510  0.00181  0.49863  Biso   1.000  O
  O98      1.0000 0.52190  0.01835  0.61885  Biso   1.000  O
  O99      1.0000 0.70890  0.95234  0.63554  Biso   1.000  O
  O100     1.0000 0.83520  0.02674  0.66763  Biso   1.000  O
  H25      1.0000 0.95670  0.01670  0.66250  Biso   1.000  H
  O101     1.0000 0.68470  0.37668  0.20564  Biso   1.000  O
  O102     1.0000 0.70420  0.43240  0.33307  Biso   1.000  O
  O103     1.0000 0.70230  0.45149  0.15290  Biso   1.000  O
  O104     1.0000 0.97310  0.41649  0.23177  Biso   1.000  O
  H26      1.0000 0.00810  0.43480  0.20470  Biso   1.000  H
  O105     1.0000 0.45890  0.31790  0.23053  Biso   1.000  O
  O106     1.0000 0.29310  0.26777  0.33476  Biso   1.000  O
  O107     1.0000 0.27030  0.26007  0.15066  Biso   1.000  O
  O108     1.0000 0.13470  0.32330  0.22883  Biso   1.000  O
  H27      1.0000 0.02590  0.31230  0.22310  Biso   1.000  H
  O109     1.0000 0.51740  0.07298  0.22057  Biso   1.000  O
  O110     1.0000 0.69340  0.01407  0.14828  Biso   1.000  O
  O111     1.0000 0.74740  0.03394  0.32595  Biso   1.000  O
  O112     1.0000 0.83610  0.08427  0.19569  Biso   1.000  O
  H28      1.0000 0.94450  0.07360  0.19660  Biso   1.000  H
  O113     1.0000 0.17770  0.05334  0.17640  Biso   1.000  O
  O114     1.0000 0.03350  0.98753  0.10945  Biso   1.000  O
  O115     1.0000 0.23460  0.03374  0.00582  Biso   1.000  O
  O116     1.0000 0.35420  0.98589  0.13947  Biso   1.000  O
  H29      1.0000 0.45050  0.99350  0.13560  Biso   1.000  H
  O117     1.0000 0.38040  0.18104  0.19536  Biso   1.000  O
  O118     1.0000 0.25070  0.11973  0.28367  Biso   1.000  O
  O119     1.0000 0.13760  0.19086  0.31985  Biso   1.000  O
  O120     1.0000 0.06260  0.15709  0.15899  Biso   1.000  O
  H30      1.0000 0.04150  0.17880  0.12250  Biso   1.000  H
  O121     1.0000 0.83400  0.29496  0.51312  Biso   1.000  O
  O122     1.0000 0.94560  0.25358  0.36913  Biso   1.000  O
  O123     1.0000 0.75340  0.31975  0.34772  Biso   1.000  O
  O124     1.0000 0.62930  0.24967  0.40555  Biso   1.000  O
  H31      1.0000 0.53040  0.25840  0.38650  Biso   1.000  H
  O125     1.0000 0.28940  0.20078  0.66127  Biso   1.000  O
  O126     1.0000 0.11200  0.26800  0.62981  Biso   1.000  O
  O127     1.0000 0.20830  0.22156  0.49060  Biso   1.000  O
  O128     1.0000 0.42880  0.26565  0.59069  Biso   1.000  O
  H32      1.0000 0.51780  0.25210  0.60100  Biso   1.000  H
