data_image0
_cell_length_a       33.2737
_cell_length_b       9.8531
_cell_length_c       18.218
_cell_angle_alpha    90
_cell_angle_beta     90
_cell_angle_gamma    90

_symmetry_space_group_name_H-M    "P 1"
_symmetry_int_tables_number       1

loop_
  _symmetry_equiv_pos_as_xyz
  'x, y, z'

loop_
  _atom_site_label
  _atom_site_occupancy
  _atom_site_fract_x
  _atom_site_fract_y
  _atom_site_fract_z
  _atom_site_thermal_displace_type
  _atom_site_B_iso_or_equiv
  _atom_site_type_symbol
  Zn1      1.0000 0.59650  0.44929  0.49513  Biso   1.000  Zn
  C1       1.0000 0.67388  0.39140  0.49250  Biso   1.000  C
  C2       1.0000 0.71329  0.31730  0.49620  Biso   1.000  C
  C3       1.0000 0.74900  0.38680  0.49630  Biso   1.000  C
  H1       1.0000 0.74860  0.48120  0.49640  Biso   1.000  H
  C4       1.0000 0.71467  0.17910  0.49610  Biso   1.000  C
  H2       1.0000 0.69090  0.12930  0.49590  Biso   1.000  H
  C5       1.0000 0.54670  0.23660  0.46110  Biso   1.000  C
  C6       1.0000 0.52136  0.11610  0.48090  Biso   1.000  C
  C7       1.0000 0.51956  0.00650  0.43330  Biso   1.000  C
  H3       1.0000 0.53270  0.01070  0.38830  Biso   1.000  H
  C8       1.0000 0.49839  0.89080  0.45210  Biso   1.000  C
  H4       1.0000 0.49740  0.81770  0.41990  Biso   1.000  H
  C9       1.0000 0.55704  0.59130  0.37813  Biso   1.000  C
  C10      1.0000 0.55955  0.66590  0.30620  Biso   1.000  C
  C11      1.0000 0.59604  0.71290  0.27960  Biso   1.000  C
  H5       1.0000 0.61950  0.69720  0.30590  Biso   1.000  H
  C12      1.0000 0.52461  0.69040  0.26650  Biso   1.000  C
  H6       1.0000 0.50000  0.66020  0.28440  Biso   1.000  H
  C13      1.0000 0.59751  0.78260  0.21410  Biso   1.000  C
  H7       1.0000 0.62210  0.81370  0.19660  Biso   1.000  H
  C14      1.0000 0.52628  0.75910  0.20090  Biso   1.000  C
  H8       1.0000 0.50280  0.77360  0.17430  Biso   1.000  H
  C15      1.0000 0.56275  0.80730  0.17391  Biso   1.000  C
  C16      1.0000 0.56399  0.88140  0.10276  Biso   1.000  C
  O1       1.0000 0.64277  0.32640  0.50291  Biso   1.000  O
  O2       1.0000 0.67347  0.51310  0.47880  Biso   1.000  O
  O3       1.0000 0.54650  0.33780  0.50741  Biso   1.000  O
  O4       1.0000 0.56736  0.23650  0.40584  Biso   1.000  O
  O5       1.0000 0.59030  0.56190  0.40781  Biso   1.000  O
  O6       1.0000 0.52308  0.56520  0.40220  Biso   1.000  O
  O7       1.0000 0.59542  0.95020  0.08965  Biso   1.000  O
  O8       1.0000 0.53485  0.87060  0.06079  Biso   1.000  O
  Zn2      1.0000 0.90350  0.05071  0.49513  Biso   1.000  Zn
  C17      1.0000 0.82612  0.10860  0.49250  Biso   1.000  C
  C18      1.0000 0.78671  0.18270  0.49620  Biso   1.000  C
  C19      1.0000 0.75100  0.11320  0.49630  Biso   1.000  C
  H9       1.0000 0.75140  0.01880  0.49640  Biso   1.000  H
  C20      1.0000 0.78533  0.32090  0.49610  Biso   1.000  C
  H10      1.0000 0.80910  0.37070  0.49590  Biso   1.000  H
  C21      1.0000 0.95330  0.26340  0.46110  Biso   1.000  C
  C22      1.0000 0.97864  0.38390  0.48090  Biso   1.000  C
  C23      1.0000 0.98044  0.49350  0.43330  Biso   1.000  C
  H11      1.0000 0.96730  0.48930  0.38830  Biso   1.000  H
  C24      1.0000 0.00161  0.60920  0.45210  Biso   1.000  C
  H12      1.0000 0.00260  0.68230  0.41990  Biso   1.000  H
  C25      1.0000 0.94296  0.90870  0.37813  Biso   1.000  C
  C26      1.0000 0.94045  0.83410  0.30620  Biso   1.000  C
  C27      1.0000 0.90396  0.78710  0.27960  Biso   1.000  C
  H13      1.0000 0.88050  0.80280  0.30590  Biso   1.000  H
  C28      1.0000 0.97539  0.80960  0.26650  Biso   1.000  C
  H14      1.0000 0.00000  0.83980  0.28440  Biso   1.000  H
  C29      1.0000 0.90249  0.71740  0.21410  Biso   1.000  C
  H15      1.0000 0.87790  0.68630  0.19660  Biso   1.000  H
  C30      1.0000 0.97372  0.74090  0.20090  Biso   1.000  C
  H16      1.0000 0.99720  0.72640  0.17430  Biso   1.000  H
  C31      1.0000 0.93725  0.69270  0.17391  Biso   1.000  C
  C32      1.0000 0.93601  0.61860  0.10276  Biso   1.000  C
  O9       1.0000 0.85723  0.17360  0.50291  Biso   1.000  O
  O10      1.0000 0.82653  0.98690  0.47880  Biso   1.000  O
  O11      1.0000 0.95350  0.16220  0.50741  Biso   1.000  O
  O12      1.0000 0.93264  0.26350  0.40584  Biso   1.000  O
  O13      1.0000 0.90970  0.93810  0.40781  Biso   1.000  O
  O14      1.0000 0.97692  0.93480  0.40220  Biso   1.000  O
  O15      1.0000 0.90458  0.54980  0.08965  Biso   1.000  O
  O16      1.0000 0.96515  0.62940  0.06079  Biso   1.000  O
  Zn3      1.0000 0.40350  0.94929  0.00487  Biso   1.000  Zn
  C33      1.0000 0.32612  0.89140  0.00750  Biso   1.000  C
  C34      1.0000 0.28671  0.81730  0.00380  Biso   1.000  C
  C35      1.0000 0.25100  0.88680  0.00370  Biso   1.000  C
  H17      1.0000 0.25140  0.98120  0.00360  Biso   1.000  H
  C36      1.0000 0.28533  0.67910  0.00390  Biso   1.000  C
  H18      1.0000 0.30910  0.62930  0.00410  Biso   1.000  H
  C37      1.0000 0.45330  0.73660  0.03890  Biso   1.000  C
  C38      1.0000 0.47864  0.61610  0.01910  Biso   1.000  C
  C39      1.0000 0.48044  0.50650  0.06670  Biso   1.000  C
  H19      1.0000 0.46730  0.51070  0.11170  Biso   1.000  H
  C40      1.0000 0.50161  0.39080  0.04790  Biso   1.000  C
  H20      1.0000 0.50260  0.31770  0.08010  Biso   1.000  H
  C41      1.0000 0.44296  0.09130  0.12187  Biso   1.000  C
  C42      1.0000 0.44045  0.16590  0.19380  Biso   1.000  C
  C43      1.0000 0.40396  0.21290  0.22040  Biso   1.000  C
  H21      1.0000 0.38050  0.19720  0.19410  Biso   1.000  H
  C44      1.0000 0.47539  0.19040  0.23350  Biso   1.000  C
  H22      1.0000 0.50000  0.16020  0.21560  Biso   1.000  H
  C45      1.0000 0.40249  0.28260  0.28590  Biso   1.000  C
  H23      1.0000 0.37790  0.31370  0.30340  Biso   1.000  H
  C46      1.0000 0.47372  0.25910  0.29910  Biso   1.000  C
  H24      1.0000 0.49720  0.27360  0.32570  Biso   1.000  H
  C47      1.0000 0.43725  0.30730  0.32609  Biso   1.000  C
  C48      1.0000 0.43601  0.38140  0.39724  Biso   1.000  C
  O17      1.0000 0.35723  0.82640  0.99709  Biso   1.000  O
  O18      1.0000 0.32653  0.01310  0.02120  Biso   1.000  O
  O19      1.0000 0.45350  0.83780  0.99259  Biso   1.000  O
  O20      1.0000 0.43264  0.73650  0.09416  Biso   1.000  O
  O21      1.0000 0.40970  0.06190  0.09219  Biso   1.000  O
  O22      1.0000 0.47692  0.06520  0.09780  Biso   1.000  O
  O23      1.0000 0.40458  0.45020  0.41035  Biso   1.000  O
  O24      1.0000 0.46515  0.37060  0.43921  Biso   1.000  O
  Zn4      1.0000 0.09650  0.55071  0.00487  Biso   1.000  Zn
  C49      1.0000 0.17388  0.60860  0.00750  Biso   1.000  C
  C50      1.0000 0.21329  0.68270  0.00380  Biso   1.000  C
  C51      1.0000 0.24900  0.61320  0.00370  Biso   1.000  C
  H25      1.0000 0.24860  0.51880  0.00360  Biso   1.000  H
  C52      1.0000 0.21467  0.82090  0.00390  Biso   1.000  C
  H26      1.0000 0.19090  0.87070  0.00410  Biso   1.000  H
  C53      1.0000 0.04670  0.76340  0.03890  Biso   1.000  C
  C54      1.0000 0.02136  0.88390  0.01910  Biso   1.000  C
  C55      1.0000 0.01956  0.99350  0.06670  Biso   1.000  C
  H27      1.0000 0.03270  0.98930  0.11170  Biso   1.000  H
  C56      1.0000 0.99839  0.10920  0.04790  Biso   1.000  C
  H28      1.0000 0.99740  0.18230  0.08010  Biso   1.000  H
  C57      1.0000 0.05704  0.40870  0.12187  Biso   1.000  C
  C58      1.0000 0.05955  0.33410  0.19380  Biso   1.000  C
  C59      1.0000 0.09604  0.28710  0.22040  Biso   1.000  C
  H29      1.0000 0.11950  0.30280  0.19410  Biso   1.000  H
  C60      1.0000 0.02461  0.30960  0.23350  Biso   1.000  C
  H30      1.0000 0.00000  0.33980  0.21560  Biso   1.000  H
  C61      1.0000 0.09751  0.21740  0.28590  Biso   1.000  C
  H31      1.0000 0.12210  0.18630  0.30340  Biso   1.000  H
  C62      1.0000 0.02628  0.24090  0.29910  Biso   1.000  C
  H32      1.0000 0.00280  0.22640  0.32570  Biso   1.000  H
  C63      1.0000 0.06275  0.19270  0.32609  Biso   1.000  C
  C64      1.0000 0.06399  0.11860  0.39724  Biso   1.000  C
  O25      1.0000 0.14277  0.67360  0.99709  Biso   1.000  O
  O26      1.0000 0.17347  0.48690  0.02120  Biso   1.000  O
  O27      1.0000 0.04650  0.66220  0.99259  Biso   1.000  O
  O28      1.0000 0.06736  0.76350  0.09416  Biso   1.000  O
  O29      1.0000 0.09030  0.43810  0.09219  Biso   1.000  O
  O30      1.0000 0.02308  0.43480  0.09780  Biso   1.000  O
  O31      1.0000 0.09542  0.04980  0.41035  Biso   1.000  O
  O32      1.0000 0.03485  0.12940  0.43921  Biso   1.000  O
  Zn5      1.0000 0.40350  0.55071  0.50487  Biso   1.000  Zn
  C65      1.0000 0.32612  0.60860  0.50750  Biso   1.000  C
  C66      1.0000 0.28671  0.68270  0.50380  Biso   1.000  C
  C67      1.0000 0.25100  0.61320  0.50370  Biso   1.000  C
  H33      1.0000 0.25140  0.51880  0.50360  Biso   1.000  H
  C68      1.0000 0.28533  0.82090  0.50390  Biso   1.000  C
  H34      1.0000 0.30910  0.87070  0.50410  Biso   1.000  H
  C69      1.0000 0.45330  0.76340  0.53890  Biso   1.000  C
  C70      1.0000 0.47864  0.88390  0.51910  Biso   1.000  C
  C71      1.0000 0.48044  0.99350  0.56670  Biso   1.000  C
  H35      1.0000 0.46730  0.98930  0.61170  Biso   1.000  H
  C72      1.0000 0.50161  0.10920  0.54790  Biso   1.000  C
  H36      1.0000 0.50260  0.18230  0.58010  Biso   1.000  H
  C73      1.0000 0.44296  0.40870  0.62187  Biso   1.000  C
  C74      1.0000 0.44045  0.33410  0.69380  Biso   1.000  C
  C75      1.0000 0.40396  0.28710  0.72040  Biso   1.000  C
  H37      1.0000 0.38050  0.30280  0.69410  Biso   1.000  H
  C76      1.0000 0.47539  0.30960  0.73350  Biso   1.000  C
  H38      1.0000 0.50000  0.33980  0.71560  Biso   1.000  H
  C77      1.0000 0.40249  0.21740  0.78590  Biso   1.000  C
  H39      1.0000 0.37790  0.18630  0.80340  Biso   1.000  H
  C78      1.0000 0.47372  0.24090  0.79910  Biso   1.000  C
  H40      1.0000 0.49720  0.22640  0.82570  Biso   1.000  H
  C79      1.0000 0.43725  0.19270  0.82609  Biso   1.000  C
  C80      1.0000 0.43601  0.11860  0.89724  Biso   1.000  C
  O33      1.0000 0.35723  0.67360  0.49709  Biso   1.000  O
  O34      1.0000 0.32653  0.48690  0.52120  Biso   1.000  O
  O35      1.0000 0.45350  0.66220  0.49259  Biso   1.000  O
  O36      1.0000 0.43264  0.76350  0.59416  Biso   1.000  O
  O37      1.0000 0.40970  0.43810  0.59219  Biso   1.000  O
  O38      1.0000 0.47692  0.43480  0.59780  Biso   1.000  O
  O39      1.0000 0.40458  0.04980  0.91035  Biso   1.000  O
  O40      1.0000 0.46515  0.12940  0.93921  Biso   1.000  O
  Zn6      1.0000 0.09650  0.94929  0.50487  Biso   1.000  Zn
  C81      1.0000 0.17388  0.89140  0.50750  Biso   1.000  C
  C82      1.0000 0.21329  0.81730  0.50380  Biso   1.000  C
  C83      1.0000 0.24900  0.88680  0.50370  Biso   1.000  C
  H41      1.0000 0.24860  0.98120  0.50360  Biso   1.000  H
  C84      1.0000 0.21467  0.67910  0.50390  Biso   1.000  C
  H42      1.0000 0.19090  0.62930  0.50410  Biso   1.000  H
  C85      1.0000 0.04670  0.73660  0.53890  Biso   1.000  C
  C86      1.0000 0.02136  0.61610  0.51910  Biso   1.000  C
  C87      1.0000 0.01956  0.50650  0.56670  Biso   1.000  C
  H43      1.0000 0.03270  0.51070  0.61170  Biso   1.000  H
  C88      1.0000 0.99839  0.39080  0.54790  Biso   1.000  C
  H44      1.0000 0.99740  0.31770  0.58010  Biso   1.000  H
  C89      1.0000 0.05704  0.09130  0.62187  Biso   1.000  C
  C90      1.0000 0.05955  0.16590  0.69380  Biso   1.000  C
  C91      1.0000 0.09604  0.21290  0.72040  Biso   1.000  C
  H45      1.0000 0.11950  0.19720  0.69410  Biso   1.000  H
  C92      1.0000 0.02461  0.19040  0.73350  Biso   1.000  C
  H46      1.0000 0.00000  0.16020  0.71560  Biso   1.000  H
  C93      1.0000 0.09751  0.28260  0.78590  Biso   1.000  C
  H47      1.0000 0.12210  0.31370  0.80340  Biso   1.000  H
  C94      1.0000 0.02628  0.25910  0.79910  Biso   1.000  C
  H48      1.0000 0.00280  0.27360  0.82570  Biso   1.000  H
  C95      1.0000 0.06275  0.30730  0.82609  Biso   1.000  C
  C96      1.0000 0.06399  0.38140  0.89724  Biso   1.000  C
  O41      1.0000 0.14277  0.82640  0.49709  Biso   1.000  O
  O42      1.0000 0.17347  0.01310  0.52120  Biso   1.000  O
  O43      1.0000 0.04650  0.83780  0.49259  Biso   1.000  O
  O44      1.0000 0.06736  0.73650  0.59416  Biso   1.000  O
  O45      1.0000 0.09030  0.06190  0.59219  Biso   1.000  O
  O46      1.0000 0.02308  0.06520  0.59780  Biso   1.000  O
  O47      1.0000 0.09542  0.45020  0.91035  Biso   1.000  O
  O48      1.0000 0.03485  0.37060  0.93921  Biso   1.000  O
  Zn7      1.0000 0.59650  0.05071  0.99513  Biso   1.000  Zn
  C97      1.0000 0.67388  0.10860  0.99250  Biso   1.000  C
  C98      1.0000 0.71329  0.18270  0.99620  Biso   1.000  C
  C99      1.0000 0.74900  0.11320  0.99630  Biso   1.000  C
  H49      1.0000 0.74860  0.01880  0.99640  Biso   1.000  H
  C100     1.0000 0.71467  0.32090  0.99610  Biso   1.000  C
  H50      1.0000 0.69090  0.37070  0.99590  Biso   1.000  H
  C101     1.0000 0.54670  0.26340  0.96110  Biso   1.000  C
  C102     1.0000 0.52136  0.38390  0.98090  Biso   1.000  C
  C103     1.0000 0.51956  0.49350  0.93330  Biso   1.000  C
  H51      1.0000 0.53270  0.48930  0.88830  Biso   1.000  H
  C104     1.0000 0.49839  0.60920  0.95210  Biso   1.000  C
  H52      1.0000 0.49740  0.68230  0.91990  Biso   1.000  H
  C105     1.0000 0.55704  0.90870  0.87813  Biso   1.000  C
  C106     1.0000 0.55955  0.83410  0.80620  Biso   1.000  C
  C107     1.0000 0.59604  0.78710  0.77960  Biso   1.000  C
  H53      1.0000 0.61950  0.80280  0.80590  Biso   1.000  H
  C108     1.0000 0.52461  0.80960  0.76650  Biso   1.000  C
  H54      1.0000 0.50000  0.83980  0.78440  Biso   1.000  H
  C109     1.0000 0.59751  0.71740  0.71410  Biso   1.000  C
  H55      1.0000 0.62210  0.68630  0.69660  Biso   1.000  H
  C110     1.0000 0.52628  0.74090  0.70090  Biso   1.000  C
  H56      1.0000 0.50280  0.72640  0.67430  Biso   1.000  H
  C111     1.0000 0.56275  0.69270  0.67391  Biso   1.000  C
  C112     1.0000 0.56399  0.61860  0.60276  Biso   1.000  C
  O49      1.0000 0.64277  0.17360  0.00291  Biso   1.000  O
  O50      1.0000 0.67347  0.98690  0.97880  Biso   1.000  O
  O51      1.0000 0.54650  0.16220  0.00741  Biso   1.000  O
  O52      1.0000 0.56736  0.26350  0.90584  Biso   1.000  O
  O53      1.0000 0.59030  0.93810  0.90781  Biso   1.000  O
  O54      1.0000 0.52308  0.93480  0.90220  Biso   1.000  O
  O55      1.0000 0.59542  0.54980  0.58965  Biso   1.000  O
  O56      1.0000 0.53485  0.62940  0.56079  Biso   1.000  O
  Zn8      1.0000 0.90350  0.44929  0.99513  Biso   1.000  Zn
  C113     1.0000 0.82612  0.39140  0.99250  Biso   1.000  C
  C114     1.0000 0.78671  0.31730  0.99620  Biso   1.000  C
  C115     1.0000 0.75100  0.38680  0.99630  Biso   1.000  C
  H57      1.0000 0.75140  0.48120  0.99640  Biso   1.000  H
  C116     1.0000 0.78533  0.17910  0.99610  Biso   1.000  C
  H58      1.0000 0.80910  0.12930  0.99590  Biso   1.000  H
  C117     1.0000 0.95330  0.23660  0.96110  Biso   1.000  C
  C118     1.0000 0.97864  0.11610  0.98090  Biso   1.000  C
  C119     1.0000 0.98044  0.00650  0.93330  Biso   1.000  C
  H59      1.0000 0.96730  0.01070  0.88830  Biso   1.000  H
  C120     1.0000 0.00161  0.89080  0.95210  Biso   1.000  C
  H60      1.0000 0.00260  0.81770  0.91990  Biso   1.000  H
  C121     1.0000 0.94296  0.59130  0.87813  Biso   1.000  C
  C122     1.0000 0.94045  0.66590  0.80620  Biso   1.000  C
  C123     1.0000 0.90396  0.71290  0.77960  Biso   1.000  C
  H61      1.0000 0.88050  0.69720  0.80590  Biso   1.000  H
  C124     1.0000 0.97539  0.69040  0.76650  Biso   1.000  C
  H62      1.0000 0.00000  0.66020  0.78440  Biso   1.000  H
  C125     1.0000 0.90249  0.78260  0.71410  Biso   1.000  C
  H63      1.0000 0.87790  0.81370  0.69660  Biso   1.000  H
  C126     1.0000 0.97372  0.75910  0.70090  Biso   1.000  C
  H64      1.0000 0.99720  0.77360  0.67430  Biso   1.000  H
  C127     1.0000 0.93725  0.80730  0.67391  Biso   1.000  C
  C128     1.0000 0.93601  0.88140  0.60276  Biso   1.000  C
  O57      1.0000 0.85723  0.32640  0.00291  Biso   1.000  O
  O58      1.0000 0.82653  0.51310  0.97880  Biso   1.000  O
  O59      1.0000 0.95350  0.33780  0.00741  Biso   1.000  O
  O60      1.0000 0.93264  0.23650  0.90584  Biso   1.000  O
  O61      1.0000 0.90970  0.56190  0.90781  Biso   1.000  O
  O62      1.0000 0.97692  0.56520  0.90220  Biso   1.000  O
  O63      1.0000 0.90458  0.95020  0.58965  Biso   1.000  O
  O64      1.0000 0.96515  0.87060  0.56079  Biso   1.000  O
  Zn9      1.0000 0.50000  0.50000  0.50000  Biso   1.000  Zn
  Zn10     1.0000 0.00000  0.00000  0.50000  Biso   1.000  Zn
  Zn11     1.0000 0.50000  0.00000  0.00000  Biso   1.000  Zn
  Zn12     1.0000 0.00000  0.50000  0.00000  Biso   1.000  Zn
