data_image0
_cell_length_a       25.8561
_cell_length_b       25.8561
_cell_length_c       6.7119
_cell_angle_alpha    90
_cell_angle_beta     90
_cell_angle_gamma    120

_symmetry_space_group_name_H-M    "P 1"
_symmetry_int_tables_number       1

loop_
  _symmetry_equiv_pos_as_xyz
  'x, y, z'

loop_
  _atom_site_label
  _atom_site_occupancy
  _atom_site_fract_x
  _atom_site_fract_y
  _atom_site_fract_z
  _atom_site_thermal_displace_type
  _atom_site_B_iso_or_equiv
  _atom_site_type_symbol
  Ni1      1.0000 0.38377  0.34887  0.14453  Biso   1.000  Ni
  C1       1.0000 0.32325  0.20445  0.28777  Biso   1.000  C
  C2       1.0000 0.33607  0.21763  0.08652  Biso   1.000  C
  C3       1.0000 0.34615  0.17985  0.96542  Biso   1.000  C
  H1       1.0000 0.35610  0.19009  0.80911  Biso   1.000  H
  C4       1.0000 0.31241  0.24508  0.41801  Biso   1.000  C
  O1       1.0000 0.31488  0.29103  0.34580  Biso   1.000  O
  O2       1.0000 0.30086  0.23320  0.59946  Biso   1.000  O
  O3       1.0000 0.33872  0.26699  0.00890  Biso   1.000  O
  Ni2      1.0000 0.05044  0.68220  0.47786  Biso   1.000  Ni
  C5       1.0000 0.98992  0.53778  0.62110  Biso   1.000  C
  C6       1.0000 0.00274  0.55096  0.41985  Biso   1.000  C
  C7       1.0000 0.01282  0.51318  0.29875  Biso   1.000  C
  H2       1.0000 0.02277  0.52342  0.14244  Biso   1.000  H
  C8       1.0000 0.97908  0.57841  0.75134  Biso   1.000  C
  O4       1.0000 0.98155  0.62436  0.67913  Biso   1.000  O
  O5       1.0000 0.96753  0.56653  0.93279  Biso   1.000  O
  O6       1.0000 0.00539  0.60032  0.34223  Biso   1.000  O
  Ni3      1.0000 0.71710  0.01554  0.81120  Biso   1.000  Ni
  C9       1.0000 0.65658  0.87112  0.95444  Biso   1.000  C
  C10      1.0000 0.66940  0.88430  0.75319  Biso   1.000  C
  C11      1.0000 0.67948  0.84652  0.63209  Biso   1.000  C
  H3       1.0000 0.68943  0.85676  0.47578  Biso   1.000  H
  C12      1.0000 0.64574  0.91175  0.08468  Biso   1.000  C
  O7       1.0000 0.64821  0.95770  0.01247  Biso   1.000  O
  O8       1.0000 0.63419  0.89987  0.26613  Biso   1.000  O
  O9       1.0000 0.67205  0.93366  0.67557  Biso   1.000  O
  Ni4      1.0000 0.65113  0.03490  0.14453  Biso   1.000  Ni
  C13      1.0000 0.79555  0.11880  0.28777  Biso   1.000  C
  C14      1.0000 0.78237  0.11844  0.08652  Biso   1.000  C
  C15      1.0000 0.82015  0.16630  0.96542  Biso   1.000  C
  H4       1.0000 0.80991  0.16601  0.80911  Biso   1.000  H
  C16      1.0000 0.75492  0.06733  0.41801  Biso   1.000  C
  O10      1.0000 0.70897  0.02385  0.34580  Biso   1.000  O
  O11      1.0000 0.76680  0.06766  0.59946  Biso   1.000  O
  O12      1.0000 0.73301  0.07173  0.00890  Biso   1.000  O
  Ni5      1.0000 0.31780  0.36823  0.47786  Biso   1.000  Ni
  C17      1.0000 0.46222  0.45213  0.62110  Biso   1.000  C
  C18      1.0000 0.44904  0.45177  0.41985  Biso   1.000  C
  C19      1.0000 0.48682  0.49963  0.29875  Biso   1.000  C
  H5       1.0000 0.47658  0.49934  0.14244  Biso   1.000  H
  C20      1.0000 0.42159  0.40066  0.75134  Biso   1.000  C
  O13      1.0000 0.37564  0.35718  0.67913  Biso   1.000  O
  O14      1.0000 0.43347  0.40099  0.93279  Biso   1.000  O
  O15      1.0000 0.39968  0.40506  0.34223  Biso   1.000  O
  Ni6      1.0000 0.98446  0.70157  0.81120  Biso   1.000  Ni
  C21      1.0000 0.12888  0.78547  0.95444  Biso   1.000  C
  C22      1.0000 0.11570  0.78511  0.75319  Biso   1.000  C
  C23      1.0000 0.15348  0.83297  0.63209  Biso   1.000  C
  H6       1.0000 0.14324  0.83268  0.47578  Biso   1.000  H
  C24      1.0000 0.08825  0.73400  0.08468  Biso   1.000  C
  O16      1.0000 0.04230  0.69052  0.01247  Biso   1.000  O
  O17      1.0000 0.10013  0.73433  0.26613  Biso   1.000  O
  O18      1.0000 0.06634  0.73840  0.67557  Biso   1.000  O
  Ni7      1.0000 0.96510  0.61623  0.14453  Biso   1.000  Ni
  C25      1.0000 0.88120  0.67675  0.28777  Biso   1.000  C
  C26      1.0000 0.88156  0.66393  0.08652  Biso   1.000  C
  C27      1.0000 0.83370  0.65385  0.96542  Biso   1.000  C
  H7       1.0000 0.83399  0.64390  0.80911  Biso   1.000  H
  C28      1.0000 0.93267  0.68759  0.41801  Biso   1.000  C
  O19      1.0000 0.97615  0.68512  0.34580  Biso   1.000  O
  O20      1.0000 0.93234  0.69914  0.59946  Biso   1.000  O
  O21      1.0000 0.92827  0.66128  0.00890  Biso   1.000  O
  Ni8      1.0000 0.63177  0.94956  0.47786  Biso   1.000  Ni
  C29      1.0000 0.54787  0.01008  0.62110  Biso   1.000  C
  C30      1.0000 0.54823  0.99726  0.41985  Biso   1.000  C
  C31      1.0000 0.50037  0.98718  0.29875  Biso   1.000  C
  H8       1.0000 0.50066  0.97723  0.14244  Biso   1.000  H
  C32      1.0000 0.59934  0.02092  0.75134  Biso   1.000  C
  O22      1.0000 0.64282  0.01845  0.67913  Biso   1.000  O
  O23      1.0000 0.59901  0.03247  0.93279  Biso   1.000  O
  O24      1.0000 0.59494  0.99461  0.34223  Biso   1.000  O
  Ni9      1.0000 0.29843  0.28290  0.81120  Biso   1.000  Ni
  C33      1.0000 0.21453  0.34342  0.95444  Biso   1.000  C
  C34      1.0000 0.21489  0.33060  0.75319  Biso   1.000  C
  C35      1.0000 0.16703  0.32052  0.63209  Biso   1.000  C
  H9       1.0000 0.16732  0.31057  0.47578  Biso   1.000  H
  C36      1.0000 0.26600  0.35426  0.08468  Biso   1.000  C
  O25      1.0000 0.30948  0.35179  0.01247  Biso   1.000  O
  O26      1.0000 0.26567  0.36581  0.26613  Biso   1.000  O
  O27      1.0000 0.26160  0.32795  0.67557  Biso   1.000  O
  Ni10     1.0000 0.61623  0.65113  0.85547  Biso   1.000  Ni
  C37      1.0000 0.67675  0.79555  0.71223  Biso   1.000  C
  C38      1.0000 0.66393  0.78237  0.91348  Biso   1.000  C
  C39      1.0000 0.65385  0.82015  0.03458  Biso   1.000  C
  H10      1.0000 0.64390  0.80991  0.19089  Biso   1.000  H
  C40      1.0000 0.68759  0.75492  0.58199  Biso   1.000  C
  O28      1.0000 0.68512  0.70897  0.65420  Biso   1.000  O
  O29      1.0000 0.69914  0.76680  0.40054  Biso   1.000  O
  O30      1.0000 0.66128  0.73301  0.99110  Biso   1.000  O
  Ni11     1.0000 0.28290  0.98446  0.18880  Biso   1.000  Ni
  C41      1.0000 0.34342  0.12888  0.04556  Biso   1.000  C
  C42      1.0000 0.33060  0.11570  0.24681  Biso   1.000  C
  C43      1.0000 0.32052  0.15348  0.36791  Biso   1.000  C
  H11      1.0000 0.31057  0.14324  0.52422  Biso   1.000  H
  C44      1.0000 0.35426  0.08825  0.91532  Biso   1.000  C
  O31      1.0000 0.35179  0.04230  0.98753  Biso   1.000  O
  O32      1.0000 0.36581  0.10013  0.73387  Biso   1.000  O
  O33      1.0000 0.32795  0.06634  0.32443  Biso   1.000  O
  Ni12     1.0000 0.94956  0.31780  0.52214  Biso   1.000  Ni
  C45      1.0000 0.01008  0.46222  0.37890  Biso   1.000  C
  C46      1.0000 0.99726  0.44904  0.58015  Biso   1.000  C
  C47      1.0000 0.98718  0.48682  0.70125  Biso   1.000  C
  H12      1.0000 0.97723  0.47658  0.85756  Biso   1.000  H
  C48      1.0000 0.02092  0.42159  0.24866  Biso   1.000  C
  O34      1.0000 0.01845  0.37564  0.32087  Biso   1.000  O
  O35      1.0000 0.03247  0.43347  0.06721  Biso   1.000  O
  O36      1.0000 0.99461  0.39968  0.65777  Biso   1.000  O
  Ni13     1.0000 0.34887  0.96510  0.85547  Biso   1.000  Ni
  C49      1.0000 0.20445  0.88120  0.71223  Biso   1.000  C
  C50      1.0000 0.21763  0.88156  0.91348  Biso   1.000  C
  C51      1.0000 0.17985  0.83370  0.03458  Biso   1.000  C
  H13      1.0000 0.19009  0.83399  0.19089  Biso   1.000  H
  C52      1.0000 0.24508  0.93267  0.58199  Biso   1.000  C
  O37      1.0000 0.29103  0.97615  0.65420  Biso   1.000  O
  O38      1.0000 0.23320  0.93234  0.40054  Biso   1.000  O
  O39      1.0000 0.26699  0.92827  0.99110  Biso   1.000  O
  Ni14     1.0000 0.01554  0.29843  0.18880  Biso   1.000  Ni
  C53      1.0000 0.87112  0.21453  0.04556  Biso   1.000  C
  C54      1.0000 0.88430  0.21489  0.24681  Biso   1.000  C
  C55      1.0000 0.84652  0.16703  0.36791  Biso   1.000  C
  H14      1.0000 0.85676  0.16732  0.52422  Biso   1.000  H
  C56      1.0000 0.91175  0.26600  0.91532  Biso   1.000  C
  O40      1.0000 0.95770  0.30948  0.98753  Biso   1.000  O
  O41      1.0000 0.89987  0.26567  0.73387  Biso   1.000  O
  O42      1.0000 0.93366  0.26160  0.32443  Biso   1.000  O
  Ni15     1.0000 0.68220  0.63177  0.52214  Biso   1.000  Ni
  C57      1.0000 0.53778  0.54787  0.37890  Biso   1.000  C
  C58      1.0000 0.55096  0.54823  0.58015  Biso   1.000  C
  C59      1.0000 0.51318  0.50037  0.70125  Biso   1.000  C
  H15      1.0000 0.52342  0.50066  0.85756  Biso   1.000  H
  C60      1.0000 0.57841  0.59934  0.24866  Biso   1.000  C
  O43      1.0000 0.62436  0.64282  0.32087  Biso   1.000  O
  O44      1.0000 0.56653  0.59901  0.06721  Biso   1.000  O
  O45      1.0000 0.60032  0.59494  0.65777  Biso   1.000  O
  Ni16     1.0000 0.03490  0.38377  0.85547  Biso   1.000  Ni
  C61      1.0000 0.11880  0.32325  0.71223  Biso   1.000  C
  C62      1.0000 0.11844  0.33607  0.91348  Biso   1.000  C
  C63      1.0000 0.16630  0.34615  0.03458  Biso   1.000  C
  H16      1.0000 0.16601  0.35610  0.19089  Biso   1.000  H
  C64      1.0000 0.06733  0.31241  0.58199  Biso   1.000  C
  O46      1.0000 0.02385  0.31488  0.65420  Biso   1.000  O
  O47      1.0000 0.06766  0.30086  0.40054  Biso   1.000  O
  O48      1.0000 0.07173  0.33872  0.99110  Biso   1.000  O
  Ni17     1.0000 0.70157  0.71710  0.18880  Biso   1.000  Ni
  C65      1.0000 0.78547  0.65658  0.04556  Biso   1.000  C
  C66      1.0000 0.78511  0.66940  0.24681  Biso   1.000  C
  C67      1.0000 0.83297  0.67948  0.36791  Biso   1.000  C
  H17      1.0000 0.83268  0.68943  0.52422  Biso   1.000  H
  C68      1.0000 0.73400  0.64574  0.91532  Biso   1.000  C
  O49      1.0000 0.69052  0.64821  0.98753  Biso   1.000  O
  O50      1.0000 0.73433  0.63419  0.73387  Biso   1.000  O
  O51      1.0000 0.73840  0.67205  0.32443  Biso   1.000  O
  Ni18     1.0000 0.36823  0.05044  0.52214  Biso   1.000  Ni
  C69      1.0000 0.45213  0.98992  0.37890  Biso   1.000  C
  C70      1.0000 0.45177  0.00274  0.58015  Biso   1.000  C
  C71      1.0000 0.49963  0.01282  0.70125  Biso   1.000  C
  H18      1.0000 0.49934  0.02277  0.85756  Biso   1.000  H
  C72      1.0000 0.40066  0.97908  0.24866  Biso   1.000  C
  O52      1.0000 0.35718  0.98155  0.32087  Biso   1.000  O
  O53      1.0000 0.40099  0.96753  0.06721  Biso   1.000  O
  O54      1.0000 0.40506  0.00539  0.65777  Biso   1.000  O
