data_image0
_cell_length_a       26.5738
_cell_length_b       26.5738
_cell_length_c       6.8088
_cell_angle_alpha    90
_cell_angle_beta     90
_cell_angle_gamma    120

_symmetry_space_group_name_H-M    "P 1"
_symmetry_int_tables_number       1

loop_
  _symmetry_equiv_pos_as_xyz
  'x, y, z'

loop_
  _atom_site_label
  _atom_site_occupancy
  _atom_site_fract_x
  _atom_site_fract_y
  _atom_site_fract_z
  _atom_site_thermal_displace_type
  _atom_site_B_iso_or_equiv
  _atom_site_type_symbol
  Mn1      1.0000 0.39072  0.35177  0.14297  Biso   1.000  Mn
  C1       1.0000 0.32125  0.20173  0.28665  Biso   1.000  C
  C2       1.0000 0.33897  0.21815  0.09342  Biso   1.000  C
  C3       1.0000 0.35106  0.18309  0.97344  Biso   1.000  C
  H1       1.0000 0.36482  0.19584  0.82338  Biso   1.000  H
  C4       1.0000 0.30825  0.23943  0.41570  Biso   1.000  C
  O1       1.0000 0.31334  0.28585  0.34960  Biso   1.000  O
  O2       1.0000 0.29227  0.22463  0.58990  Biso   1.000  O
  O3       1.0000 0.34444  0.26801  0.02250  Biso   1.000  O
  Mn2      1.0000 0.05739  0.68510  0.47630  Biso   1.000  Mn
  C5       1.0000 0.98792  0.53506  0.61998  Biso   1.000  C
  C6       1.0000 0.00564  0.55148  0.42675  Biso   1.000  C
  C7       1.0000 0.01773  0.51642  0.30677  Biso   1.000  C
  H2       1.0000 0.03149  0.52917  0.15671  Biso   1.000  H
  C8       1.0000 0.97492  0.57276  0.74903  Biso   1.000  C
  O4       1.0000 0.98001  0.61918  0.68293  Biso   1.000  O
  O5       1.0000 0.95894  0.55796  0.92323  Biso   1.000  O
  O6       1.0000 0.01111  0.60134  0.35583  Biso   1.000  O
  Mn3      1.0000 0.72405  0.01844  0.80964  Biso   1.000  Mn
  C9       1.0000 0.65458  0.86840  0.95332  Biso   1.000  C
  C10      1.0000 0.67230  0.88482  0.76009  Biso   1.000  C
  C11      1.0000 0.68439  0.84976  0.64011  Biso   1.000  C
  H3       1.0000 0.69815  0.86251  0.49005  Biso   1.000  H
  C12      1.0000 0.64158  0.90610  0.08237  Biso   1.000  C
  O7       1.0000 0.64667  0.95252  0.01627  Biso   1.000  O
  O8       1.0000 0.62560  0.89130  0.25657  Biso   1.000  O
  O9       1.0000 0.67777  0.93468  0.68917  Biso   1.000  O
  Mn4      1.0000 0.64823  0.03895  0.14297  Biso   1.000  Mn
  C13      1.0000 0.79827  0.11952  0.28665  Biso   1.000  C
  C14      1.0000 0.78185  0.12082  0.09342  Biso   1.000  C
  C15      1.0000 0.81691  0.16797  0.97344  Biso   1.000  C
  H4       1.0000 0.80416  0.16898  0.82338  Biso   1.000  H
  C16      1.0000 0.76057  0.06882  0.41570  Biso   1.000  C
  O10      1.0000 0.71415  0.02749  0.34960  Biso   1.000  O
  O11      1.0000 0.77537  0.06764  0.58990  Biso   1.000  O
  O12      1.0000 0.73199  0.07643  0.02250  Biso   1.000  O
  Mn5      1.0000 0.31490  0.37228  0.47630  Biso   1.000  Mn
  C17      1.0000 0.46494  0.45285  0.61998  Biso   1.000  C
  C18      1.0000 0.44852  0.45415  0.42675  Biso   1.000  C
  C19      1.0000 0.48358  0.50130  0.30677  Biso   1.000  C
  H5       1.0000 0.47083  0.50231  0.15671  Biso   1.000  H
  C20      1.0000 0.42724  0.40215  0.74903  Biso   1.000  C
  O13      1.0000 0.38082  0.36082  0.68293  Biso   1.000  O
  O14      1.0000 0.44204  0.40097  0.92323  Biso   1.000  O
  O15      1.0000 0.39866  0.40976  0.35583  Biso   1.000  O
  Mn6      1.0000 0.98156  0.70562  0.80964  Biso   1.000  Mn
  C21      1.0000 0.13160  0.78619  0.95332  Biso   1.000  C
  C22      1.0000 0.11518  0.78749  0.76009  Biso   1.000  C
  C23      1.0000 0.15024  0.83464  0.64011  Biso   1.000  C
  H6       1.0000 0.13749  0.83565  0.49005  Biso   1.000  H
  C24      1.0000 0.09390  0.73549  0.08237  Biso   1.000  C
  O16      1.0000 0.04748  0.69416  0.01627  Biso   1.000  O
  O17      1.0000 0.10870  0.73431  0.25657  Biso   1.000  O
  O18      1.0000 0.06532  0.74310  0.68917  Biso   1.000  O
  Mn7      1.0000 0.96105  0.60928  0.14297  Biso   1.000  Mn
  C25      1.0000 0.88048  0.67875  0.28665  Biso   1.000  C
  C26      1.0000 0.87918  0.66103  0.09342  Biso   1.000  C
  C27      1.0000 0.83203  0.64894  0.97344  Biso   1.000  C
  H7       1.0000 0.83102  0.63518  0.82338  Biso   1.000  H
  C28      1.0000 0.93118  0.69175  0.41570  Biso   1.000  C
  O19      1.0000 0.97251  0.68666  0.34960  Biso   1.000  O
  O20      1.0000 0.93236  0.70773  0.58990  Biso   1.000  O
  O21      1.0000 0.92357  0.65556  0.02250  Biso   1.000  O
  Mn8      1.0000 0.62772  0.94261  0.47630  Biso   1.000  Mn
  C29      1.0000 0.54715  0.01208  0.61998  Biso   1.000  C
  C30      1.0000 0.54585  0.99436  0.42675  Biso   1.000  C
  C31      1.0000 0.49870  0.98227  0.30677  Biso   1.000  C
  H8       1.0000 0.49769  0.96851  0.15671  Biso   1.000  H
  C32      1.0000 0.59785  0.02508  0.74903  Biso   1.000  C
  O22      1.0000 0.63918  0.01999  0.68293  Biso   1.000  O
  O23      1.0000 0.59903  0.04106  0.92323  Biso   1.000  O
  O24      1.0000 0.59024  0.98889  0.35583  Biso   1.000  O
  Mn9      1.0000 0.29438  0.27595  0.80964  Biso   1.000  Mn
  C33      1.0000 0.21381  0.34542  0.95332  Biso   1.000  C
  C34      1.0000 0.21251  0.32770  0.76009  Biso   1.000  C
  C35      1.0000 0.16536  0.31561  0.64011  Biso   1.000  C
  H9       1.0000 0.16435  0.30185  0.49005  Biso   1.000  H
  C36      1.0000 0.26451  0.35842  0.08237  Biso   1.000  C
  O25      1.0000 0.30584  0.35333  0.01627  Biso   1.000  O
  O26      1.0000 0.26569  0.37440  0.25657  Biso   1.000  O
  O27      1.0000 0.25690  0.32223  0.68917  Biso   1.000  O
  Mn10     1.0000 0.60928  0.64823  0.85703  Biso   1.000  Mn
  C37      1.0000 0.67875  0.79827  0.71335  Biso   1.000  C
  C38      1.0000 0.66103  0.78185  0.90658  Biso   1.000  C
  C39      1.0000 0.64894  0.81691  0.02656  Biso   1.000  C
  H10      1.0000 0.63518  0.80416  0.17662  Biso   1.000  H
  C40      1.0000 0.69175  0.76057  0.58430  Biso   1.000  C
  O28      1.0000 0.68666  0.71415  0.65040  Biso   1.000  O
  O29      1.0000 0.70773  0.77537  0.41010  Biso   1.000  O
  O30      1.0000 0.65556  0.73199  0.97750  Biso   1.000  O
  Mn11     1.0000 0.27595  0.98156  0.19036  Biso   1.000  Mn
  C41      1.0000 0.34542  0.13160  0.04668  Biso   1.000  C
  C42      1.0000 0.32770  0.11518  0.23991  Biso   1.000  C
  C43      1.0000 0.31561  0.15024  0.35989  Biso   1.000  C
  H11      1.0000 0.30185  0.13749  0.50995  Biso   1.000  H
  C44      1.0000 0.35842  0.09390  0.91763  Biso   1.000  C
  O31      1.0000 0.35333  0.04748  0.98373  Biso   1.000  O
  O32      1.0000 0.37440  0.10870  0.74343  Biso   1.000  O
  O33      1.0000 0.32223  0.06532  0.31083  Biso   1.000  O
  Mn12     1.0000 0.94261  0.31490  0.52370  Biso   1.000  Mn
  C45      1.0000 0.01208  0.46494  0.38002  Biso   1.000  C
  C46      1.0000 0.99436  0.44852  0.57325  Biso   1.000  C
  C47      1.0000 0.98227  0.48358  0.69323  Biso   1.000  C
  H12      1.0000 0.96851  0.47083  0.84329  Biso   1.000  H
  C48      1.0000 0.02508  0.42724  0.25097  Biso   1.000  C
  O34      1.0000 0.01999  0.38082  0.31707  Biso   1.000  O
  O35      1.0000 0.04106  0.44204  0.07677  Biso   1.000  O
  O36      1.0000 0.98889  0.39866  0.64417  Biso   1.000  O
  Mn13     1.0000 0.35177  0.96105  0.85703  Biso   1.000  Mn
  C49      1.0000 0.20173  0.88048  0.71335  Biso   1.000  C
  C50      1.0000 0.21815  0.87918  0.90658  Biso   1.000  C
  C51      1.0000 0.18309  0.83203  0.02656  Biso   1.000  C
  H13      1.0000 0.19584  0.83102  0.17662  Biso   1.000  H
  C52      1.0000 0.23943  0.93118  0.58430  Biso   1.000  C
  O37      1.0000 0.28585  0.97251  0.65040  Biso   1.000  O
  O38      1.0000 0.22463  0.93236  0.41010  Biso   1.000  O
  O39      1.0000 0.26801  0.92357  0.97750  Biso   1.000  O
  Mn14     1.0000 0.01844  0.29438  0.19036  Biso   1.000  Mn
  C53      1.0000 0.86840  0.21381  0.04668  Biso   1.000  C
  C54      1.0000 0.88482  0.21251  0.23991  Biso   1.000  C
  C55      1.0000 0.84976  0.16536  0.35989  Biso   1.000  C
  H14      1.0000 0.86251  0.16435  0.50995  Biso   1.000  H
  C56      1.0000 0.90610  0.26451  0.91763  Biso   1.000  C
  O40      1.0000 0.95252  0.30584  0.98373  Biso   1.000  O
  O41      1.0000 0.89130  0.26569  0.74343  Biso   1.000  O
  O42      1.0000 0.93468  0.25690  0.31083  Biso   1.000  O
  Mn15     1.0000 0.68510  0.62772  0.52370  Biso   1.000  Mn
  C57      1.0000 0.53506  0.54715  0.38002  Biso   1.000  C
  C58      1.0000 0.55148  0.54585  0.57325  Biso   1.000  C
  C59      1.0000 0.51642  0.49870  0.69323  Biso   1.000  C
  H15      1.0000 0.52917  0.49769  0.84329  Biso   1.000  H
  C60      1.0000 0.57276  0.59785  0.25097  Biso   1.000  C
  O43      1.0000 0.61918  0.63918  0.31707  Biso   1.000  O
  O44      1.0000 0.55796  0.59903  0.07677  Biso   1.000  O
  O45      1.0000 0.60134  0.59024  0.64417  Biso   1.000  O
  Mn16     1.0000 0.03895  0.39072  0.85703  Biso   1.000  Mn
  C61      1.0000 0.11952  0.32125  0.71335  Biso   1.000  C
  C62      1.0000 0.12082  0.33897  0.90658  Biso   1.000  C
  C63      1.0000 0.16797  0.35106  0.02656  Biso   1.000  C
  H16      1.0000 0.16898  0.36482  0.17662  Biso   1.000  H
  C64      1.0000 0.06882  0.30825  0.58430  Biso   1.000  C
  O46      1.0000 0.02749  0.31334  0.65040  Biso   1.000  O
  O47      1.0000 0.06764  0.29227  0.41010  Biso   1.000  O
  O48      1.0000 0.07643  0.34444  0.97750  Biso   1.000  O
  Mn17     1.0000 0.70562  0.72405  0.19036  Biso   1.000  Mn
  C65      1.0000 0.78619  0.65458  0.04668  Biso   1.000  C
  C66      1.0000 0.78749  0.67230  0.23991  Biso   1.000  C
  C67      1.0000 0.83464  0.68439  0.35989  Biso   1.000  C
  H17      1.0000 0.83565  0.69815  0.50995  Biso   1.000  H
  C68      1.0000 0.73549  0.64158  0.91763  Biso   1.000  C
  O49      1.0000 0.69416  0.64667  0.98373  Biso   1.000  O
  O50      1.0000 0.73431  0.62560  0.74343  Biso   1.000  O
  O51      1.0000 0.74310  0.67777  0.31083  Biso   1.000  O
  Mn18     1.0000 0.37228  0.05739  0.52370  Biso   1.000  Mn
  C69      1.0000 0.45285  0.98792  0.38002  Biso   1.000  C
  C70      1.0000 0.45415  0.00564  0.57325  Biso   1.000  C
  C71      1.0000 0.50130  0.01773  0.69323  Biso   1.000  C
  H18      1.0000 0.50231  0.03149  0.84329  Biso   1.000  H
  C72      1.0000 0.40215  0.97492  0.25097  Biso   1.000  C
  O52      1.0000 0.36082  0.98001  0.31707  Biso   1.000  O
  O53      1.0000 0.40097  0.95894  0.07677  Biso   1.000  O
  O54      1.0000 0.40976  0.01111  0.64417  Biso   1.000  O
