data_image0
_cell_length_a       26.1317
_cell_length_b       26.1317
_cell_length_c       6.722
_cell_angle_alpha    90
_cell_angle_beta     90
_cell_angle_gamma    120

_symmetry_space_group_name_H-M    "P 1"
_symmetry_int_tables_number       1

loop_
  _symmetry_equiv_pos_as_xyz
  'x, y, z'

loop_
  _atom_site_label
  _atom_site_occupancy
  _atom_site_fract_x
  _atom_site_fract_y
  _atom_site_fract_z
  _atom_site_thermal_displace_type
  _atom_site_B_iso_or_equiv
  _atom_site_type_symbol
  Co1      1.0000 0.38496  0.34926  0.15008  Biso   1.000  Co
  C1       1.0000 0.32926  0.20814  0.28540  Biso   1.000  C
  C2       1.0000 0.34415  0.22015  0.08520  Biso   1.000  C
  C3       1.0000 0.34822  0.17867  0.96654  Biso   1.000  C
  H1       1.0000 0.35980  0.18800  0.81110  Biso   1.000  H
  C4       1.0000 0.31392  0.24562  0.42300  Biso   1.000  C
  O1       1.0000 0.32382  0.29195  0.35840  Biso   1.000  O
  O2       1.0000 0.29972  0.22892  0.59020  Biso   1.000  O
  O3       1.0000 0.35535  0.27214  0.99570  Biso   1.000  O
  Co2      1.0000 0.05163  0.68259  0.48341  Biso   1.000  Co
  C5       1.0000 0.99593  0.54147  0.61873  Biso   1.000  C
  C6       1.0000 0.01082  0.55348  0.41853  Biso   1.000  C
  C7       1.0000 0.01489  0.51200  0.29987  Biso   1.000  C
  H2       1.0000 0.02647  0.52133  0.14443  Biso   1.000  H
  C8       1.0000 0.98059  0.57895  0.75633  Biso   1.000  C
  O4       1.0000 0.99049  0.62528  0.69173  Biso   1.000  O
  O5       1.0000 0.96639  0.56225  0.92353  Biso   1.000  O
  O6       1.0000 0.02202  0.60547  0.32903  Biso   1.000  O
  Co3      1.0000 0.71829  0.01593  0.81675  Biso   1.000  Co
  C9       1.0000 0.66259  0.87481  0.95207  Biso   1.000  C
  C10      1.0000 0.67748  0.88682  0.75187  Biso   1.000  C
  C11      1.0000 0.68155  0.84534  0.63321  Biso   1.000  C
  H3       1.0000 0.69313  0.85467  0.47777  Biso   1.000  H
  C12      1.0000 0.64725  0.91229  0.08967  Biso   1.000  C
  O7       1.0000 0.65715  0.95862  0.02507  Biso   1.000  O
  O8       1.0000 0.63305  0.89559  0.25687  Biso   1.000  O
  O9       1.0000 0.68868  0.93881  0.66237  Biso   1.000  O
  Co4      1.0000 0.65074  0.03570  0.15008  Biso   1.000  Co
  C13      1.0000 0.79186  0.12112  0.28540  Biso   1.000  C
  C14      1.0000 0.77985  0.12400  0.08520  Biso   1.000  C
  C15      1.0000 0.82133  0.16955  0.96654  Biso   1.000  C
  H4       1.0000 0.81200  0.17180  0.81110  Biso   1.000  H
  C16      1.0000 0.75438  0.06830  0.42300  Biso   1.000  C
  O10      1.0000 0.70805  0.03187  0.35840  Biso   1.000  O
  O11      1.0000 0.77108  0.07080  0.59020  Biso   1.000  O
  O12      1.0000 0.72786  0.08321  0.99570  Biso   1.000  O
  Co5      1.0000 0.31741  0.36903  0.48341  Biso   1.000  Co
  C17      1.0000 0.45853  0.45445  0.61873  Biso   1.000  C
  C18      1.0000 0.44652  0.45733  0.41853  Biso   1.000  C
  C19      1.0000 0.48800  0.50288  0.29987  Biso   1.000  C
  H5       1.0000 0.47867  0.50513  0.14443  Biso   1.000  H
  C20      1.0000 0.42105  0.40163  0.75633  Biso   1.000  C
  O13      1.0000 0.37472  0.36520  0.69173  Biso   1.000  O
  O14      1.0000 0.43775  0.40413  0.92353  Biso   1.000  O
  O15      1.0000 0.39453  0.41654  0.32903  Biso   1.000  O
  Co6      1.0000 0.98407  0.70237  0.81675  Biso   1.000  Co
  C21      1.0000 0.12519  0.78779  0.95207  Biso   1.000  C
  C22      1.0000 0.11318  0.79067  0.75187  Biso   1.000  C
  C23      1.0000 0.15466  0.83622  0.63321  Biso   1.000  C
  H6       1.0000 0.14533  0.83847  0.47777  Biso   1.000  H
  C24      1.0000 0.08771  0.73497  0.08967  Biso   1.000  C
  O16      1.0000 0.04138  0.69854  0.02507  Biso   1.000  O
  O17      1.0000 0.10441  0.73747  0.25687  Biso   1.000  O
  O18      1.0000 0.06119  0.74988  0.66237  Biso   1.000  O
  Co7      1.0000 0.96430  0.61504  0.15008  Biso   1.000  Co
  C25      1.0000 0.87888  0.67074  0.28540  Biso   1.000  C
  C26      1.0000 0.87600  0.65585  0.08520  Biso   1.000  C
  C27      1.0000 0.83045  0.65178  0.96654  Biso   1.000  C
  H7       1.0000 0.82820  0.64020  0.81110  Biso   1.000  H
  C28      1.0000 0.93170  0.68608  0.42300  Biso   1.000  C
  O19      1.0000 0.96813  0.67618  0.35840  Biso   1.000  O
  O20      1.0000 0.92920  0.70028  0.59020  Biso   1.000  O
  O21      1.0000 0.91679  0.64465  0.99570  Biso   1.000  O
  Co8      1.0000 0.63097  0.94837  0.48341  Biso   1.000  Co
  C29      1.0000 0.54555  0.00407  0.61873  Biso   1.000  C
  C30      1.0000 0.54267  0.98918  0.41853  Biso   1.000  C
  C31      1.0000 0.49712  0.98511  0.29987  Biso   1.000  C
  H8       1.0000 0.49487  0.97353  0.14443  Biso   1.000  H
  C32      1.0000 0.59837  0.01941  0.75633  Biso   1.000  C
  O22      1.0000 0.63480  0.00951  0.69173  Biso   1.000  O
  O23      1.0000 0.59587  0.03361  0.92353  Biso   1.000  O
  O24      1.0000 0.58346  0.97798  0.32903  Biso   1.000  O
  Co9      1.0000 0.29763  0.28171  0.81675  Biso   1.000  Co
  C33      1.0000 0.21221  0.33741  0.95207  Biso   1.000  C
  C34      1.0000 0.20933  0.32252  0.75187  Biso   1.000  C
  C35      1.0000 0.16378  0.31845  0.63321  Biso   1.000  C
  H9       1.0000 0.16153  0.30687  0.47777  Biso   1.000  H
  C36      1.0000 0.26503  0.35275  0.08967  Biso   1.000  C
  O25      1.0000 0.30146  0.34285  0.02507  Biso   1.000  O
  O26      1.0000 0.26253  0.36695  0.25687  Biso   1.000  O
  O27      1.0000 0.25012  0.31132  0.66237  Biso   1.000  O
  Co10     1.0000 0.61504  0.65074  0.84992  Biso   1.000  Co
  C37      1.0000 0.67074  0.79186  0.71460  Biso   1.000  C
  C38      1.0000 0.65585  0.77985  0.91480  Biso   1.000  C
  C39      1.0000 0.65178  0.82133  0.03346  Biso   1.000  C
  H10      1.0000 0.64020  0.81200  0.18890  Biso   1.000  H
  C40      1.0000 0.68608  0.75438  0.57700  Biso   1.000  C
  O28      1.0000 0.67618  0.70805  0.64160  Biso   1.000  O
  O29      1.0000 0.70028  0.77108  0.40980  Biso   1.000  O
  O30      1.0000 0.64465  0.72786  0.00430  Biso   1.000  O
  Co11     1.0000 0.28171  0.98407  0.18325  Biso   1.000  Co
  C41      1.0000 0.33741  0.12519  0.04793  Biso   1.000  C
  C42      1.0000 0.32252  0.11318  0.24813  Biso   1.000  C
  C43      1.0000 0.31845  0.15466  0.36679  Biso   1.000  C
  H11      1.0000 0.30687  0.14533  0.52223  Biso   1.000  H
  C44      1.0000 0.35275  0.08771  0.91033  Biso   1.000  C
  O31      1.0000 0.34285  0.04138  0.97493  Biso   1.000  O
  O32      1.0000 0.36695  0.10441  0.74313  Biso   1.000  O
  O33      1.0000 0.31132  0.06119  0.33763  Biso   1.000  O
  Co12     1.0000 0.94837  0.31741  0.51659  Biso   1.000  Co
  C45      1.0000 0.00407  0.45853  0.38127  Biso   1.000  C
  C46      1.0000 0.98918  0.44652  0.58147  Biso   1.000  C
  C47      1.0000 0.98511  0.48800  0.70013  Biso   1.000  C
  H12      1.0000 0.97353  0.47867  0.85557  Biso   1.000  H
  C48      1.0000 0.01941  0.42105  0.24367  Biso   1.000  C
  O34      1.0000 0.00951  0.37472  0.30827  Biso   1.000  O
  O35      1.0000 0.03361  0.43775  0.07647  Biso   1.000  O
  O36      1.0000 0.97798  0.39453  0.67097  Biso   1.000  O
  Co13     1.0000 0.34926  0.96430  0.84992  Biso   1.000  Co
  C49      1.0000 0.20814  0.87888  0.71460  Biso   1.000  C
  C50      1.0000 0.22015  0.87600  0.91480  Biso   1.000  C
  C51      1.0000 0.17867  0.83045  0.03346  Biso   1.000  C
  H13      1.0000 0.18800  0.82820  0.18890  Biso   1.000  H
  C52      1.0000 0.24562  0.93170  0.57700  Biso   1.000  C
  O37      1.0000 0.29195  0.96813  0.64160  Biso   1.000  O
  O38      1.0000 0.22892  0.92920  0.40980  Biso   1.000  O
  O39      1.0000 0.27214  0.91679  0.00430  Biso   1.000  O
  Co14     1.0000 0.01593  0.29763  0.18325  Biso   1.000  Co
  C53      1.0000 0.87481  0.21221  0.04793  Biso   1.000  C
  C54      1.0000 0.88682  0.20933  0.24813  Biso   1.000  C
  C55      1.0000 0.84534  0.16378  0.36679  Biso   1.000  C
  H14      1.0000 0.85467  0.16153  0.52223  Biso   1.000  H
  C56      1.0000 0.91229  0.26503  0.91033  Biso   1.000  C
  O40      1.0000 0.95862  0.30146  0.97493  Biso   1.000  O
  O41      1.0000 0.89559  0.26253  0.74313  Biso   1.000  O
  O42      1.0000 0.93881  0.25012  0.33763  Biso   1.000  O
  Co15     1.0000 0.68259  0.63097  0.51659  Biso   1.000  Co
  C57      1.0000 0.54147  0.54555  0.38127  Biso   1.000  C
  C58      1.0000 0.55348  0.54267  0.58147  Biso   1.000  C
  C59      1.0000 0.51200  0.49712  0.70013  Biso   1.000  C
  H15      1.0000 0.52133  0.49487  0.85557  Biso   1.000  H
  C60      1.0000 0.57895  0.59837  0.24367  Biso   1.000  C
  O43      1.0000 0.62528  0.63480  0.30827  Biso   1.000  O
  O44      1.0000 0.56225  0.59587  0.07647  Biso   1.000  O
  O45      1.0000 0.60547  0.58346  0.67097  Biso   1.000  O
  Co16     1.0000 0.03570  0.38496  0.84992  Biso   1.000  Co
  C61      1.0000 0.12112  0.32926  0.71460  Biso   1.000  C
  C62      1.0000 0.12400  0.34415  0.91480  Biso   1.000  C
  C63      1.0000 0.16955  0.34822  0.03346  Biso   1.000  C
  H16      1.0000 0.17180  0.35980  0.18890  Biso   1.000  H
  C64      1.0000 0.06830  0.31392  0.57700  Biso   1.000  C
  O46      1.0000 0.03187  0.32382  0.64160  Biso   1.000  O
  O47      1.0000 0.07080  0.29972  0.40980  Biso   1.000  O
  O48      1.0000 0.08321  0.35535  0.00430  Biso   1.000  O
  Co17     1.0000 0.70237  0.71829  0.18325  Biso   1.000  Co
  C65      1.0000 0.78779  0.66259  0.04793  Biso   1.000  C
  C66      1.0000 0.79067  0.67748  0.24813  Biso   1.000  C
  C67      1.0000 0.83622  0.68155  0.36679  Biso   1.000  C
  H17      1.0000 0.83847  0.69313  0.52223  Biso   1.000  H
  C68      1.0000 0.73497  0.64725  0.91033  Biso   1.000  C
  O49      1.0000 0.69854  0.65715  0.97493  Biso   1.000  O
  O50      1.0000 0.73747  0.63305  0.74313  Biso   1.000  O
  O51      1.0000 0.74988  0.68868  0.33763  Biso   1.000  O
  Co18     1.0000 0.36903  0.05163  0.51659  Biso   1.000  Co
  C69      1.0000 0.45445  0.99593  0.38127  Biso   1.000  C
  C70      1.0000 0.45733  0.01082  0.58147  Biso   1.000  C
  C71      1.0000 0.50288  0.01489  0.70013  Biso   1.000  C
  H18      1.0000 0.50513  0.02647  0.85557  Biso   1.000  H
  C72      1.0000 0.40163  0.98059  0.24367  Biso   1.000  C
  O52      1.0000 0.36520  0.99049  0.30827  Biso   1.000  O
  O53      1.0000 0.40413  0.96639  0.07647  Biso   1.000  O
  O54      1.0000 0.41654  0.02202  0.67097  Biso   1.000  O
