data_image0
_cell_length_a       15.477
_cell_length_b       25.656
_cell_length_c       8.289
_cell_angle_alpha    90
_cell_angle_beta     105.077
_cell_angle_gamma    90

_symmetry_space_group_name_H-M    "P 1"
_symmetry_int_tables_number       1

loop_
  _symmetry_equiv_pos_as_xyz
  'x, y, z'

loop_
  _atom_site_label
  _atom_site_occupancy
  _atom_site_fract_x
  _atom_site_fract_y
  _atom_site_fract_z
  _atom_site_thermal_displace_type
  _atom_site_B_iso_or_equiv
  _atom_site_type_symbol
  Cd1      1.0000 0.45314  0.27892  0.17201  Biso   1.000  Cd
  Cd2      1.0000 0.95840  0.47159  0.77039  Biso   1.000  Cd
  O1       1.0000 0.57316  0.32748  0.33100  Biso   1.000  O
  O2       1.0000 0.59760  0.30204  0.10040  Biso   1.000  O
  O3       1.0000 0.98127  0.45127  0.27710  Biso   1.000  O
  O4       1.0000 0.01199  0.43177  0.54830  Biso   1.000  O
  O5       1.0000 0.03661  0.40624  0.91740  Biso   1.000  O
  O6       1.0000 0.09414  0.47995  0.03230  Biso   1.000  O
  O7       1.0000 0.32388  0.27171  0.58250  Biso   1.000  O
  O8       1.0000 0.41535  0.28073  0.42180  Biso   1.000  O
  N1       1.0000 0.82452  0.41852  0.75270  Biso   1.000  N
  N2       1.0000 0.66440  0.36614  0.72100  Biso   1.000  N
  N3       1.0000 0.69215  0.50411  0.43010  Biso   1.000  N
  N4       1.0000 0.83780  0.49932  0.55940  Biso   1.000  N
  N5       1.0000 0.82378  0.53934  0.45300  Biso   1.000  N
  H1       1.0000 0.86430  0.56000  0.43600  Biso   1.000  H
  N6       1.0000 0.61605  0.65643  0.01950  Biso   1.000  N
  C1       1.0000 0.62170  0.32395  0.23640  Biso   1.000  C
  C2       1.0000 0.71293  0.34851  0.28460  Biso   1.000  C
  C3       1.0000 0.72670  0.39155  0.20050  Biso   1.000  C
  H2       1.0000 0.67980  0.40520  0.11720  Biso   1.000  H
  C4       1.0000 0.81020  0.41580  0.23710  Biso   1.000  C
  H3       1.0000 0.81850  0.44510  0.17670  Biso   1.000  H
  C5       1.0000 0.87980  0.39723  0.36000  Biso   1.000  C
  C6       1.0000 0.96459  0.42893  0.39680  Biso   1.000  C
  C7       1.0000 0.86956  0.35091  0.44880  Biso   1.000  C
  C8       1.0000 0.94100  0.32669  0.56760  Biso   1.000  C
  H4       1.0000 0.99780  0.34150  0.59280  Biso   1.000  H
  C9       1.0000 0.92700  0.28207  0.64470  Biso   1.000  C
  H5       1.0000 0.97470  0.26630  0.72090  Biso   1.000  H
  C10      1.0000 0.84210  0.25934  0.61130  Biso   1.000  C
  H6       1.0000 0.83350  0.22900  0.66650  Biso   1.000  H
  C11      1.0000 0.77250  0.28149  0.49890  Biso   1.000  C
  H7       1.0000 0.71610  0.26630  0.47880  Biso   1.000  H
  C12      1.0000 0.78354  0.32688  0.41190  Biso   1.000  C
  C13      1.0000 0.09410  0.43110  0.02520  Biso   1.000  C
  C14      1.0000 0.16250  0.39962  0.14890  Biso   1.000  C
  C15      1.0000 0.13450  0.35394  0.20450  Biso   1.000  C
  H8       1.0000 0.07450  0.34450  0.16950  Biso   1.000  H
  C16      1.0000 0.19530  0.32126  0.31360  Biso   1.000  C
  H9       1.0000 0.17490  0.29090  0.35250  Biso   1.000  H
  C17      1.0000 0.28346  0.33338  0.36310  Biso   1.000  C
  C18      1.0000 0.34548  0.29321  0.46410  Biso   1.000  C
  C19      1.0000 0.31516  0.38110  0.31450  Biso   1.000  C
  C20      1.0000 0.40540  0.39694  0.37150  Biso   1.000  C
  H10      1.0000 0.44570  0.37620  0.44770  Biso   1.000  H
  C21      1.0000 0.43420  0.44190  0.31650  Biso   1.000  C
  H11      1.0000 0.49400  0.45150  0.35480  Biso   1.000  H
  C22      1.0000 0.37480  0.47412  0.20270  Biso   1.000  C
  H12      1.0000 0.39540  0.50460  0.16450  Biso   1.000  H
  C23      1.0000 0.28650  0.46072  0.14790  Biso   1.000  C
  H13      1.0000 0.24760  0.48220  0.07200  Biso   1.000  H
  C24      1.0000 0.25363  0.41507  0.20420  Biso   1.000  C
  C25      1.0000 0.81880  0.37722  0.84420  Biso   1.000  C
  H14      1.0000 0.87000  0.36510  0.92060  Biso   1.000  H
  C26      1.0000 0.73890  0.35173  0.82940  Biso   1.000  C
  H15      1.0000 0.73740  0.32330  0.89830  Biso   1.000  H
  C27      1.0000 0.66970  0.40754  0.62660  Biso   1.000  C
  H16      1.0000 0.61850  0.41910  0.54880  Biso   1.000  H
  C28      1.0000 0.74896  0.43340  0.64220  Biso   1.000  C
  C29      1.0000 0.75754  0.47912  0.54210  Biso   1.000  C
  C30      1.0000 0.73657  0.54214  0.37760  Biso   1.000  C
  C31      1.0000 0.69602  0.58229  0.25580  Biso   1.000  C
  C32      1.0000 0.74550  0.62203  0.21240  Biso   1.000  C
  H17      1.0000 0.80670  0.62450  0.26120  Biso   1.000  H
  C33      1.0000 0.70260  0.65812  0.09500  Biso   1.000  C
  H18      1.0000 0.73640  0.68500  0.06750  Biso   1.000  H
  C34      1.0000 0.56910  0.61810  0.06240  Biso   1.000  C
  H19      1.0000 0.50830  0.61620  0.01010  Biso   1.000  H
  C35      1.0000 0.60570  0.58091  0.18040  Biso   1.000  C
  H20      1.0000 0.56980  0.55520  0.20870  Biso   1.000  H
  Cd3      1.0000 0.54686  0.77892  0.32799  Biso   1.000  Cd
  Cd4      1.0000 0.04160  0.97159  0.72961  Biso   1.000  Cd
  O9       1.0000 0.42684  0.82748  0.16900  Biso   1.000  O
  O10      1.0000 0.40240  0.80204  0.39960  Biso   1.000  O
  O11      1.0000 0.01873  0.95127  0.22290  Biso   1.000  O
  O12      1.0000 0.98801  0.93177  0.95170  Biso   1.000  O
  O13      1.0000 0.96339  0.90624  0.58260  Biso   1.000  O
  O14      1.0000 0.90586  0.97995  0.46770  Biso   1.000  O
  O15      1.0000 0.67612  0.77171  0.91750  Biso   1.000  O
  O16      1.0000 0.58465  0.78073  0.07820  Biso   1.000  O
  N7       1.0000 0.17548  0.91852  0.74730  Biso   1.000  N
  N8       1.0000 0.33560  0.86614  0.77900  Biso   1.000  N
  N9       1.0000 0.30785  0.00411  0.06990  Biso   1.000  N
  N10      1.0000 0.16220  0.99932  0.94060  Biso   1.000  N
  N11      1.0000 0.17622  0.03934  0.04700  Biso   1.000  N
  H21      1.0000 0.13570  0.06000  0.06400  Biso   1.000  H
  N12      1.0000 0.38395  0.15643  0.48050  Biso   1.000  N
  C36      1.0000 0.37830  0.82395  0.26360  Biso   1.000  C
  C37      1.0000 0.28707  0.84851  0.21540  Biso   1.000  C
  C38      1.0000 0.27330  0.89155  0.29950  Biso   1.000  C
  H22      1.0000 0.32020  0.90520  0.38280  Biso   1.000  H
  C39      1.0000 0.18980  0.91580  0.26290  Biso   1.000  C
  H23      1.0000 0.18150  0.94510  0.32330  Biso   1.000  H
  C40      1.0000 0.12020  0.89723  0.14000  Biso   1.000  C
  C41      1.0000 0.03541  0.92893  0.10320  Biso   1.000  C
  C42      1.0000 0.13044  0.85091  0.05120  Biso   1.000  C
  C43      1.0000 0.05900  0.82669  0.93240  Biso   1.000  C
  H24      1.0000 0.00220  0.84150  0.90720  Biso   1.000  H
  C44      1.0000 0.07300  0.78207  0.85530  Biso   1.000  C
  H25      1.0000 0.02530  0.76630  0.77910  Biso   1.000  H
  C45      1.0000 0.15790  0.75934  0.88870  Biso   1.000  C
  H26      1.0000 0.16650  0.72900  0.83350  Biso   1.000  H
  C46      1.0000 0.22750  0.78149  0.00110  Biso   1.000  C
  H27      1.0000 0.28390  0.76630  0.02120  Biso   1.000  H
  C47      1.0000 0.21646  0.82688  0.08810  Biso   1.000  C
  C48      1.0000 0.90590  0.93110  0.47480  Biso   1.000  C
  C49      1.0000 0.83750  0.89962  0.35110  Biso   1.000  C
  C50      1.0000 0.86550  0.85394  0.29550  Biso   1.000  C
  H28      1.0000 0.92550  0.84450  0.33050  Biso   1.000  H
  C51      1.0000 0.80470  0.82126  0.18640  Biso   1.000  C
  H29      1.0000 0.82510  0.79090  0.14750  Biso   1.000  H
  C52      1.0000 0.71654  0.83338  0.13690  Biso   1.000  C
  C53      1.0000 0.65452  0.79321  0.03590  Biso   1.000  C
  C54      1.0000 0.68484  0.88110  0.18550  Biso   1.000  C
  C55      1.0000 0.59460  0.89694  0.12850  Biso   1.000  C
  H30      1.0000 0.55430  0.87620  0.05230  Biso   1.000  H
  C56      1.0000 0.56580  0.94190  0.18350  Biso   1.000  C
  H31      1.0000 0.50600  0.95150  0.14520  Biso   1.000  H
  C57      1.0000 0.62520  0.97412  0.29730  Biso   1.000  C
  H32      1.0000 0.60460  0.00460  0.33550  Biso   1.000  H
  C58      1.0000 0.71350  0.96072  0.35210  Biso   1.000  C
  H33      1.0000 0.75240  0.98220  0.42800  Biso   1.000  H
  C59      1.0000 0.74637  0.91507  0.29580  Biso   1.000  C
  C60      1.0000 0.18120  0.87722  0.65580  Biso   1.000  C
  H34      1.0000 0.13000  0.86510  0.57940  Biso   1.000  H
  C61      1.0000 0.26110  0.85173  0.67060  Biso   1.000  C
  H35      1.0000 0.26260  0.82330  0.60170  Biso   1.000  H
  C62      1.0000 0.33030  0.90754  0.87340  Biso   1.000  C
  H36      1.0000 0.38150  0.91910  0.95120  Biso   1.000  H
  C63      1.0000 0.25104  0.93340  0.85780  Biso   1.000  C
  C64      1.0000 0.24246  0.97912  0.95790  Biso   1.000  C
  C65      1.0000 0.26343  0.04214  0.12240  Biso   1.000  C
  C66      1.0000 0.30398  0.08229  0.24420  Biso   1.000  C
  C67      1.0000 0.25450  0.12203  0.28760  Biso   1.000  C
  H37      1.0000 0.19330  0.12450  0.23880  Biso   1.000  H
  C68      1.0000 0.29740  0.15812  0.40500  Biso   1.000  C
  H38      1.0000 0.26360  0.18500  0.43250  Biso   1.000  H
  C69      1.0000 0.43090  0.11810  0.43760  Biso   1.000  C
  H39      1.0000 0.49170  0.11620  0.48990  Biso   1.000  H
  C70      1.0000 0.39430  0.08091  0.31960  Biso   1.000  C
  H40      1.0000 0.43020  0.05520  0.29130  Biso   1.000  H
  Cd5      1.0000 0.54686  0.72108  0.82799  Biso   1.000  Cd
  Cd6      1.0000 0.04160  0.52841  0.22961  Biso   1.000  Cd
  O17      1.0000 0.42684  0.67252  0.66900  Biso   1.000  O
  O18      1.0000 0.40240  0.69796  0.89960  Biso   1.000  O
  O19      1.0000 0.01873  0.54873  0.72290  Biso   1.000  O
  O20      1.0000 0.98801  0.56823  0.45170  Biso   1.000  O
  O21      1.0000 0.96339  0.59376  0.08260  Biso   1.000  O
  O22      1.0000 0.90586  0.52005  0.96770  Biso   1.000  O
  O23      1.0000 0.67612  0.72829  0.41750  Biso   1.000  O
  O24      1.0000 0.58465  0.71927  0.57820  Biso   1.000  O
  N13      1.0000 0.17548  0.58148  0.24730  Biso   1.000  N
  N14      1.0000 0.33560  0.63386  0.27900  Biso   1.000  N
  N15      1.0000 0.30785  0.49589  0.56990  Biso   1.000  N
  N16      1.0000 0.16220  0.50068  0.44060  Biso   1.000  N
  N17      1.0000 0.17622  0.46066  0.54700  Biso   1.000  N
  H41      1.0000 0.13570  0.44000  0.56400  Biso   1.000  H
  N18      1.0000 0.38395  0.34357  0.98050  Biso   1.000  N
  C71      1.0000 0.37830  0.67605  0.76360  Biso   1.000  C
  C72      1.0000 0.28707  0.65149  0.71540  Biso   1.000  C
  C73      1.0000 0.27330  0.60845  0.79950  Biso   1.000  C
  H42      1.0000 0.32020  0.59480  0.88280  Biso   1.000  H
  C74      1.0000 0.18980  0.58420  0.76290  Biso   1.000  C
  H43      1.0000 0.18150  0.55490  0.82330  Biso   1.000  H
  C75      1.0000 0.12020  0.60277  0.64000  Biso   1.000  C
  C76      1.0000 0.03541  0.57107  0.60320  Biso   1.000  C
  C77      1.0000 0.13044  0.64909  0.55120  Biso   1.000  C
  C78      1.0000 0.05900  0.67331  0.43240  Biso   1.000  C
  H44      1.0000 0.00220  0.65850  0.40720  Biso   1.000  H
  C79      1.0000 0.07300  0.71793  0.35530  Biso   1.000  C
  H45      1.0000 0.02530  0.73370  0.27910  Biso   1.000  H
  C80      1.0000 0.15790  0.74066  0.38870  Biso   1.000  C
  H46      1.0000 0.16650  0.77100  0.33350  Biso   1.000  H
  C81      1.0000 0.22750  0.71851  0.50110  Biso   1.000  C
  H47      1.0000 0.28390  0.73370  0.52120  Biso   1.000  H
  C82      1.0000 0.21646  0.67312  0.58810  Biso   1.000  C
  C83      1.0000 0.90590  0.56890  0.97480  Biso   1.000  C
  C84      1.0000 0.83750  0.60038  0.85110  Biso   1.000  C
  C85      1.0000 0.86550  0.64606  0.79550  Biso   1.000  C
  H48      1.0000 0.92550  0.65550  0.83050  Biso   1.000  H
  C86      1.0000 0.80470  0.67874  0.68640  Biso   1.000  C
  H49      1.0000 0.82510  0.70910  0.64750  Biso   1.000  H
  C87      1.0000 0.71654  0.66662  0.63690  Biso   1.000  C
  C88      1.0000 0.65452  0.70679  0.53590  Biso   1.000  C
  C89      1.0000 0.68484  0.61890  0.68550  Biso   1.000  C
  C90      1.0000 0.59460  0.60306  0.62850  Biso   1.000  C
  H50      1.0000 0.55430  0.62380  0.55230  Biso   1.000  H
  C91      1.0000 0.56580  0.55810  0.68350  Biso   1.000  C
  H51      1.0000 0.50600  0.54850  0.64520  Biso   1.000  H
  C92      1.0000 0.62520  0.52588  0.79730  Biso   1.000  C
  H52      1.0000 0.60460  0.49540  0.83550  Biso   1.000  H
  C93      1.0000 0.71350  0.53928  0.85210  Biso   1.000  C
  H53      1.0000 0.75240  0.51780  0.92800  Biso   1.000  H
  C94      1.0000 0.74637  0.58493  0.79580  Biso   1.000  C
  C95      1.0000 0.18120  0.62278  0.15580  Biso   1.000  C
  H54      1.0000 0.13000  0.63490  0.07940  Biso   1.000  H
  C96      1.0000 0.26110  0.64827  0.17060  Biso   1.000  C
  H55      1.0000 0.26260  0.67670  0.10170  Biso   1.000  H
  C97      1.0000 0.33030  0.59246  0.37340  Biso   1.000  C
  H56      1.0000 0.38150  0.58090  0.45120  Biso   1.000  H
  C98      1.0000 0.25104  0.56660  0.35780  Biso   1.000  C
  C99      1.0000 0.24246  0.52088  0.45790  Biso   1.000  C
  C100     1.0000 0.26343  0.45786  0.62240  Biso   1.000  C
  C101     1.0000 0.30398  0.41771  0.74420  Biso   1.000  C
  C102     1.0000 0.25450  0.37797  0.78760  Biso   1.000  C
  H57      1.0000 0.19330  0.37550  0.73880  Biso   1.000  H
  C103     1.0000 0.29740  0.34188  0.90500  Biso   1.000  C
  H58      1.0000 0.26360  0.31500  0.93250  Biso   1.000  H
  C104     1.0000 0.43090  0.38190  0.93760  Biso   1.000  C
  H59      1.0000 0.49170  0.38380  0.98990  Biso   1.000  H
  C105     1.0000 0.39430  0.41909  0.81960  Biso   1.000  C
  H60      1.0000 0.43020  0.44480  0.79130  Biso   1.000  H
  Cd7      1.0000 0.45314  0.22108  0.67201  Biso   1.000  Cd
  Cd8      1.0000 0.95840  0.02841  0.27039  Biso   1.000  Cd
  O25      1.0000 0.57316  0.17252  0.83100  Biso   1.000  O
  O26      1.0000 0.59760  0.19796  0.60040  Biso   1.000  O
  O27      1.0000 0.98127  0.04873  0.77710  Biso   1.000  O
  O28      1.0000 0.01199  0.06823  0.04830  Biso   1.000  O
  O29      1.0000 0.03661  0.09376  0.41740  Biso   1.000  O
  O30      1.0000 0.09414  0.02005  0.53230  Biso   1.000  O
  O31      1.0000 0.32388  0.22829  0.08250  Biso   1.000  O
  O32      1.0000 0.41535  0.21927  0.92180  Biso   1.000  O
  N19      1.0000 0.82452  0.08148  0.25270  Biso   1.000  N
  N20      1.0000 0.66440  0.13386  0.22100  Biso   1.000  N
  N21      1.0000 0.69215  0.99589  0.93010  Biso   1.000  N
  N22      1.0000 0.83780  0.00068  0.05940  Biso   1.000  N
  N23      1.0000 0.82378  0.96066  0.95300  Biso   1.000  N
  H61      1.0000 0.86430  0.94000  0.93600  Biso   1.000  H
  N24      1.0000 0.61605  0.84357  0.51950  Biso   1.000  N
  C106     1.0000 0.62170  0.17605  0.73640  Biso   1.000  C
  C107     1.0000 0.71293  0.15149  0.78460  Biso   1.000  C
  C108     1.0000 0.72670  0.10845  0.70050  Biso   1.000  C
  H62      1.0000 0.67980  0.09480  0.61720  Biso   1.000  H
  C109     1.0000 0.81020  0.08420  0.73710  Biso   1.000  C
  H63      1.0000 0.81850  0.05490  0.67670  Biso   1.000  H
  C110     1.0000 0.87980  0.10277  0.86000  Biso   1.000  C
  C111     1.0000 0.96459  0.07107  0.89680  Biso   1.000  C
  C112     1.0000 0.86956  0.14909  0.94880  Biso   1.000  C
  C113     1.0000 0.94100  0.17331  0.06760  Biso   1.000  C
  H64      1.0000 0.99780  0.15850  0.09280  Biso   1.000  H
  C114     1.0000 0.92700  0.21793  0.14470  Biso   1.000  C
  H65      1.0000 0.97470  0.23370  0.22090  Biso   1.000  H
  C115     1.0000 0.84210  0.24066  0.11130  Biso   1.000  C
  H66      1.0000 0.83350  0.27100  0.16650  Biso   1.000  H
  C116     1.0000 0.77250  0.21851  0.99890  Biso   1.000  C
  H67      1.0000 0.71610  0.23370  0.97880  Biso   1.000  H
  C117     1.0000 0.78354  0.17312  0.91190  Biso   1.000  C
  C118     1.0000 0.09410  0.06890  0.52520  Biso   1.000  C
  C119     1.0000 0.16250  0.10038  0.64890  Biso   1.000  C
  C120     1.0000 0.13450  0.14606  0.70450  Biso   1.000  C
  H68      1.0000 0.07450  0.15550  0.66950  Biso   1.000  H
  C121     1.0000 0.19530  0.17874  0.81360  Biso   1.000  C
  H69      1.0000 0.17490  0.20910  0.85250  Biso   1.000  H
  C122     1.0000 0.28346  0.16662  0.86310  Biso   1.000  C
  C123     1.0000 0.34548  0.20679  0.96410  Biso   1.000  C
  C124     1.0000 0.31516  0.11890  0.81450  Biso   1.000  C
  C125     1.0000 0.40540  0.10306  0.87150  Biso   1.000  C
  H70      1.0000 0.44570  0.12380  0.94770  Biso   1.000  H
  C126     1.0000 0.43420  0.05810  0.81650  Biso   1.000  C
  H71      1.0000 0.49400  0.04850  0.85480  Biso   1.000  H
  C127     1.0000 0.37480  0.02588  0.70270  Biso   1.000  C
  H72      1.0000 0.39540  0.99540  0.66450  Biso   1.000  H
  C128     1.0000 0.28650  0.03928  0.64790  Biso   1.000  C
  H73      1.0000 0.24760  0.01780  0.57200  Biso   1.000  H
  C129     1.0000 0.25363  0.08493  0.70420  Biso   1.000  C
  C130     1.0000 0.81880  0.12278  0.34420  Biso   1.000  C
  H74      1.0000 0.87000  0.13490  0.42060  Biso   1.000  H
  C131     1.0000 0.73890  0.14827  0.32940  Biso   1.000  C
  H75      1.0000 0.73740  0.17670  0.39830  Biso   1.000  H
  C132     1.0000 0.66970  0.09246  0.12660  Biso   1.000  C
  H76      1.0000 0.61850  0.08090  0.04880  Biso   1.000  H
  C133     1.0000 0.74896  0.06660  0.14220  Biso   1.000  C
  C134     1.0000 0.75754  0.02088  0.04210  Biso   1.000  C
  C135     1.0000 0.73657  0.95786  0.87760  Biso   1.000  C
  C136     1.0000 0.69602  0.91771  0.75580  Biso   1.000  C
  C137     1.0000 0.74550  0.87797  0.71240  Biso   1.000  C
  H77      1.0000 0.80670  0.87550  0.76120  Biso   1.000  H
  C138     1.0000 0.70260  0.84188  0.59500  Biso   1.000  C
  H78      1.0000 0.73640  0.81500  0.56750  Biso   1.000  H
  C139     1.0000 0.56910  0.88190  0.56240  Biso   1.000  C
  H79      1.0000 0.50830  0.88380  0.51010  Biso   1.000  H
  C140     1.0000 0.60570  0.91909  0.68040  Biso   1.000  C
  H80      1.0000 0.56980  0.94480  0.70870  Biso   1.000  H
