data_image0
_cell_length_a       21.0818
_cell_length_b       9.4766
_cell_length_c       33.6467
_cell_angle_alpha    90
_cell_angle_beta     126.573
_cell_angle_gamma    90

_symmetry_space_group_name_H-M    "P 1"
_symmetry_int_tables_number       1

loop_
  _symmetry_equiv_pos_as_xyz
  'x, y, z'

loop_
  _atom_site_label
  _atom_site_occupancy
  _atom_site_fract_x
  _atom_site_fract_y
  _atom_site_fract_z
  _atom_site_thermal_displace_type
  _atom_site_B_iso_or_equiv
  _atom_site_type_symbol
  Ba1      1.0000 0.02340  0.31807  0.27788  Biso   1.000  Ba
  Ba2      1.0000 0.12985  0.96353  0.36969  Biso   1.000  Ba
  P1       1.0000 0.49356  0.23430  0.34615  Biso   1.000  P
  P2       1.0000 0.43370  0.44270  0.27510  Biso   1.000  P
  P3       1.0000 0.51167  0.51590  0.37301  Biso   1.000  P
  O1       1.0000 0.45300  0.11030  0.35540  Biso   1.000  O
  O2       1.0000 0.34930  0.47860  0.22600  Biso   1.000  O
  O3       1.0000 0.47950  0.59630  0.39940  Biso   1.000  O
  O4       1.0000 0.59340  0.59400  0.39810  Biso   1.000  O
  O5       1.0000 0.47890  0.46700  0.25100  Biso   1.000  O
  O6       1.0000 0.56420  0.15090  0.35310  Biso   1.000  O
  O7       1.0000 0.09440  0.06790  0.27820  Biso   1.000  O
  O8       1.0000 0.08600  0.96000  0.21630  Biso   1.000  O
  O9       1.0000 0.02660  0.39730  0.20040  Biso   1.000  O
  O10      1.0000 0.01750  0.62300  0.17820  Biso   1.000  O
  O11      1.0000 0.11150  0.54130  0.29910  Biso   1.000  O
  O12      1.0000 0.12720  0.77050  0.31050  Biso   1.000  O
  O13      1.0000 0.90610  0.61070  0.61950  Biso   1.000  O
  O14      1.0000 0.83220  0.76000  0.62650  Biso   1.000  O
  O15      1.0000 0.84700  0.59290  0.37950  Biso   1.000  O
  O16      1.0000 0.84750  0.35900  0.37070  Biso   1.000  O
  O17      1.0000 0.87320  0.92440  0.55820  Biso   1.000  O
  O18      1.0000 0.88120  0.81020  0.50440  Biso   1.000  O
  N1       1.0000 0.43870  0.28380  0.28990  Biso   1.000  N
  N2       1.0000 0.46000  0.55810  0.31660  Biso   1.000  N
  N3       1.0000 0.52180  0.35400  0.38660  Biso   1.000  N
  C1       1.0000 0.37030  0.09570  0.32900  Biso   1.000  C
  C2       1.0000 0.32620  0.03980  0.28300  Biso   1.000  C
  H1       1.0000 0.34930  0.01630  0.26750  Biso   1.000  H
  C3       1.0000 0.24520  0.01740  0.25890  Biso   1.000  C
  H2       1.0000 0.21480  0.97540  0.22780  Biso   1.000  H
  C4       1.0000 0.21040  0.05810  0.28170  Biso   1.000  C
  C5       1.0000 0.25670  0.11510  0.32860  Biso   1.000  C
  H3       1.0000 0.23390  0.14180  0.34410  Biso   1.000  H
  C6       1.0000 0.33760  0.13270  0.35280  Biso   1.000  C
  H4       1.0000 0.36920  0.16900  0.38480  Biso   1.000  H
  C7       1.0000 0.12460  0.02800  0.25680  Biso   1.000  C
  C8       1.0000 0.28070  0.48260  0.22480  Biso   1.000  C
  C9       1.0000 0.23690  0.36220  0.21260  Biso   1.000  C
  H5       1.0000 0.25540  0.27640  0.20980  Biso   1.000  H
  C10      1.0000 0.16470  0.37090  0.20430  Biso   1.000  C
  H6       1.0000 0.13490  0.28950  0.19690  Biso   1.000  H
  C11      1.0000 0.13550  0.50010  0.20700  Biso   1.000  C
  C12      1.0000 0.18270  0.62120  0.22090  Biso   1.000  C
  H7       1.0000 0.16460  0.70770  0.22350  Biso   1.000  H
  C13      1.0000 0.25650  0.61090  0.23080  Biso   1.000  C
  H8       1.0000 0.28920  0.68950  0.24120  Biso   1.000  H
  C14      1.0000 0.05520  0.50780  0.19530  Biso   1.000  C
  C15      1.0000 0.39860  0.60630  0.37740  Biso   1.000  C
  C16      1.0000 0.35430  0.48420  0.36760  Biso   1.000  C
  H9       1.0000 0.37700  0.39500  0.37480  Biso   1.000  H
  C17      1.0000 0.27560  0.50180  0.34680  Biso   1.000  C
  H10      1.0000 0.24460  0.42180  0.33870  Biso   1.000  H
  C18      1.0000 0.24030  0.63200  0.33740  Biso   1.000  C
  C19      1.0000 0.28750  0.74880  0.34890  Biso   1.000  C
  H11      1.0000 0.26560  0.83820  0.34350  Biso   1.000  H
  C20      1.0000 0.36600  0.73680  0.36830  Biso   1.000  C
  H12      1.0000 0.39630  0.81700  0.37500  Biso   1.000  H
  C21      1.0000 0.15380  0.64580  0.31440  Biso   1.000  C
  C22      1.0000 0.65130  0.60680  0.44990  Biso   1.000  C
  C23      1.0000 0.64350  0.70690  0.47600  Biso   1.000  C
  H13      1.0000 0.59790  0.76130  0.46080  Biso   1.000  H
  C24      1.0000 0.70480  0.72530  0.52560  Biso   1.000  C
  H14      1.0000 0.70060  0.79500  0.54340  Biso   1.000  H
  C25      1.0000 0.77300  0.64210  0.54970  Biso   1.000  C
  C26      1.0000 0.77860  0.54400  0.52120  Biso   1.000  C
  H15      1.0000 0.82430  0.49020  0.53600  Biso   1.000  H
  C27      1.0000 0.71850  0.52400  0.47170  Biso   1.000  C
  H16      1.0000 0.72300  0.45660  0.45340  Biso   1.000  H
  C28      1.0000 0.84160  0.67200  0.60180  Biso   1.000  C
  C29      1.0000 0.56230  0.46600  0.28310  Biso   1.000  C
  C30      1.0000 0.60170  0.59260  0.30330  Biso   1.000  C
  H17      1.0000 0.57390  0.67560  0.29750  Biso   1.000  H
  C31      1.0000 0.68390  0.59310  0.33230  Biso   1.000  C
  H18      1.0000 0.71130  0.67750  0.34540  Biso   1.000  H
  C32      1.0000 0.72600  0.46560  0.34210  Biso   1.000  C
  C33      1.0000 0.68430  0.34230  0.32260  Biso   1.000  C
  H19      1.0000 0.71160  0.25820  0.32910  Biso   1.000  H
  C34      1.0000 0.60220  0.33950  0.29340  Biso   1.000  C
  H20      1.0000 0.57480  0.25480  0.28100  Biso   1.000  H
  C35      1.0000 0.81380  0.47330  0.36690  Biso   1.000  C
  C36      1.0000 0.63110  0.08760  0.39490  Biso   1.000  C
  C37      1.0000 0.67220  0.14520  0.44120  Biso   1.000  C
  H21      1.0000 0.65440  0.22690  0.44690  Biso   1.000  H
  C38      1.0000 0.74240  0.07840  0.48020  Biso   1.000  C
  H22      1.0000 0.76980  0.11500  0.51200  Biso   1.000  H
  C39      1.0000 0.77030  0.96350  0.47210  Biso   1.000  C
  C40      1.0000 0.72790  0.90700  0.42500  Biso   1.000  C
  H23      1.0000 0.74590  0.82580  0.41910  Biso   1.000  H
  C41      1.0000 0.65930  0.97050  0.38690  Biso   1.000  C
  H24      1.0000 0.63170  0.93270  0.35520  Biso   1.000  H
  C42      1.0000 0.84610  0.89520  0.51410  Biso   1.000  C
  Ba3      1.0000 0.00284  0.78476  0.09780  Biso   1.000  Ba
  Ba4      1.0000 0.97660  0.81807  0.22212  Biso   1.000  Ba
  Ba5      1.0000 0.87015  0.46353  0.13031  Biso   1.000  Ba
  P4       1.0000 0.50644  0.73430  0.15385  Biso   1.000  P
  P5       1.0000 0.56630  0.94270  0.22490  Biso   1.000  P
  P6       1.0000 0.48833  0.01590  0.12699  Biso   1.000  P
  O19      1.0000 0.54700  0.61030  0.14460  Biso   1.000  O
  O20      1.0000 0.65070  0.97860  0.27400  Biso   1.000  O
  O21      1.0000 0.52050  0.09630  0.10060  Biso   1.000  O
  O22      1.0000 0.40660  0.09400  0.10190  Biso   1.000  O
  O23      1.0000 0.52110  0.96700  0.24900  Biso   1.000  O
  O24      1.0000 0.43580  0.65090  0.14690  Biso   1.000  O
  O25      1.0000 0.90560  0.56790  0.22180  Biso   1.000  O
  O26      1.0000 0.91400  0.46000  0.28370  Biso   1.000  O
  O27      1.0000 0.97340  0.89730  0.29960  Biso   1.000  O
  O28      1.0000 0.98250  0.12300  0.32180  Biso   1.000  O
  O29      1.0000 0.88850  0.04130  0.20090  Biso   1.000  O
  O30      1.0000 0.87280  0.27050  0.18950  Biso   1.000  O
  O31      1.0000 0.09390  0.11070  0.88050  Biso   1.000  O
  O32      1.0000 0.16780  0.26000  0.87350  Biso   1.000  O
  O33      1.0000 0.15300  0.09290  0.12050  Biso   1.000  O
  O34      1.0000 0.15250  0.85900  0.12930  Biso   1.000  O
  O35      1.0000 0.12680  0.42440  0.94180  Biso   1.000  O
  O36      1.0000 0.11880  0.31020  0.99560  Biso   1.000  O
  N4       1.0000 0.56130  0.78380  0.21010  Biso   1.000  N
  N5       1.0000 0.54000  0.05810  0.18340  Biso   1.000  N
  N6       1.0000 0.47820  0.85400  0.11340  Biso   1.000  N
  C43      1.0000 0.62970  0.59570  0.17100  Biso   1.000  C
  C44      1.0000 0.67380  0.53980  0.21700  Biso   1.000  C
  H25      1.0000 0.65070  0.51630  0.23250  Biso   1.000  H
  C45      1.0000 0.75480  0.51740  0.24110  Biso   1.000  C
  H26      1.0000 0.78520  0.47540  0.27220  Biso   1.000  H
  C46      1.0000 0.78960  0.55810  0.21830  Biso   1.000  C
  C47      1.0000 0.74330  0.61510  0.17140  Biso   1.000  C
  H27      1.0000 0.76610  0.64180  0.15590  Biso   1.000  H
  C48      1.0000 0.66240  0.63270  0.14720  Biso   1.000  C
  H28      1.0000 0.63080  0.66900  0.11520  Biso   1.000  H
  C49      1.0000 0.87540  0.52800  0.24320  Biso   1.000  C
  C50      1.0000 0.71930  0.98260  0.27520  Biso   1.000  C
  C51      1.0000 0.76310  0.86220  0.28740  Biso   1.000  C
  H29      1.0000 0.74460  0.77640  0.29020  Biso   1.000  H
  C52      1.0000 0.83530  0.87090  0.29570  Biso   1.000  C
  H30      1.0000 0.86510  0.78950  0.30310  Biso   1.000  H
  C53      1.0000 0.86450  0.00010  0.29300  Biso   1.000  C
  C54      1.0000 0.81730  0.12120  0.27910  Biso   1.000  C
  H31      1.0000 0.83540  0.20770  0.27650  Biso   1.000  H
  C55      1.0000 0.74350  0.11090  0.26920  Biso   1.000  C
  H32      1.0000 0.71080  0.18950  0.25880  Biso   1.000  H
  C56      1.0000 0.94480  0.00780  0.30470  Biso   1.000  C
  C57      1.0000 0.60140  0.10630  0.12260  Biso   1.000  C
  C58      1.0000 0.64570  0.98420  0.13240  Biso   1.000  C
  H33      1.0000 0.62300  0.89500  0.12520  Biso   1.000  H
  C59      1.0000 0.72440  0.00180  0.15320  Biso   1.000  C
  H34      1.0000 0.75540  0.92180  0.16130  Biso   1.000  H
  C60      1.0000 0.75970  0.13200  0.16260  Biso   1.000  C
  C61      1.0000 0.71250  0.24880  0.15110  Biso   1.000  C
  H35      1.0000 0.73440  0.33820  0.15650  Biso   1.000  H
  C62      1.0000 0.63400  0.23680  0.13170  Biso   1.000  C
  H36      1.0000 0.60370  0.31700  0.12500  Biso   1.000  H
  C63      1.0000 0.84620  0.14580  0.18560  Biso   1.000  C
  C64      1.0000 0.34870  0.10680  0.05010  Biso   1.000  C
  C65      1.0000 0.35650  0.20690  0.02400  Biso   1.000  C
  H37      1.0000 0.40210  0.26130  0.03920  Biso   1.000  H
  C66      1.0000 0.29520  0.22530  0.97440  Biso   1.000  C
  H38      1.0000 0.29940  0.29500  0.95660  Biso   1.000  H
  C67      1.0000 0.22700  0.14210  0.95030  Biso   1.000  C
  C68      1.0000 0.22140  0.04400  0.97880  Biso   1.000  C
  H39      1.0000 0.17570  0.99020  0.96400  Biso   1.000  H
  C69      1.0000 0.28150  0.02400  0.02830  Biso   1.000  C
  H40      1.0000 0.27700  0.95660  0.04660  Biso   1.000  H
  C70      1.0000 0.15840  0.17200  0.89820  Biso   1.000  C
  C71      1.0000 0.43770  0.96600  0.21690  Biso   1.000  C
  C72      1.0000 0.39830  0.09260  0.19670  Biso   1.000  C
  H41      1.0000 0.42610  0.17560  0.20250  Biso   1.000  H
  C73      1.0000 0.31610  0.09310  0.16770  Biso   1.000  C
  H42      1.0000 0.28870  0.17750  0.15460  Biso   1.000  H
  C74      1.0000 0.27400  0.96560  0.15790  Biso   1.000  C
  C75      1.0000 0.31570  0.84230  0.17740  Biso   1.000  C
  H43      1.0000 0.28840  0.75820  0.17090  Biso   1.000  H
  C76      1.0000 0.39780  0.83950  0.20660  Biso   1.000  C
  H44      1.0000 0.42520  0.75480  0.21900  Biso   1.000  H
  C77      1.0000 0.18620  0.97330  0.13310  Biso   1.000  C
  C78      1.0000 0.36890  0.58760  0.10510  Biso   1.000  C
  C79      1.0000 0.32780  0.64520  0.05880  Biso   1.000  C
  H45      1.0000 0.34560  0.72690  0.05310  Biso   1.000  H
  C80      1.0000 0.25760  0.57840  0.01980  Biso   1.000  C
  H46      1.0000 0.23020  0.61500  0.98800  Biso   1.000  H
  C81      1.0000 0.22970  0.46350  0.02790  Biso   1.000  C
  C82      1.0000 0.27210  0.40700  0.07500  Biso   1.000  C
  H47      1.0000 0.25410  0.32580  0.08090  Biso   1.000  H
  C83      1.0000 0.34070  0.47050  0.11310  Biso   1.000  C
  H48      1.0000 0.36830  0.43270  0.14480  Biso   1.000  H
  C84      1.0000 0.15390  0.39520  0.98590  Biso   1.000  C
  Ba6      1.0000 0.99716  0.28476  0.40220  Biso   1.000  Ba
  Ba7      1.0000 0.97660  0.68193  0.72212  Biso   1.000  Ba
  Ba8      1.0000 0.87015  0.03647  0.63031  Biso   1.000  Ba
  P7       1.0000 0.50644  0.76570  0.65385  Biso   1.000  P
  P8       1.0000 0.56630  0.55730  0.72490  Biso   1.000  P
  P9       1.0000 0.48833  0.48410  0.62699  Biso   1.000  P
  O37      1.0000 0.54700  0.88970  0.64460  Biso   1.000  O
  O38      1.0000 0.65070  0.52140  0.77400  Biso   1.000  O
  O39      1.0000 0.52050  0.40370  0.60060  Biso   1.000  O
  O40      1.0000 0.40660  0.40600  0.60190  Biso   1.000  O
  O41      1.0000 0.52110  0.53300  0.74900  Biso   1.000  O
  O42      1.0000 0.43580  0.84910  0.64690  Biso   1.000  O
  O43      1.0000 0.90560  0.93210  0.72180  Biso   1.000  O
  O44      1.0000 0.91400  0.04000  0.78370  Biso   1.000  O
  O45      1.0000 0.97340  0.60270  0.79960  Biso   1.000  O
  O46      1.0000 0.98250  0.37700  0.82180  Biso   1.000  O
  O47      1.0000 0.88850  0.45870  0.70090  Biso   1.000  O
  O48      1.0000 0.87280  0.22950  0.68950  Biso   1.000  O
  O49      1.0000 0.09390  0.38930  0.38050  Biso   1.000  O
  O50      1.0000 0.16780  0.24000  0.37350  Biso   1.000  O
  O51      1.0000 0.15300  0.40710  0.62050  Biso   1.000  O
  O52      1.0000 0.15250  0.64100  0.62930  Biso   1.000  O
  O53      1.0000 0.12680  0.07560  0.44180  Biso   1.000  O
  O54      1.0000 0.11880  0.18980  0.49560  Biso   1.000  O
  N7       1.0000 0.56130  0.71620  0.71010  Biso   1.000  N
  N8       1.0000 0.54000  0.44190  0.68340  Biso   1.000  N
  N9       1.0000 0.47820  0.64600  0.61340  Biso   1.000  N
  C85      1.0000 0.62970  0.90430  0.67100  Biso   1.000  C
  C86      1.0000 0.67380  0.96020  0.71700  Biso   1.000  C
  H49      1.0000 0.65070  0.98370  0.73250  Biso   1.000  H
  C87      1.0000 0.75480  0.98260  0.74110  Biso   1.000  C
  H50      1.0000 0.78520  0.02460  0.77220  Biso   1.000  H
  C88      1.0000 0.78960  0.94190  0.71830  Biso   1.000  C
  C89      1.0000 0.74330  0.88490  0.67140  Biso   1.000  C
  H51      1.0000 0.76610  0.85820  0.65590  Biso   1.000  H
  C90      1.0000 0.66240  0.86730  0.64720  Biso   1.000  C
  H52      1.0000 0.63080  0.83100  0.61520  Biso   1.000  H
  C91      1.0000 0.87540  0.97200  0.74320  Biso   1.000  C
  C92      1.0000 0.71930  0.51740  0.77520  Biso   1.000  C
  C93      1.0000 0.76310  0.63780  0.78740  Biso   1.000  C
  H53      1.0000 0.74460  0.72360  0.79020  Biso   1.000  H
  C94      1.0000 0.83530  0.62910  0.79570  Biso   1.000  C
  H54      1.0000 0.86510  0.71050  0.80310  Biso   1.000  H
  C95      1.0000 0.86450  0.49990  0.79300  Biso   1.000  C
  C96      1.0000 0.81730  0.37880  0.77910  Biso   1.000  C
  H55      1.0000 0.83540  0.29230  0.77650  Biso   1.000  H
  C97      1.0000 0.74350  0.38910  0.76920  Biso   1.000  C
  H56      1.0000 0.71080  0.31050  0.75880  Biso   1.000  H
  C98      1.0000 0.94480  0.49220  0.80470  Biso   1.000  C
  C99      1.0000 0.60140  0.39370  0.62260  Biso   1.000  C
  C100     1.0000 0.64570  0.51580  0.63240  Biso   1.000  C
  H57      1.0000 0.62300  0.60500  0.62520  Biso   1.000  H
  C101     1.0000 0.72440  0.49820  0.65320  Biso   1.000  C
  H58      1.0000 0.75540  0.57820  0.66130  Biso   1.000  H
  C102     1.0000 0.75970  0.36800  0.66260  Biso   1.000  C
  C103     1.0000 0.71250  0.25120  0.65110  Biso   1.000  C
  H59      1.0000 0.73440  0.16180  0.65650  Biso   1.000  H
  C104     1.0000 0.63400  0.26320  0.63170  Biso   1.000  C
  H60      1.0000 0.60370  0.18300  0.62500  Biso   1.000  H
  C105     1.0000 0.84620  0.35420  0.68560  Biso   1.000  C
  C106     1.0000 0.34870  0.39320  0.55010  Biso   1.000  C
  C107     1.0000 0.35650  0.29310  0.52400  Biso   1.000  C
  H61      1.0000 0.40210  0.23870  0.53920  Biso   1.000  H
  C108     1.0000 0.29520  0.27470  0.47440  Biso   1.000  C
  H62      1.0000 0.29940  0.20500  0.45660  Biso   1.000  H
  C109     1.0000 0.22700  0.35790  0.45030  Biso   1.000  C
  C110     1.0000 0.22140  0.45600  0.47880  Biso   1.000  C
  H63      1.0000 0.17570  0.50980  0.46400  Biso   1.000  H
  C111     1.0000 0.28150  0.47600  0.52830  Biso   1.000  C
  H64      1.0000 0.27700  0.54340  0.54660  Biso   1.000  H
  C112     1.0000 0.15840  0.32800  0.39820  Biso   1.000  C
  C113     1.0000 0.43770  0.53400  0.71690  Biso   1.000  C
  C114     1.0000 0.39830  0.40740  0.69670  Biso   1.000  C
  H65      1.0000 0.42610  0.32440  0.70250  Biso   1.000  H
  C115     1.0000 0.31610  0.40690  0.66770  Biso   1.000  C
  H66      1.0000 0.28870  0.32250  0.65460  Biso   1.000  H
  C116     1.0000 0.27400  0.53440  0.65790  Biso   1.000  C
  C117     1.0000 0.31570  0.65770  0.67740  Biso   1.000  C
  H67      1.0000 0.28840  0.74180  0.67090  Biso   1.000  H
  C118     1.0000 0.39780  0.66050  0.70660  Biso   1.000  C
  H68      1.0000 0.42520  0.74520  0.71900  Biso   1.000  H
  C119     1.0000 0.18620  0.52670  0.63310  Biso   1.000  C
  C120     1.0000 0.36890  0.91240  0.60510  Biso   1.000  C
  C121     1.0000 0.32780  0.85480  0.55880  Biso   1.000  C
  H69      1.0000 0.34560  0.77310  0.55310  Biso   1.000  H
  C122     1.0000 0.25760  0.92160  0.51980  Biso   1.000  C
  H70      1.0000 0.23020  0.88500  0.48800  Biso   1.000  H
  C123     1.0000 0.22970  0.03650  0.52790  Biso   1.000  C
  C124     1.0000 0.27210  0.09300  0.57500  Biso   1.000  C
  H71      1.0000 0.25410  0.17420  0.58090  Biso   1.000  H
  C125     1.0000 0.34070  0.02950  0.61310  Biso   1.000  C
  H72      1.0000 0.36830  0.06730  0.64480  Biso   1.000  H
  C126     1.0000 0.15390  0.10480  0.48590  Biso   1.000  C
  Ba9      1.0000 0.99716  0.21524  0.90220  Biso   1.000  Ba
  Ba10     1.0000 0.02340  0.18193  0.77788  Biso   1.000  Ba
  Ba11     1.0000 0.12985  0.53647  0.86969  Biso   1.000  Ba
  P10      1.0000 0.49356  0.26570  0.84615  Biso   1.000  P
  P11      1.0000 0.43370  0.05730  0.77510  Biso   1.000  P
  P12      1.0000 0.51167  0.98410  0.87301  Biso   1.000  P
  O55      1.0000 0.45300  0.38970  0.85540  Biso   1.000  O
  O56      1.0000 0.34930  0.02140  0.72600  Biso   1.000  O
  O57      1.0000 0.47950  0.90370  0.89940  Biso   1.000  O
  O58      1.0000 0.59340  0.90600  0.89810  Biso   1.000  O
  O59      1.0000 0.47890  0.03300  0.75100  Biso   1.000  O
  O60      1.0000 0.56420  0.34910  0.85310  Biso   1.000  O
  O61      1.0000 0.09440  0.43210  0.77820  Biso   1.000  O
  O62      1.0000 0.08600  0.54000  0.71630  Biso   1.000  O
  O63      1.0000 0.02660  0.10270  0.70040  Biso   1.000  O
  O64      1.0000 0.01750  0.87700  0.67820  Biso   1.000  O
  O65      1.0000 0.11150  0.95870  0.79910  Biso   1.000  O
  O66      1.0000 0.12720  0.72950  0.81050  Biso   1.000  O
  O67      1.0000 0.90610  0.88930  0.11950  Biso   1.000  O
  O68      1.0000 0.83220  0.74000  0.12650  Biso   1.000  O
  O69      1.0000 0.84700  0.90710  0.87950  Biso   1.000  O
  O70      1.0000 0.84750  0.14100  0.87070  Biso   1.000  O
  O71      1.0000 0.87320  0.57560  0.05820  Biso   1.000  O
  O72      1.0000 0.88120  0.68980  0.00440  Biso   1.000  O
  N10      1.0000 0.43870  0.21620  0.78990  Biso   1.000  N
  N11      1.0000 0.46000  0.94190  0.81660  Biso   1.000  N
  N12      1.0000 0.52180  0.14600  0.88660  Biso   1.000  N
  C127     1.0000 0.37030  0.40430  0.82900  Biso   1.000  C
  C128     1.0000 0.32620  0.46020  0.78300  Biso   1.000  C
  H73      1.0000 0.34930  0.48370  0.76750  Biso   1.000  H
  C129     1.0000 0.24520  0.48260  0.75890  Biso   1.000  C
  H74      1.0000 0.21480  0.52460  0.72780  Biso   1.000  H
  C130     1.0000 0.21040  0.44190  0.78170  Biso   1.000  C
  C131     1.0000 0.25670  0.38490  0.82860  Biso   1.000  C
  H75      1.0000 0.23390  0.35820  0.84410  Biso   1.000  H
  C132     1.0000 0.33760  0.36730  0.85280  Biso   1.000  C
  H76      1.0000 0.36920  0.33100  0.88480  Biso   1.000  H
  C133     1.0000 0.12460  0.47200  0.75680  Biso   1.000  C
  C134     1.0000 0.28070  0.01740  0.72480  Biso   1.000  C
  C135     1.0000 0.23690  0.13780  0.71260  Biso   1.000  C
  H77      1.0000 0.25540  0.22360  0.70980  Biso   1.000  H
  C136     1.0000 0.16470  0.12910  0.70430  Biso   1.000  C
  H78      1.0000 0.13490  0.21050  0.69690  Biso   1.000  H
  C137     1.0000 0.13550  0.99990  0.70700  Biso   1.000  C
  C138     1.0000 0.18270  0.87880  0.72090  Biso   1.000  C
  H79      1.0000 0.16460  0.79230  0.72350  Biso   1.000  H
  C139     1.0000 0.25650  0.88910  0.73080  Biso   1.000  C
  H80      1.0000 0.28920  0.81050  0.74120  Biso   1.000  H
  C140     1.0000 0.05520  0.99220  0.69530  Biso   1.000  C
  C141     1.0000 0.39860  0.89370  0.87740  Biso   1.000  C
  C142     1.0000 0.35430  0.01580  0.86760  Biso   1.000  C
  H81      1.0000 0.37700  0.10500  0.87480  Biso   1.000  H
  C143     1.0000 0.27560  0.99820  0.84680  Biso   1.000  C
  H82      1.0000 0.24460  0.07820  0.83870  Biso   1.000  H
  C144     1.0000 0.24030  0.86800  0.83740  Biso   1.000  C
  C145     1.0000 0.28750  0.75120  0.84890  Biso   1.000  C
  H83      1.0000 0.26560  0.66180  0.84350  Biso   1.000  H
  C146     1.0000 0.36600  0.76320  0.86830  Biso   1.000  C
  H84      1.0000 0.39630  0.68300  0.87500  Biso   1.000  H
  C147     1.0000 0.15380  0.85420  0.81440  Biso   1.000  C
  C148     1.0000 0.65130  0.89320  0.94990  Biso   1.000  C
  C149     1.0000 0.64350  0.79310  0.97600  Biso   1.000  C
  H85      1.0000 0.59790  0.73870  0.96080  Biso   1.000  H
  C150     1.0000 0.70480  0.77470  0.02560  Biso   1.000  C
  H86      1.0000 0.70060  0.70500  0.04340  Biso   1.000  H
  C151     1.0000 0.77300  0.85790  0.04970  Biso   1.000  C
  C152     1.0000 0.77860  0.95600  0.02120  Biso   1.000  C
  H87      1.0000 0.82430  0.00980  0.03600  Biso   1.000  H
  C153     1.0000 0.71850  0.97600  0.97170  Biso   1.000  C
  H88      1.0000 0.72300  0.04340  0.95340  Biso   1.000  H
  C154     1.0000 0.84160  0.82800  0.10180  Biso   1.000  C
  C155     1.0000 0.56230  0.03400  0.78310  Biso   1.000  C
  C156     1.0000 0.60170  0.90740  0.80330  Biso   1.000  C
  H89      1.0000 0.57390  0.82440  0.79750  Biso   1.000  H
  C157     1.0000 0.68390  0.90690  0.83230  Biso   1.000  C
  H90      1.0000 0.71130  0.82250  0.84540  Biso   1.000  H
  C158     1.0000 0.72600  0.03440  0.84210  Biso   1.000  C
  C159     1.0000 0.68430  0.15770  0.82260  Biso   1.000  C
  H91      1.0000 0.71160  0.24180  0.82910  Biso   1.000  H
  C160     1.0000 0.60220  0.16050  0.79340  Biso   1.000  C
  H92      1.0000 0.57480  0.24520  0.78100  Biso   1.000  H
  C161     1.0000 0.81380  0.02670  0.86690  Biso   1.000  C
  C162     1.0000 0.63110  0.41240  0.89490  Biso   1.000  C
  C163     1.0000 0.67220  0.35480  0.94120  Biso   1.000  C
  H93      1.0000 0.65440  0.27310  0.94690  Biso   1.000  H
  C164     1.0000 0.74240  0.42160  0.98020  Biso   1.000  C
  H94      1.0000 0.76980  0.38500  0.01200  Biso   1.000  H
  C165     1.0000 0.77030  0.53650  0.97210  Biso   1.000  C
  C166     1.0000 0.72790  0.59300  0.92500  Biso   1.000  C
  H95      1.0000 0.74590  0.67420  0.91910  Biso   1.000  H
  C167     1.0000 0.65930  0.52950  0.88690  Biso   1.000  C
  H96      1.0000 0.63170  0.56730  0.85520  Biso   1.000  H
  C168     1.0000 0.84610  0.60480  0.01410  Biso   1.000  C
  Ba12     1.0000 0.00284  0.71524  0.59780  Biso   1.000  Ba
