data_image0
_cell_length_a       18.571
_cell_length_b       18.571
_cell_length_c       28.8779
_cell_angle_alpha    90
_cell_angle_beta     90
_cell_angle_gamma    120

_symmetry_space_group_name_H-M    "P 1"
_symmetry_int_tables_number       1

loop_
  _symmetry_equiv_pos_as_xyz
  'x, y, z'

loop_
  _atom_site_label
  _atom_site_occupancy
  _atom_site_fract_x
  _atom_site_fract_y
  _atom_site_fract_z
  _atom_site_thermal_displace_type
  _atom_site_B_iso_or_equiv
  _atom_site_type_symbol
  P1       1.0000 0.62764  0.23559  0.96178  Biso   1.000  P
  O1       1.0000 0.59460  0.15730  0.99521  Biso   1.000  O
  O2       1.0000 0.61840  0.19280  0.91324  Biso   1.000  O
  O3       1.0000 0.37740  0.12780  0.17005  Biso   1.000  O
  O4       1.0000 0.50120  0.21920  0.19891  Biso   1.000  O
  O5       1.0000 0.26890  0.96130  0.81580  Biso   1.000  O
  O6       1.0000 0.33690  0.89480  0.80080  Biso   1.000  O
  N1       1.0000 0.57000  0.27530  0.96721  Biso   1.000  N
  C1       1.0000 0.45490  0.17010  0.16716  Biso   1.000  C
  C2       1.0000 0.49380  0.16580  0.12324  Biso   1.000  C
  C3       1.0000 0.44270  0.12180  0.08532  Biso   1.000  C
  H1       1.0000 0.38530  0.09400  0.08900  Biso   1.000  H
  C4       1.0000 0.47510  0.11880  0.04338  Biso   1.000  C
  H2       1.0000 0.44020  0.09070  0.01860  Biso   1.000  H
  C5       1.0000 0.56180  0.15870  0.03816  Biso   1.000  C
  C6       1.0000 0.61390  0.20070  0.07542  Biso   1.000  C
  H3       1.0000 0.67130  0.22560  0.07200  Biso   1.000  H
  C7       1.0000 0.58070  0.20550  0.11760  Biso   1.000  C
  H4       1.0000 0.61580  0.23480  0.14210  Biso   1.000  H
  C8       1.0000 0.32920  0.94920  0.81980  Biso   1.000  C
  C9       1.0000 0.40390  0.01540  0.84700  Biso   1.000  C
  C10      1.0000 0.41130  0.08950  0.85990  Biso   1.000  C
  H5       1.0000 0.36840  0.10010  0.85310  Biso   1.000  H
  C11      1.0000 0.48210  0.15020  0.88320  Biso   1.000  C
  H6       1.0000 0.48750  0.20100  0.89160  Biso   1.000  H
  C12      1.0000 0.54220  0.13160  0.89281  Biso   1.000  C
  C13      1.0000 0.53670  0.05900  0.88190  Biso   1.000  C
  H7       1.0000 0.57860  0.04790  0.88990  Biso   1.000  H
  C14      1.0000 0.46620  0.00070  0.85810  Biso   1.000  C
  H8       1.0000 0.46180  0.95030  0.84960  Biso   1.000  H
  P2       1.0000 0.76441  0.39205  0.96178  Biso   1.000  P
  O7       1.0000 0.84270  0.43730  0.99521  Biso   1.000  O
  O8       1.0000 0.80720  0.42560  0.91324  Biso   1.000  O
  O9       1.0000 0.87220  0.24960  0.17005  Biso   1.000  O
  O10      1.0000 0.78080  0.28200  0.19891  Biso   1.000  O
  O11      1.0000 0.03870  0.30760  0.81580  Biso   1.000  O
  O12      1.0000 0.10520  0.44210  0.80080  Biso   1.000  O
  N2       1.0000 0.72470  0.29470  0.96721  Biso   1.000  N
  C15      1.0000 0.82990  0.28480  0.16716  Biso   1.000  C
  C16      1.0000 0.83420  0.32800  0.12324  Biso   1.000  C
  C17      1.0000 0.87820  0.32090  0.08532  Biso   1.000  C
  H9       1.0000 0.90600  0.29130  0.08900  Biso   1.000  H
  C18      1.0000 0.88120  0.35630  0.04338  Biso   1.000  C
  H10      1.0000 0.90930  0.34950  0.01860  Biso   1.000  H
  C19      1.0000 0.84130  0.40310  0.03816  Biso   1.000  C
  C20      1.0000 0.79930  0.41320  0.07542  Biso   1.000  C
  H11      1.0000 0.77440  0.44570  0.07200  Biso   1.000  H
  C21      1.0000 0.79450  0.37520  0.11760  Biso   1.000  C
  H12      1.0000 0.76520  0.38100  0.14210  Biso   1.000  H
  C22      1.0000 0.05080  0.38000  0.81980  Biso   1.000  C
  C23      1.0000 0.98460  0.38850  0.84700  Biso   1.000  C
  C24      1.0000 0.91050  0.32180  0.85990  Biso   1.000  C
  H13      1.0000 0.89990  0.26830  0.85310  Biso   1.000  H
  C25      1.0000 0.84980  0.33190  0.88320  Biso   1.000  C
  H14      1.0000 0.79900  0.28650  0.89160  Biso   1.000  H
  C26      1.0000 0.86840  0.41060  0.89281  Biso   1.000  C
  C27      1.0000 0.94100  0.47770  0.88190  Biso   1.000  C
  H15      1.0000 0.95210  0.53070  0.88990  Biso   1.000  H
  C28      1.0000 0.99930  0.46550  0.85810  Biso   1.000  C
  H16      1.0000 0.04970  0.51150  0.84960  Biso   1.000  H
  P3       1.0000 0.60795  0.37236  0.96178  Biso   1.000  P
  O13      1.0000 0.56270  0.40540  0.99521  Biso   1.000  O
  O14      1.0000 0.57440  0.38160  0.91324  Biso   1.000  O
  O15      1.0000 0.75040  0.62260  0.17005  Biso   1.000  O
  O16      1.0000 0.71800  0.49880  0.19891  Biso   1.000  O
  O17      1.0000 0.69240  0.73110  0.81580  Biso   1.000  O
  O18      1.0000 0.55790  0.66310  0.80080  Biso   1.000  O
  N3       1.0000 0.70530  0.43000  0.96721  Biso   1.000  N
  C29      1.0000 0.71520  0.54510  0.16716  Biso   1.000  C
  C30      1.0000 0.67200  0.50620  0.12324  Biso   1.000  C
  C31      1.0000 0.67910  0.55730  0.08532  Biso   1.000  C
  H17      1.0000 0.70870  0.61470  0.08900  Biso   1.000  H
  C32      1.0000 0.64370  0.52490  0.04338  Biso   1.000  C
  H18      1.0000 0.65050  0.55980  0.01860  Biso   1.000  H
  C33      1.0000 0.59690  0.43820  0.03816  Biso   1.000  C
  C34      1.0000 0.58680  0.38610  0.07542  Biso   1.000  C
  H19      1.0000 0.55430  0.32870  0.07200  Biso   1.000  H
  C35      1.0000 0.62480  0.41930  0.11760  Biso   1.000  C
  H20      1.0000 0.61900  0.38420  0.14210  Biso   1.000  H
  C36      1.0000 0.62000  0.67080  0.81980  Biso   1.000  C
  C37      1.0000 0.61150  0.59610  0.84700  Biso   1.000  C
  C38      1.0000 0.67820  0.58870  0.85990  Biso   1.000  C
  H21      1.0000 0.73170  0.63160  0.85310  Biso   1.000  H
  C39      1.0000 0.66810  0.51790  0.88320  Biso   1.000  C
  H22      1.0000 0.71350  0.51250  0.89160  Biso   1.000  H
  C40      1.0000 0.58940  0.45780  0.89281  Biso   1.000  C
  C41      1.0000 0.52230  0.46330  0.88190  Biso   1.000  C
  H23      1.0000 0.46930  0.42140  0.88990  Biso   1.000  H
  C42      1.0000 0.53450  0.53380  0.85810  Biso   1.000  C
  H24      1.0000 0.48850  0.53820  0.84960  Biso   1.000  H
  P4       1.0000 0.37236  0.76441  0.46178  Biso   1.000  P
  O19      1.0000 0.40540  0.84270  0.49521  Biso   1.000  O
  O20      1.0000 0.38160  0.80720  0.41324  Biso   1.000  O
  O21      1.0000 0.62260  0.87220  0.67005  Biso   1.000  O
  O22      1.0000 0.49880  0.78080  0.69891  Biso   1.000  O
  O23      1.0000 0.73110  0.03870  0.31580  Biso   1.000  O
  O24      1.0000 0.66310  0.10520  0.30080  Biso   1.000  O
  N4       1.0000 0.43000  0.72470  0.46721  Biso   1.000  N
  C43      1.0000 0.54510  0.82990  0.66716  Biso   1.000  C
  C44      1.0000 0.50620  0.83420  0.62324  Biso   1.000  C
  C45      1.0000 0.55730  0.87820  0.58532  Biso   1.000  C
  H25      1.0000 0.61470  0.90600  0.58900  Biso   1.000  H
  C46      1.0000 0.52490  0.88120  0.54338  Biso   1.000  C
  H26      1.0000 0.55980  0.90930  0.51860  Biso   1.000  H
  C47      1.0000 0.43820  0.84130  0.53816  Biso   1.000  C
  C48      1.0000 0.38610  0.79930  0.57542  Biso   1.000  C
  H27      1.0000 0.32870  0.77440  0.57200  Biso   1.000  H
  C49      1.0000 0.41930  0.79450  0.61760  Biso   1.000  C
  H28      1.0000 0.38420  0.76520  0.64210  Biso   1.000  H
  C50      1.0000 0.67080  0.05080  0.31980  Biso   1.000  C
  C51      1.0000 0.59610  0.98460  0.34700  Biso   1.000  C
  C52      1.0000 0.58870  0.91050  0.35990  Biso   1.000  C
  H29      1.0000 0.63160  0.89990  0.35310  Biso   1.000  H
  C53      1.0000 0.51790  0.84980  0.38320  Biso   1.000  C
  H30      1.0000 0.51250  0.79900  0.39160  Biso   1.000  H
  C54      1.0000 0.45780  0.86840  0.39281  Biso   1.000  C
  C55      1.0000 0.46330  0.94100  0.38190  Biso   1.000  C
  H31      1.0000 0.42140  0.95210  0.38990  Biso   1.000  H
  C56      1.0000 0.53380  0.99930  0.35810  Biso   1.000  C
  H32      1.0000 0.53820  0.04970  0.34960  Biso   1.000  H
  P5       1.0000 0.23559  0.60795  0.46178  Biso   1.000  P
  O25      1.0000 0.15730  0.56270  0.49521  Biso   1.000  O
  O26      1.0000 0.19280  0.57440  0.41324  Biso   1.000  O
  O27      1.0000 0.12780  0.75040  0.67005  Biso   1.000  O
  O28      1.0000 0.21920  0.71800  0.69891  Biso   1.000  O
  O29      1.0000 0.96130  0.69240  0.31580  Biso   1.000  O
  O30      1.0000 0.89480  0.55790  0.30080  Biso   1.000  O
  N5       1.0000 0.27530  0.70530  0.46721  Biso   1.000  N
  C57      1.0000 0.17010  0.71520  0.66716  Biso   1.000  C
  C58      1.0000 0.16580  0.67200  0.62324  Biso   1.000  C
  C59      1.0000 0.12180  0.67910  0.58532  Biso   1.000  C
  H33      1.0000 0.09400  0.70870  0.58900  Biso   1.000  H
  C60      1.0000 0.11880  0.64370  0.54338  Biso   1.000  C
  H34      1.0000 0.09070  0.65050  0.51860  Biso   1.000  H
  C61      1.0000 0.15870  0.59690  0.53816  Biso   1.000  C
  C62      1.0000 0.20070  0.58680  0.57542  Biso   1.000  C
  H35      1.0000 0.22560  0.55430  0.57200  Biso   1.000  H
  C63      1.0000 0.20550  0.62480  0.61760  Biso   1.000  C
  H36      1.0000 0.23480  0.61900  0.64210  Biso   1.000  H
  C64      1.0000 0.94920  0.62000  0.31980  Biso   1.000  C
  C65      1.0000 0.01540  0.61150  0.34700  Biso   1.000  C
  C66      1.0000 0.08950  0.67820  0.35990  Biso   1.000  C
  H37      1.0000 0.10010  0.73170  0.35310  Biso   1.000  H
  C67      1.0000 0.15020  0.66810  0.38320  Biso   1.000  C
  H38      1.0000 0.20100  0.71350  0.39160  Biso   1.000  H
  C68      1.0000 0.13160  0.58940  0.39281  Biso   1.000  C
  C69      1.0000 0.05900  0.52230  0.38190  Biso   1.000  C
  H39      1.0000 0.04790  0.46930  0.38990  Biso   1.000  H
  C70      1.0000 0.00070  0.53450  0.35810  Biso   1.000  C
  H40      1.0000 0.95030  0.48850  0.34960  Biso   1.000  H
  P6       1.0000 0.39205  0.62764  0.46178  Biso   1.000  P
  O31      1.0000 0.43730  0.59460  0.49521  Biso   1.000  O
  O32      1.0000 0.42560  0.61840  0.41324  Biso   1.000  O
  O33      1.0000 0.24960  0.37740  0.67005  Biso   1.000  O
  O34      1.0000 0.28200  0.50120  0.69891  Biso   1.000  O
  O35      1.0000 0.30760  0.26890  0.31580  Biso   1.000  O
  O36      1.0000 0.44210  0.33690  0.30080  Biso   1.000  O
  N6       1.0000 0.29470  0.57000  0.46721  Biso   1.000  N
  C71      1.0000 0.28480  0.45490  0.66716  Biso   1.000  C
  C72      1.0000 0.32800  0.49380  0.62324  Biso   1.000  C
  C73      1.0000 0.32090  0.44270  0.58532  Biso   1.000  C
  H41      1.0000 0.29130  0.38530  0.58900  Biso   1.000  H
  C74      1.0000 0.35630  0.47510  0.54338  Biso   1.000  C
  H42      1.0000 0.34950  0.44020  0.51860  Biso   1.000  H
  C75      1.0000 0.40310  0.56180  0.53816  Biso   1.000  C
  C76      1.0000 0.41320  0.61390  0.57542  Biso   1.000  C
  H43      1.0000 0.44570  0.67130  0.57200  Biso   1.000  H
  C77      1.0000 0.37520  0.58070  0.61760  Biso   1.000  C
  H44      1.0000 0.38100  0.61580  0.64210  Biso   1.000  H
  C78      1.0000 0.38000  0.32920  0.31980  Biso   1.000  C
  C79      1.0000 0.38850  0.40390  0.34700  Biso   1.000  C
  C80      1.0000 0.32180  0.41130  0.35990  Biso   1.000  C
  H45      1.0000 0.26830  0.36840  0.35310  Biso   1.000  H
  C81      1.0000 0.33190  0.48210  0.38320  Biso   1.000  C
  H46      1.0000 0.28650  0.48750  0.39160  Biso   1.000  H
  C82      1.0000 0.41060  0.54220  0.39281  Biso   1.000  C
  C83      1.0000 0.47770  0.53670  0.38190  Biso   1.000  C
  H47      1.0000 0.53070  0.57860  0.38990  Biso   1.000  H
  C84      1.0000 0.46550  0.46620  0.35810  Biso   1.000  C
  H48      1.0000 0.51150  0.46180  0.34960  Biso   1.000  H
  P7       1.0000 0.37236  0.76441  0.03822  Biso   1.000  P
  O37      1.0000 0.40540  0.84270  0.00479  Biso   1.000  O
  O38      1.0000 0.38160  0.80720  0.08676  Biso   1.000  O
  O39      1.0000 0.62260  0.87220  0.82995  Biso   1.000  O
  O40      1.0000 0.49880  0.78080  0.80109  Biso   1.000  O
  O41      1.0000 0.73110  0.03870  0.18420  Biso   1.000  O
  O42      1.0000 0.66310  0.10520  0.19920  Biso   1.000  O
  N7       1.0000 0.43000  0.72470  0.03279  Biso   1.000  N
  C85      1.0000 0.54510  0.82990  0.83284  Biso   1.000  C
  C86      1.0000 0.50620  0.83420  0.87676  Biso   1.000  C
  C87      1.0000 0.55730  0.87820  0.91468  Biso   1.000  C
  H49      1.0000 0.61470  0.90600  0.91100  Biso   1.000  H
  C88      1.0000 0.52490  0.88120  0.95662  Biso   1.000  C
  H50      1.0000 0.55980  0.90930  0.98140  Biso   1.000  H
  C89      1.0000 0.43820  0.84130  0.96184  Biso   1.000  C
  C90      1.0000 0.38610  0.79930  0.92458  Biso   1.000  C
  H51      1.0000 0.32870  0.77440  0.92800  Biso   1.000  H
  C91      1.0000 0.41930  0.79450  0.88240  Biso   1.000  C
  H52      1.0000 0.38420  0.76520  0.85790  Biso   1.000  H
  C92      1.0000 0.67080  0.05080  0.18020  Biso   1.000  C
  C93      1.0000 0.59610  0.98460  0.15300  Biso   1.000  C
  C94      1.0000 0.58870  0.91050  0.14010  Biso   1.000  C
  H53      1.0000 0.63160  0.89990  0.14690  Biso   1.000  H
  C95      1.0000 0.51790  0.84980  0.11680  Biso   1.000  C
  H54      1.0000 0.51250  0.79900  0.10840  Biso   1.000  H
  C96      1.0000 0.45780  0.86840  0.10719  Biso   1.000  C
  C97      1.0000 0.46330  0.94100  0.11810  Biso   1.000  C
  H55      1.0000 0.42140  0.95210  0.11010  Biso   1.000  H
  C98      1.0000 0.53380  0.99930  0.14190  Biso   1.000  C
  H56      1.0000 0.53820  0.04970  0.15040  Biso   1.000  H
  P8       1.0000 0.23559  0.60795  0.03822  Biso   1.000  P
  O43      1.0000 0.15730  0.56270  0.00479  Biso   1.000  O
  O44      1.0000 0.19280  0.57440  0.08676  Biso   1.000  O
  O45      1.0000 0.12780  0.75040  0.82995  Biso   1.000  O
  O46      1.0000 0.21920  0.71800  0.80109  Biso   1.000  O
  O47      1.0000 0.96130  0.69240  0.18420  Biso   1.000  O
  O48      1.0000 0.89480  0.55790  0.19920  Biso   1.000  O
  N8       1.0000 0.27530  0.70530  0.03279  Biso   1.000  N
  C99      1.0000 0.17010  0.71520  0.83284  Biso   1.000  C
  C100     1.0000 0.16580  0.67200  0.87676  Biso   1.000  C
  C101     1.0000 0.12180  0.67910  0.91468  Biso   1.000  C
  H57      1.0000 0.09400  0.70870  0.91100  Biso   1.000  H
  C102     1.0000 0.11880  0.64370  0.95662  Biso   1.000  C
  H58      1.0000 0.09070  0.65050  0.98140  Biso   1.000  H
  C103     1.0000 0.15870  0.59690  0.96184  Biso   1.000  C
  C104     1.0000 0.20070  0.58680  0.92458  Biso   1.000  C
  H59      1.0000 0.22560  0.55430  0.92800  Biso   1.000  H
  C105     1.0000 0.20550  0.62480  0.88240  Biso   1.000  C
  H60      1.0000 0.23480  0.61900  0.85790  Biso   1.000  H
  C106     1.0000 0.94920  0.62000  0.18020  Biso   1.000  C
  C107     1.0000 0.01540  0.61150  0.15300  Biso   1.000  C
  C108     1.0000 0.08950  0.67820  0.14010  Biso   1.000  C
  H61      1.0000 0.10010  0.73170  0.14690  Biso   1.000  H
  C109     1.0000 0.15020  0.66810  0.11680  Biso   1.000  C
  H62      1.0000 0.20100  0.71350  0.10840  Biso   1.000  H
  C110     1.0000 0.13160  0.58940  0.10719  Biso   1.000  C
  C111     1.0000 0.05900  0.52230  0.11810  Biso   1.000  C
  H63      1.0000 0.04790  0.46930  0.11010  Biso   1.000  H
  C112     1.0000 0.00070  0.53450  0.14190  Biso   1.000  C
  H64      1.0000 0.95030  0.48850  0.15040  Biso   1.000  H
  P9       1.0000 0.39205  0.62764  0.03822  Biso   1.000  P
  O49      1.0000 0.43730  0.59460  0.00479  Biso   1.000  O
  O50      1.0000 0.42560  0.61840  0.08676  Biso   1.000  O
  O51      1.0000 0.24960  0.37740  0.82995  Biso   1.000  O
  O52      1.0000 0.28200  0.50120  0.80109  Biso   1.000  O
  O53      1.0000 0.30760  0.26890  0.18420  Biso   1.000  O
  O54      1.0000 0.44210  0.33690  0.19920  Biso   1.000  O
  N9       1.0000 0.29470  0.57000  0.03279  Biso   1.000  N
  C113     1.0000 0.28480  0.45490  0.83284  Biso   1.000  C
  C114     1.0000 0.32800  0.49380  0.87676  Biso   1.000  C
  C115     1.0000 0.32090  0.44270  0.91468  Biso   1.000  C
  H65      1.0000 0.29130  0.38530  0.91100  Biso   1.000  H
  C116     1.0000 0.35630  0.47510  0.95662  Biso   1.000  C
  H66      1.0000 0.34950  0.44020  0.98140  Biso   1.000  H
  C117     1.0000 0.40310  0.56180  0.96184  Biso   1.000  C
  C118     1.0000 0.41320  0.61390  0.92458  Biso   1.000  C
  H67      1.0000 0.44570  0.67130  0.92800  Biso   1.000  H
  C119     1.0000 0.37520  0.58070  0.88240  Biso   1.000  C
  H68      1.0000 0.38100  0.61580  0.85790  Biso   1.000  H
  C120     1.0000 0.38000  0.32920  0.18020  Biso   1.000  C
  C121     1.0000 0.38850  0.40390  0.15300  Biso   1.000  C
  C122     1.0000 0.32180  0.41130  0.14010  Biso   1.000  C
  H69      1.0000 0.26830  0.36840  0.14690  Biso   1.000  H
  C123     1.0000 0.33190  0.48210  0.11680  Biso   1.000  C
  H70      1.0000 0.28650  0.48750  0.10840  Biso   1.000  H
  C124     1.0000 0.41060  0.54220  0.10719  Biso   1.000  C
  C125     1.0000 0.47770  0.53670  0.11810  Biso   1.000  C
  H71      1.0000 0.53070  0.57860  0.11010  Biso   1.000  H
  C126     1.0000 0.46550  0.46620  0.14190  Biso   1.000  C
  H72      1.0000 0.51150  0.46180  0.15040  Biso   1.000  H
  P10      1.0000 0.62764  0.23559  0.53822  Biso   1.000  P
  O55      1.0000 0.59460  0.15730  0.50479  Biso   1.000  O
  O56      1.0000 0.61840  0.19280  0.58676  Biso   1.000  O
  O57      1.0000 0.37740  0.12780  0.32995  Biso   1.000  O
  O58      1.0000 0.50120  0.21920  0.30109  Biso   1.000  O
  O59      1.0000 0.26890  0.96130  0.68420  Biso   1.000  O
  O60      1.0000 0.33690  0.89480  0.69920  Biso   1.000  O
  N10      1.0000 0.57000  0.27530  0.53279  Biso   1.000  N
  C127     1.0000 0.45490  0.17010  0.33284  Biso   1.000  C
  C128     1.0000 0.49380  0.16580  0.37676  Biso   1.000  C
  C129     1.0000 0.44270  0.12180  0.41468  Biso   1.000  C
  H73      1.0000 0.38530  0.09400  0.41100  Biso   1.000  H
  C130     1.0000 0.47510  0.11880  0.45662  Biso   1.000  C
  H74      1.0000 0.44020  0.09070  0.48140  Biso   1.000  H
  C131     1.0000 0.56180  0.15870  0.46184  Biso   1.000  C
  C132     1.0000 0.61390  0.20070  0.42458  Biso   1.000  C
  H75      1.0000 0.67130  0.22560  0.42800  Biso   1.000  H
  C133     1.0000 0.58070  0.20550  0.38240  Biso   1.000  C
  H76      1.0000 0.61580  0.23480  0.35790  Biso   1.000  H
  C134     1.0000 0.32920  0.94920  0.68020  Biso   1.000  C
  C135     1.0000 0.40390  0.01540  0.65300  Biso   1.000  C
  C136     1.0000 0.41130  0.08950  0.64010  Biso   1.000  C
  H77      1.0000 0.36840  0.10010  0.64690  Biso   1.000  H
  C137     1.0000 0.48210  0.15020  0.61680  Biso   1.000  C
  H78      1.0000 0.48750  0.20100  0.60840  Biso   1.000  H
  C138     1.0000 0.54220  0.13160  0.60719  Biso   1.000  C
  C139     1.0000 0.53670  0.05900  0.61810  Biso   1.000  C
  H79      1.0000 0.57860  0.04790  0.61010  Biso   1.000  H
  C140     1.0000 0.46620  0.00070  0.64190  Biso   1.000  C
  H80      1.0000 0.46180  0.95030  0.65040  Biso   1.000  H
  P11      1.0000 0.76441  0.39205  0.53822  Biso   1.000  P
  O61      1.0000 0.84270  0.43730  0.50479  Biso   1.000  O
  O62      1.0000 0.80720  0.42560  0.58676  Biso   1.000  O
  O63      1.0000 0.87220  0.24960  0.32995  Biso   1.000  O
  O64      1.0000 0.78080  0.28200  0.30109  Biso   1.000  O
  O65      1.0000 0.03870  0.30760  0.68420  Biso   1.000  O
  O66      1.0000 0.10520  0.44210  0.69920  Biso   1.000  O
  N11      1.0000 0.72470  0.29470  0.53279  Biso   1.000  N
  C141     1.0000 0.82990  0.28480  0.33284  Biso   1.000  C
  C142     1.0000 0.83420  0.32800  0.37676  Biso   1.000  C
  C143     1.0000 0.87820  0.32090  0.41468  Biso   1.000  C
  H81      1.0000 0.90600  0.29130  0.41100  Biso   1.000  H
  C144     1.0000 0.88120  0.35630  0.45662  Biso   1.000  C
  H82      1.0000 0.90930  0.34950  0.48140  Biso   1.000  H
  C145     1.0000 0.84130  0.40310  0.46184  Biso   1.000  C
  C146     1.0000 0.79930  0.41320  0.42458  Biso   1.000  C
  H83      1.0000 0.77440  0.44570  0.42800  Biso   1.000  H
  C147     1.0000 0.79450  0.37520  0.38240  Biso   1.000  C
  H84      1.0000 0.76520  0.38100  0.35790  Biso   1.000  H
  C148     1.0000 0.05080  0.38000  0.68020  Biso   1.000  C
  C149     1.0000 0.98460  0.38850  0.65300  Biso   1.000  C
  C150     1.0000 0.91050  0.32180  0.64010  Biso   1.000  C
  H85      1.0000 0.89990  0.26830  0.64690  Biso   1.000  H
  C151     1.0000 0.84980  0.33190  0.61680  Biso   1.000  C
  H86      1.0000 0.79900  0.28650  0.60840  Biso   1.000  H
  C152     1.0000 0.86840  0.41060  0.60719  Biso   1.000  C
  C153     1.0000 0.94100  0.47770  0.61810  Biso   1.000  C
  H87      1.0000 0.95210  0.53070  0.61010  Biso   1.000  H
  C154     1.0000 0.99930  0.46550  0.64190  Biso   1.000  C
  H88      1.0000 0.04970  0.51150  0.65040  Biso   1.000  H
  P12      1.0000 0.60795  0.37236  0.53822  Biso   1.000  P
  O67      1.0000 0.56270  0.40540  0.50479  Biso   1.000  O
  O68      1.0000 0.57440  0.38160  0.58676  Biso   1.000  O
  O69      1.0000 0.75040  0.62260  0.32995  Biso   1.000  O
  O70      1.0000 0.71800  0.49880  0.30109  Biso   1.000  O
  O71      1.0000 0.69240  0.73110  0.68420  Biso   1.000  O
  O72      1.0000 0.55790  0.66310  0.69920  Biso   1.000  O
  N12      1.0000 0.70530  0.43000  0.53279  Biso   1.000  N
  C155     1.0000 0.71520  0.54510  0.33284  Biso   1.000  C
  C156     1.0000 0.67200  0.50620  0.37676  Biso   1.000  C
  C157     1.0000 0.67910  0.55730  0.41468  Biso   1.000  C
  H89      1.0000 0.70870  0.61470  0.41100  Biso   1.000  H
  C158     1.0000 0.64370  0.52490  0.45662  Biso   1.000  C
  H90      1.0000 0.65050  0.55980  0.48140  Biso   1.000  H
  C159     1.0000 0.59690  0.43820  0.46184  Biso   1.000  C
  C160     1.0000 0.58680  0.38610  0.42458  Biso   1.000  C
  H91      1.0000 0.55430  0.32870  0.42800  Biso   1.000  H
  C161     1.0000 0.62480  0.41930  0.38240  Biso   1.000  C
  H92      1.0000 0.61900  0.38420  0.35790  Biso   1.000  H
  C162     1.0000 0.62000  0.67080  0.68020  Biso   1.000  C
  C163     1.0000 0.61150  0.59610  0.65300  Biso   1.000  C
  C164     1.0000 0.67820  0.58870  0.64010  Biso   1.000  C
  H93      1.0000 0.73170  0.63160  0.64690  Biso   1.000  H
  C165     1.0000 0.66810  0.51790  0.61680  Biso   1.000  C
  H94      1.0000 0.71350  0.51250  0.60840  Biso   1.000  H
  C166     1.0000 0.58940  0.45780  0.60719  Biso   1.000  C
  C167     1.0000 0.52230  0.46330  0.61810  Biso   1.000  C
  H95      1.0000 0.46930  0.42140  0.61010  Biso   1.000  H
  C168     1.0000 0.53450  0.53380  0.64190  Biso   1.000  C
  H96      1.0000 0.48850  0.53820  0.65040  Biso   1.000  H
  Mg1      1.0000 0.46969  0.27738  0.25000  Biso   1.000  Mg
  Mg2      1.0000 0.72262  0.19231  0.25000  Biso   1.000  Mg
  Mg3      1.0000 0.80769  0.53031  0.25000  Biso   1.000  Mg
  Mg4      1.0000 0.53031  0.72262  0.75000  Biso   1.000  Mg
  Mg5      1.0000 0.27738  0.80769  0.75000  Biso   1.000  Mg
  Mg6      1.0000 0.19231  0.46969  0.75000  Biso   1.000  Mg
