data_image0
_cell_length_a       11.545
_cell_length_b       20.225
_cell_length_c       14.39
_cell_angle_alpha    90
_cell_angle_beta     90.528
_cell_angle_gamma    90

_symmetry_space_group_name_H-M    "P 1"
_symmetry_int_tables_number       1

loop_
  _symmetry_equiv_pos_as_xyz
  'x, y, z'

loop_
  _atom_site_label
  _atom_site_occupancy
  _atom_site_fract_x
  _atom_site_fract_y
  _atom_site_fract_z
  _atom_site_thermal_displace_type
  _atom_site_B_iso_or_equiv
  _atom_site_type_symbol
  Co1      1.0000 0.24613  0.12178  0.23127  Biso   1.000  Co
  Co2      1.0000 0.31192  0.13856  0.00057  Biso   1.000  Co
  Co3      1.0000 0.14780  0.25533  0.09642  Biso   1.000  Co
  O1       1.0000 0.41990  0.13397  0.20482  Biso   1.000  O
  O2       1.0000 0.46630  0.16478  0.06128  Biso   1.000  O
  O3       1.0000 0.64860  0.20313  0.47164  Biso   1.000  O
  O4       1.0000 0.80570  0.26350  0.44540  Biso   1.000  O
  O5       1.0000 0.98230  0.25618  0.12900  Biso   1.000  O
  O6       1.0000 0.95510  0.15608  0.06670  Biso   1.000  O
  O7       1.0000 0.68300  0.95795  0.95970  Biso   1.000  O
  O8       1.0000 0.77020  0.97305  0.82385  Biso   1.000  O
  O9       1.0000 0.73570  0.28617  0.79888  Biso   1.000  O
  O10      1.0000 0.72590  0.20078  0.70062  Biso   1.000  O
  O11      1.0000 0.19691  0.16218  0.10261  Biso   1.000  O
  H1       1.0000 0.14100  0.13700  0.08800  Biso   1.000  H
  N1       1.0000 0.30160  0.07837  0.36037  Biso   1.000  N
  N2       1.0000 0.40190  0.00170  0.62000  Biso   1.000  N
  H2       1.0000 0.42950  0.96220  0.62250  Biso   1.000  H
  N3       1.0000 0.36410  0.10212  0.87164  Biso   1.000  N
  C1       1.0000 0.60830  0.17261  0.18190  Biso   1.000  C
  C2       1.0000 0.61700  0.18609  0.27700  Biso   1.000  C
  H3       1.0000 0.55230  0.18030  0.31410  Biso   1.000  H
  C3       1.0000 0.72000  0.20805  0.31730  Biso   1.000  C
  C4       1.0000 0.81570  0.21638  0.26110  Biso   1.000  C
  H4       1.0000 0.88390  0.23320  0.28650  Biso   1.000  H
  C5       1.0000 0.81140  0.19998  0.16710  Biso   1.000  C
  C6       1.0000 0.70720  0.17797  0.12589  Biso   1.000  C
  C7       1.0000 0.72560  0.22620  0.41840  Biso   1.000  C
  C8       1.0000 0.92340  0.20401  0.11460  Biso   1.000  C
  C9       1.0000 0.70880  0.15654  0.02620  Biso   1.000  C
  C10      1.0000 0.71930  0.20141  0.95290  Biso   1.000  C
  H5       1.0000 0.71960  0.24660  0.96500  Biso   1.000  H
  C11      1.0000 0.72940  0.17868  0.86150  Biso   1.000  C
  C12      1.0000 0.73370  0.11118  0.84380  Biso   1.000  C
  H6       1.0000 0.74260  0.09600  0.78330  Biso   1.000  H
  C13      1.0000 0.72470  0.06641  0.91650  Biso   1.000  C
  C14      1.0000 0.71000  0.08951  0.00660  Biso   1.000  C
  H7       1.0000 0.70080  0.05930  0.05470  Biso   1.000  H
  C15      1.0000 0.73100  0.22622  0.78140  Biso   1.000  C
  C16      1.0000 0.72660  0.99335  0.89840  Biso   1.000  C
  C17      1.0000 0.35680  0.11553  0.42450  Biso   1.000  C
  H8       1.0000 0.37150  0.15960  0.41020  Biso   1.000  H
  C18      1.0000 0.39270  0.09240  0.50960  Biso   1.000  C
  H9       1.0000 0.43170  0.12000  0.55100  Biso   1.000  H
  C19      1.0000 0.36990  0.02684  0.53310  Biso   1.000  C
  C20      1.0000 0.31750  0.98666  0.46650  Biso   1.000  C
  H10      1.0000 0.30490  0.94200  0.47810  Biso   1.000  H
  C21      1.0000 0.28460  0.01460  0.38230  Biso   1.000  C
  H11      1.0000 0.24870  0.98760  0.33850  Biso   1.000  H
  C22      1.0000 0.39210  0.03669  0.70270  Biso   1.000  C
  C23      1.0000 0.45240  0.01634  0.78100  Biso   1.000  C
  H12      1.0000 0.50280  0.98050  0.77830  Biso   1.000  H
  C24      1.0000 0.43650  0.05017  0.86330  Biso   1.000  C
  H13      1.0000 0.47790  0.03640  0.91550  Biso   1.000  H
  C25      1.0000 0.30770  0.12074  0.79520  Biso   1.000  C
  H14      1.0000 0.25880  0.15710  0.79960  Biso   1.000  H
  C26      1.0000 0.31596  0.09052  0.71087  Biso   1.000  C
  H15      1.0000 0.27250  0.10510  0.66020  Biso   1.000  H
  C27      1.0000 0.48828  0.15564  0.14511  Biso   1.000  C
  Co4      1.0000 0.25387  0.62178  0.26873  Biso   1.000  Co
  Co5      1.0000 0.18808  0.63856  0.49943  Biso   1.000  Co
  Co6      1.0000 0.35220  0.75533  0.40358  Biso   1.000  Co
  O12      1.0000 0.08010  0.63397  0.29518  Biso   1.000  O
  O13      1.0000 0.03370  0.66478  0.43872  Biso   1.000  O
  O14      1.0000 0.85140  0.70313  0.02836  Biso   1.000  O
  O15      1.0000 0.69430  0.76350  0.05460  Biso   1.000  O
  O16      1.0000 0.51770  0.75618  0.37100  Biso   1.000  O
  O17      1.0000 0.54490  0.65608  0.43330  Biso   1.000  O
  O18      1.0000 0.81700  0.45795  0.54030  Biso   1.000  O
  O19      1.0000 0.72980  0.47305  0.67615  Biso   1.000  O
  O20      1.0000 0.76430  0.78617  0.70112  Biso   1.000  O
  O21      1.0000 0.77410  0.70078  0.79938  Biso   1.000  O
  O22      1.0000 0.30309  0.66218  0.39739  Biso   1.000  O
  H16      1.0000 0.35900  0.63700  0.41200  Biso   1.000  H
  N4       1.0000 0.19840  0.57837  0.13963  Biso   1.000  N
  N5       1.0000 0.09810  0.50170  0.88000  Biso   1.000  N
  H17      1.0000 0.07050  0.46220  0.87750  Biso   1.000  H
  N6       1.0000 0.13590  0.60212  0.62836  Biso   1.000  N
  C28      1.0000 0.89170  0.67261  0.31810  Biso   1.000  C
  C29      1.0000 0.88300  0.68609  0.22300  Biso   1.000  C
  H18      1.0000 0.94770  0.68030  0.18590  Biso   1.000  H
  C30      1.0000 0.78000  0.70805  0.18270  Biso   1.000  C
  C31      1.0000 0.68430  0.71638  0.23890  Biso   1.000  C
  H19      1.0000 0.61610  0.73320  0.21350  Biso   1.000  H
  C32      1.0000 0.68860  0.69998  0.33290  Biso   1.000  C
  C33      1.0000 0.79280  0.67797  0.37411  Biso   1.000  C
  C34      1.0000 0.77440  0.72620  0.08160  Biso   1.000  C
  C35      1.0000 0.57660  0.70401  0.38540  Biso   1.000  C
  C36      1.0000 0.79120  0.65654  0.47380  Biso   1.000  C
  C37      1.0000 0.78070  0.70141  0.54710  Biso   1.000  C
  H20      1.0000 0.78040  0.74660  0.53500  Biso   1.000  H
  C38      1.0000 0.77060  0.67868  0.63850  Biso   1.000  C
  C39      1.0000 0.76630  0.61118  0.65620  Biso   1.000  C
  H21      1.0000 0.75740  0.59600  0.71670  Biso   1.000  H
  C40      1.0000 0.77530  0.56641  0.58350  Biso   1.000  C
  C41      1.0000 0.79000  0.58951  0.49340  Biso   1.000  C
  H22      1.0000 0.79920  0.55930  0.44530  Biso   1.000  H
  C42      1.0000 0.76900  0.72622  0.71860  Biso   1.000  C
  C43      1.0000 0.77340  0.49335  0.60160  Biso   1.000  C
  C44      1.0000 0.14320  0.61553  0.07550  Biso   1.000  C
  H23      1.0000 0.12850  0.65960  0.08980  Biso   1.000  H
  C45      1.0000 0.10730  0.59240  0.99040  Biso   1.000  C
  H24      1.0000 0.06830  0.62000  0.94900  Biso   1.000  H
  C46      1.0000 0.13010  0.52684  0.96690  Biso   1.000  C
  C47      1.0000 0.18250  0.48666  0.03350  Biso   1.000  C
  H25      1.0000 0.19510  0.44200  0.02190  Biso   1.000  H
  C48      1.0000 0.21540  0.51460  0.11770  Biso   1.000  C
  H26      1.0000 0.25130  0.48760  0.16150  Biso   1.000  H
  C49      1.0000 0.10790  0.53669  0.79730  Biso   1.000  C
  C50      1.0000 0.04760  0.51634  0.71900  Biso   1.000  C
  H27      1.0000 0.99720  0.48050  0.72170  Biso   1.000  H
  C51      1.0000 0.06350  0.55017  0.63670  Biso   1.000  C
  H28      1.0000 0.02210  0.53640  0.58450  Biso   1.000  H
  C52      1.0000 0.19230  0.62074  0.70480  Biso   1.000  C
  H29      1.0000 0.24120  0.65710  0.70040  Biso   1.000  H
  C53      1.0000 0.18404  0.59052  0.78913  Biso   1.000  C
  H30      1.0000 0.22750  0.60510  0.83980  Biso   1.000  H
  C54      1.0000 0.01172  0.65564  0.35489  Biso   1.000  C
  Co7      1.0000 0.75387  0.87822  0.76873  Biso   1.000  Co
  Co8      1.0000 0.68808  0.86144  0.99943  Biso   1.000  Co
  Co9      1.0000 0.85220  0.74467  0.90358  Biso   1.000  Co
  O23      1.0000 0.58010  0.86603  0.79518  Biso   1.000  O
  O24      1.0000 0.53370  0.83522  0.93872  Biso   1.000  O
  O25      1.0000 0.35140  0.79687  0.52836  Biso   1.000  O
  O26      1.0000 0.19430  0.73650  0.55460  Biso   1.000  O
  O27      1.0000 0.01770  0.74382  0.87100  Biso   1.000  O
  O28      1.0000 0.04490  0.84392  0.93330  Biso   1.000  O
  O29      1.0000 0.31700  0.04205  0.04030  Biso   1.000  O
  O30      1.0000 0.22980  0.02695  0.17615  Biso   1.000  O
  O31      1.0000 0.26430  0.71383  0.20112  Biso   1.000  O
  O32      1.0000 0.27410  0.79922  0.29938  Biso   1.000  O
  O33      1.0000 0.80309  0.83782  0.89739  Biso   1.000  O
  H31      1.0000 0.85900  0.86300  0.91200  Biso   1.000  H
  N7       1.0000 0.69840  0.92163  0.63963  Biso   1.000  N
  N8       1.0000 0.59810  0.99830  0.38000  Biso   1.000  N
  H32      1.0000 0.57050  0.03780  0.37750  Biso   1.000  H
  N9       1.0000 0.63590  0.89788  0.12836  Biso   1.000  N
  C55      1.0000 0.39170  0.82739  0.81810  Biso   1.000  C
  C56      1.0000 0.38300  0.81391  0.72300  Biso   1.000  C
  H33      1.0000 0.44770  0.81970  0.68590  Biso   1.000  H
  C57      1.0000 0.28000  0.79195  0.68270  Biso   1.000  C
  C58      1.0000 0.18430  0.78362  0.73890  Biso   1.000  C
  H34      1.0000 0.11610  0.76680  0.71350  Biso   1.000  H
  C59      1.0000 0.18860  0.80002  0.83290  Biso   1.000  C
  C60      1.0000 0.29280  0.82203  0.87411  Biso   1.000  C
  C61      1.0000 0.27440  0.77380  0.58160  Biso   1.000  C
  C62      1.0000 0.07660  0.79599  0.88540  Biso   1.000  C
  C63      1.0000 0.29120  0.84346  0.97380  Biso   1.000  C
  C64      1.0000 0.28070  0.79859  0.04710  Biso   1.000  C
  H35      1.0000 0.28040  0.75340  0.03500  Biso   1.000  H
  C65      1.0000 0.27060  0.82132  0.13850  Biso   1.000  C
  C66      1.0000 0.26630  0.88882  0.15620  Biso   1.000  C
  H36      1.0000 0.25740  0.90400  0.21670  Biso   1.000  H
  C67      1.0000 0.27530  0.93359  0.08350  Biso   1.000  C
  C68      1.0000 0.29000  0.91049  0.99340  Biso   1.000  C
  H37      1.0000 0.29920  0.94070  0.94530  Biso   1.000  H
  C69      1.0000 0.26900  0.77378  0.21860  Biso   1.000  C
  C70      1.0000 0.27340  0.00665  0.10160  Biso   1.000  C
  C71      1.0000 0.64320  0.88447  0.57550  Biso   1.000  C
  H38      1.0000 0.62850  0.84040  0.58980  Biso   1.000  H
  C72      1.0000 0.60730  0.90760  0.49040  Biso   1.000  C
  H39      1.0000 0.56830  0.88000  0.44900  Biso   1.000  H
  C73      1.0000 0.63010  0.97316  0.46690  Biso   1.000  C
  C74      1.0000 0.68250  0.01334  0.53350  Biso   1.000  C
  H40      1.0000 0.69510  0.05800  0.52190  Biso   1.000  H
  C75      1.0000 0.71540  0.98540  0.61770  Biso   1.000  C
  H41      1.0000 0.75130  0.01240  0.66150  Biso   1.000  H
  C76      1.0000 0.60790  0.96331  0.29730  Biso   1.000  C
  C77      1.0000 0.54760  0.98366  0.21900  Biso   1.000  C
  H42      1.0000 0.49720  0.01950  0.22170  Biso   1.000  H
  C78      1.0000 0.56350  0.94983  0.13670  Biso   1.000  C
  H43      1.0000 0.52210  0.96360  0.08450  Biso   1.000  H
  C79      1.0000 0.69230  0.87926  0.20480  Biso   1.000  C
  H44      1.0000 0.74120  0.84290  0.20040  Biso   1.000  H
  C80      1.0000 0.68404  0.90948  0.28913  Biso   1.000  C
  H45      1.0000 0.72750  0.89490  0.33980  Biso   1.000  H
  C81      1.0000 0.51172  0.84436  0.85489  Biso   1.000  C
  Co10     1.0000 0.74613  0.37822  0.73127  Biso   1.000  Co
  Co11     1.0000 0.81192  0.36144  0.50057  Biso   1.000  Co
  Co12     1.0000 0.64780  0.24467  0.59642  Biso   1.000  Co
  O34      1.0000 0.91990  0.36603  0.70482  Biso   1.000  O
  O35      1.0000 0.96630  0.33522  0.56128  Biso   1.000  O
  O36      1.0000 0.14860  0.29687  0.97164  Biso   1.000  O
  O37      1.0000 0.30570  0.23650  0.94540  Biso   1.000  O
  O38      1.0000 0.48230  0.24382  0.62900  Biso   1.000  O
  O39      1.0000 0.45510  0.34392  0.56670  Biso   1.000  O
  O40      1.0000 0.18300  0.54205  0.45970  Biso   1.000  O
  O41      1.0000 0.27020  0.52695  0.32385  Biso   1.000  O
  O42      1.0000 0.23570  0.21383  0.29888  Biso   1.000  O
  O43      1.0000 0.22590  0.29922  0.20062  Biso   1.000  O
  O44      1.0000 0.69691  0.33782  0.60261  Biso   1.000  O
  H46      1.0000 0.64100  0.36300  0.58800  Biso   1.000  H
  N10      1.0000 0.80160  0.42163  0.86037  Biso   1.000  N
  N11      1.0000 0.90190  0.49830  0.12000  Biso   1.000  N
  H47      1.0000 0.92950  0.53780  0.12250  Biso   1.000  H
  N12      1.0000 0.86410  0.39788  0.37164  Biso   1.000  N
  C82      1.0000 0.10830  0.32739  0.68190  Biso   1.000  C
  C83      1.0000 0.11700  0.31391  0.77700  Biso   1.000  C
  H48      1.0000 0.05230  0.31970  0.81410  Biso   1.000  H
  C84      1.0000 0.22000  0.29195  0.81730  Biso   1.000  C
  C85      1.0000 0.31570  0.28362  0.76110  Biso   1.000  C
  H49      1.0000 0.38390  0.26680  0.78650  Biso   1.000  H
  C86      1.0000 0.31140  0.30002  0.66710  Biso   1.000  C
  C87      1.0000 0.20720  0.32203  0.62589  Biso   1.000  C
  C88      1.0000 0.22560  0.27380  0.91840  Biso   1.000  C
  C89      1.0000 0.42340  0.29599  0.61460  Biso   1.000  C
  C90      1.0000 0.20880  0.34346  0.52620  Biso   1.000  C
  C91      1.0000 0.21930  0.29859  0.45290  Biso   1.000  C
  H50      1.0000 0.21960  0.25340  0.46500  Biso   1.000  H
  C92      1.0000 0.22940  0.32132  0.36150  Biso   1.000  C
  C93      1.0000 0.23370  0.38882  0.34380  Biso   1.000  C
  H51      1.0000 0.24260  0.40400  0.28330  Biso   1.000  H
  C94      1.0000 0.22470  0.43359  0.41650  Biso   1.000  C
  C95      1.0000 0.21000  0.41049  0.50660  Biso   1.000  C
  H52      1.0000 0.20080  0.44070  0.55470  Biso   1.000  H
  C96      1.0000 0.23100  0.27378  0.28140  Biso   1.000  C
  C97      1.0000 0.22660  0.50665  0.39840  Biso   1.000  C
  C98      1.0000 0.85680  0.38447  0.92450  Biso   1.000  C
  H53      1.0000 0.87150  0.34040  0.91020  Biso   1.000  H
  C99      1.0000 0.89270  0.40760  0.00960  Biso   1.000  C
  H54      1.0000 0.93170  0.38000  0.05100  Biso   1.000  H
  C100     1.0000 0.86990  0.47316  0.03310  Biso   1.000  C
  C101     1.0000 0.81750  0.51334  0.96650  Biso   1.000  C
  H55      1.0000 0.80490  0.55800  0.97810  Biso   1.000  H
  C102     1.0000 0.78460  0.48540  0.88230  Biso   1.000  C
  H56      1.0000 0.74870  0.51240  0.83850  Biso   1.000  H
  C103     1.0000 0.89210  0.46331  0.20270  Biso   1.000  C
  C104     1.0000 0.95240  0.48366  0.28100  Biso   1.000  C
  H57      1.0000 0.00280  0.51950  0.27830  Biso   1.000  H
  C105     1.0000 0.93650  0.44983  0.36330  Biso   1.000  C
  H58      1.0000 0.97790  0.46360  0.41550  Biso   1.000  H
  C106     1.0000 0.80770  0.37926  0.29520  Biso   1.000  C
  H59      1.0000 0.75880  0.34290  0.29960  Biso   1.000  H
  C107     1.0000 0.81596  0.40948  0.21087  Biso   1.000  C
  H60      1.0000 0.77250  0.39490  0.16020  Biso   1.000  H
  C108     1.0000 0.98828  0.34436  0.64511  Biso   1.000  C
