data_OSAVUA_clean
_audit_creation_date              2014-07-02
_audit_creation_method            'Materials Studio'
_symmetry_space_group_name_H-M    'P1'
_symmetry_Int_Tables_number       1
_symmetry_cell_setting            triclinic
loop_
_symmetry_equiv_pos_as_xyz
  x,y,z
_cell_length_a                    9.6650
_cell_length_b                    10.2569
_cell_length_c                    10.3455
_cell_angle_alpha                 119.7170
_cell_angle_beta                  94.5181
_cell_angle_gamma                 90.0000
loop_
_atom_site_label
_atom_site_type_symbol
_atom_site_fract_x
_atom_site_fract_y
_atom_site_fract_z
_atom_site_U_iso_or_equiv
_atom_site_adp_type
_atom_site_occupancy
Ca1    Ca    0.75000   0.07825   0.00000   0.01267  Uiso   1.00
Ca2    Ca    0.25000   0.92175   0.00000   0.01267  Uiso   1.00
H1     H     0.74130   0.04510   0.32420   0.01267  Uiso   1.00
H2     H     0.18890   0.96830   0.36520   0.01267  Uiso   1.00
H3     H     0.75870   0.72090   0.67580   0.01267  Uiso   1.00
H4     H     0.31110   0.60310   0.63480   0.01267  Uiso   1.00
H5     H     0.25870   0.95490   0.67580   0.01267  Uiso   1.00
H6     H     0.81110   0.03170   0.63480   0.01267  Uiso   1.00
H7     H     0.24130   0.27910   0.32420   0.01267  Uiso   1.00
H8     H     0.68890   0.39690   0.36520   0.01267  Uiso   1.00
C1     C     0.97080   0.00447   0.22034   0.01267  Uiso   1.00
C2     C     0.98420   0.00341   0.36602   0.01267  Uiso   1.00
C3     C     0.86940   0.02376   0.44852   0.01267  Uiso   1.00
C4     C     0.11270   0.98075   0.41930   0.01267  Uiso   1.00
C5     C     0.52920   0.78413   0.77966   0.01267  Uiso   1.00
C6     C     0.51580   0.63739   0.63398   0.01267  Uiso   1.00
C7     C     0.63060   0.57524   0.55148   0.01267  Uiso   1.00
C8     C     0.38730   0.56145   0.58070   0.01267  Uiso   1.00
C9     C     0.02920   0.99553   0.77966   0.01267  Uiso   1.00
C10    C     0.01580   0.99659   0.63398   0.01267  Uiso   1.00
C11    C     0.13060   0.97624   0.55148   0.01267  Uiso   1.00
C12    C     0.88730   0.01925   0.58070   0.01267  Uiso   1.00
C13    C     0.47080   0.21587   0.22034   0.01267  Uiso   1.00
C14    C     0.48420   0.36261   0.36602   0.01267  Uiso   1.00
C15    C     0.36940   0.42476   0.44852   0.01267  Uiso   1.00
C16    C     0.61270   0.43855   0.41930   0.01267  Uiso   1.00
O1     O     0.84900   0.01249   0.17058   0.01267  Uiso   1.00
O2     O     0.74070   0.04984   0.40568   0.01267  Uiso   1.00
O3     O     0.07584   0.99378   0.15616   0.01267  Uiso   1.00
O4     O     0.65100   0.84191   0.82942   0.01267  Uiso   1.00
O5     O     0.75930   0.64416   0.59432   0.01267  Uiso   1.00
O6     O     0.42416   0.83762   0.84384   0.01267  Uiso   1.00
O7     O     0.15100   0.98751   0.82942   0.01267  Uiso   1.00
O8     O     0.25930   0.95016   0.59432   0.01267  Uiso   1.00
O9     O     0.92416   0.00622   0.84384   0.01267  Uiso   1.00
O10    O     0.34900   0.15809   0.17058   0.01267  Uiso   1.00
O11    O     0.24070   0.35584   0.40568   0.01267  Uiso   1.00
O12    O     0.57584   0.16238   0.15616   0.01267  Uiso   1.00
