data_OSAWEL_clean
_audit_creation_date              2014-07-02
_audit_creation_method            'Materials Studio'
_symmetry_space_group_name_H-M    'P1'
_symmetry_Int_Tables_number       1
_symmetry_cell_setting            triclinic
loop_
_symmetry_equiv_pos_as_xyz
  x,y,z
_cell_length_a                    8.3328
_cell_length_b                    8.6794
_cell_length_c                    9.9393
_cell_angle_alpha                 70.5200
_cell_angle_beta                  84.4590
_cell_angle_gamma                 73.7220
loop_
_atom_site_label
_atom_site_type_symbol
_atom_site_fract_x
_atom_site_fract_y
_atom_site_fract_z
_atom_site_U_iso_or_equiv
_atom_site_adp_type
_atom_site_occupancy
Ca1    Ca    0.32648   0.36337   0.04249   0.01267  Uiso   1.00
Ca2    Ca    0.67352   0.63663   0.95751   0.01267  Uiso   1.00
H1     H     0.22390   0.44260   0.35420   0.01267  Uiso   1.00
H2     H     0.67580   0.55760   0.33320   0.01267  Uiso   1.00
H3     H     0.65450   0.97660   0.92070   0.01267  Uiso   1.00
H4     H     0.95510   0.26490   0.02510   0.01267  Uiso   1.00
H5     H     0.77610   0.55740   0.64580   0.01267  Uiso   1.00
H6     H     0.32420   0.44240   0.66680   0.01267  Uiso   1.00
H7     H     0.34550   0.02340   0.07930   0.01267  Uiso   1.00
H8     H     0.04490   0.73510   0.97490   0.01267  Uiso   1.00
C1     C     0.95110   0.47650   0.22410   0.01267  Uiso   1.00
C2     C     0.97360   0.49170   0.36580   0.01267  Uiso   1.00
C3     C     0.13320   0.46520   0.41350   0.01267  Uiso   1.00
C4     C     0.83770   0.52870   0.45460   0.01267  Uiso   1.00
C5     C     0.66920   0.23210   0.95740   0.01267  Uiso   1.00
C6     C     0.84150   0.11310   0.97610   0.01267  Uiso   1.00
C7     C     0.97330   0.15860   0.01490   0.01267  Uiso   1.00
C8     C     0.86920   0.95270   0.96170   0.01267  Uiso   1.00
C9     C     0.04890   0.52350   0.77590   0.01267  Uiso   1.00
C10    C     0.02640   0.50830   0.63420   0.01267  Uiso   1.00
C11    C     0.86680   0.53480   0.58650   0.01267  Uiso   1.00
C12    C     0.16230   0.47130   0.54540   0.01267  Uiso   1.00
C13    C     0.33080   0.76790   0.04260   0.01267  Uiso   1.00
C14    C     0.15850   0.88690   0.02390   0.01267  Uiso   1.00
C15    C     0.02670   0.84140   0.98510   0.01267  Uiso   1.00
C16    C     0.13080   0.04730   0.03830   0.01267  Uiso   1.00
O1     O     0.07640   0.41890   0.15960   0.01267  Uiso   1.00
O2     O     0.80300   0.52390   0.17720   0.01267  Uiso   1.00
O3     O     0.54970   0.17910   0.93850   0.01267  Uiso   1.00
O4     O     0.64590   0.37720   0.96540   0.01267  Uiso   1.00
O5     O     0.67710   0.56080   0.41470   0.01267  Uiso   1.00
O6     O     0.74250   0.90320   0.92480   0.01267  Uiso   1.00
O7     O     0.92360   0.58110   0.84040   0.01267  Uiso   1.00
O8     O     0.19700   0.47610   0.82280   0.01267  Uiso   1.00
O9     O     0.45030   0.82090   0.06150   0.01267  Uiso   1.00
O10    O     0.35410   0.62280   0.03460   0.01267  Uiso   1.00
O11    O     0.32290   0.43920   0.58530   0.01267  Uiso   1.00
O12    O     0.25750   0.09680   0.07520   0.01267  Uiso   1.00
