data_OSAXAI_clean
_audit_creation_date              2014-07-02
_audit_creation_method            'Materials Studio'
_symmetry_space_group_name_H-M    'P1'
_symmetry_Int_Tables_number       1
_symmetry_cell_setting            triclinic
loop_
_symmetry_equiv_pos_as_xyz
  x,y,z
_cell_length_a                    11.4360
_cell_length_b                    13.3717
_cell_length_c                    18.3860
_cell_angle_alpha                 100.3890
_cell_angle_beta                  90.0000
_cell_angle_gamma                 115.3170
loop_
_atom_site_label
_atom_site_type_symbol
_atom_site_fract_x
_atom_site_fract_y
_atom_site_fract_z
_atom_site_U_iso_or_equiv
_atom_site_adp_type
_atom_site_occupancy
Zn1    Zn    0.97375   0.39302   0.40319   0.01267  Uiso   1.00
Zn2    Zn    0.58073   0.60698   0.09681   0.01267  Uiso   1.00
Zn3    Zn    0.02625   0.60698   0.59681   0.01267  Uiso   1.00
Zn4    Zn    0.41927   0.39302   0.90319   0.01267  Uiso   1.00
H1     H     0.15510   0.65160   0.30480   0.01267  Uiso   1.00
H2     H     0.23350   0.79300   0.23740   0.01267  Uiso   1.00
H3     H     0.25090   0.01880   0.41840   0.01267  Uiso   1.00
H4     H     0.16790   0.87580   0.48560   0.01267  Uiso   1.00
H5     H     0.81440   0.32860   0.13050   0.01267  Uiso   1.00
H6     H     0.65900   0.20420   0.03680   0.01267  Uiso   1.00
H7     H     0.58330   0.95700   0.14740   0.01267  Uiso   1.00
H8     H     0.73350   0.08320   0.24240   0.01267  Uiso   1.00
H9     H     0.13970   0.29560   0.47750   0.01267  Uiso   1.00
H10    H     0.33920   0.29360   0.47440   0.01267  Uiso   1.00
H11    H     0.41410   0.46840   0.31130   0.01267  Uiso   1.00
H12    H     0.21270   0.46460   0.31790   0.01267  Uiso   1.00
H13    H     0.49100   0.23840   0.42190   0.01267  Uiso   1.00
H14    H     0.69730   0.25500   0.42880   0.01267  Uiso   1.00
H15    H     0.83190   0.54560   0.37070   0.01267  Uiso   1.00
H16    H     0.62890   0.53840   0.36120   0.01267  Uiso   1.00
H17    H     0.50350   0.34840   0.19520   0.01267  Uiso   1.00
H18    H     0.44050   0.20700   0.26260   0.01267  Uiso   1.00
H19    H     0.23210   0.98120   0.08160   0.01267  Uiso   1.00
H20    H     0.29210   0.12420   0.01440   0.01267  Uiso   1.00
H21    H     0.48580   0.67140   0.36950   0.01267  Uiso   1.00
H22    H     0.45480   0.79580   0.46320   0.01267  Uiso   1.00
H23    H     0.62630   0.04300   0.35260   0.01267  Uiso   1.00
H24    H     0.65030   0.91680   0.25760   0.01267  Uiso   1.00
H25    H     0.84410   0.70440   0.02250   0.01267  Uiso   1.00
H26    H     0.04560   0.70640   0.02560   0.01267  Uiso   1.00
H27    H     0.94570   0.53160   0.18870   0.01267  Uiso   1.00
H28    H     0.74810   0.53540   0.18210   0.01267  Uiso   1.00
H29    H     0.25260   0.76160   0.07810   0.01267  Uiso   1.00
H30    H     0.44230   0.74500   0.07120   0.01267  Uiso   1.00
H31    H     0.28630   0.45440   0.12930   0.01267  Uiso   1.00
H32    H     0.09050   0.46160   0.13880   0.01267  Uiso   1.00
H33    H     0.84490   0.34840   0.69520   0.01267  Uiso   1.00
H34    H     0.76650   0.20700   0.76260   0.01267  Uiso   1.00
H35    H     0.74910   0.98120   0.58160   0.01267  Uiso   1.00
H36    H     0.83210   0.12420   0.51440   0.01267  Uiso   1.00
H37    H     0.18560   0.67140   0.86950   0.01267  Uiso   1.00
H38    H     0.34100   0.79580   0.96320   0.01267  Uiso   1.00
H39    H     0.41670   0.04300   0.85260   0.01267  Uiso   1.00
H40    H     0.26650   0.91680   0.75760   0.01267  Uiso   1.00
H41    H     0.86030   0.70440   0.52250   0.01267  Uiso   1.00
H42    H     0.66080   0.70640   0.52560   0.01267  Uiso   1.00
H43    H     0.58590   0.53160   0.68870   0.01267  Uiso   1.00
H44    H     0.78730   0.53540   0.68210   0.01267  Uiso   1.00
H45    H     0.50900   0.76160   0.57810   0.01267  Uiso   1.00
H46    H     0.30270   0.74500   0.57120   0.01267  Uiso   1.00
H47    H     0.16810   0.45440   0.62930   0.01267  Uiso   1.00
H48    H     0.37110   0.46160   0.63880   0.01267  Uiso   1.00
H49    H     0.49650   0.65160   0.80480   0.01267  Uiso   1.00
H50    H     0.55950   0.79300   0.73740   0.01267  Uiso   1.00
H51    H     0.76790   0.01880   0.91840   0.01267  Uiso   1.00
H52    H     0.70790   0.87580   0.98560   0.01267  Uiso   1.00
H53    H     0.51420   0.32860   0.63050   0.01267  Uiso   1.00
H54    H     0.54520   0.20420   0.53680   0.01267  Uiso   1.00
H55    H     0.37370   0.95700   0.64740   0.01267  Uiso   1.00
H56    H     0.34970   0.08320   0.74240   0.01267  Uiso   1.00
H57    H     0.15590   0.29560   0.97750   0.01267  Uiso   1.00
H58    H     0.95440   0.29360   0.97440   0.01267  Uiso   1.00
H59    H     0.05430   0.46840   0.81130   0.01267  Uiso   1.00
H60    H     0.25190   0.46460   0.81790   0.01267  Uiso   1.00
H61    H     0.74740   0.23840   0.92190   0.01267  Uiso   1.00
H62    H     0.55770   0.25500   0.92880   0.01267  Uiso   1.00
H63    H     0.71370   0.54560   0.87070   0.01267  Uiso   1.00
H64    H     0.90950   0.53840   0.86120   0.01267  Uiso   1.00
C1     C     0.09285   0.65550   0.44393   0.01267  Uiso   1.00
C2     C     0.15006   0.74872   0.40124   0.01267  Uiso   1.00
C3     C     0.17258   0.72516   0.32734   0.01267  Uiso   1.00
C4     C     0.22048   0.80956   0.28722   0.01267  Uiso   1.00
C5     C     0.24948   0.92016   0.32160   0.01267  Uiso   1.00
C6     C     0.23039   0.94478   0.39543   0.01267  Uiso   1.00
C7     C     0.18070   0.85920   0.43571   0.01267  Uiso   1.00
C8     C     0.88545   0.29990   0.26088   0.01267  Uiso   1.00
C9     C     0.78943   0.21846   0.19682   0.01267  Uiso   1.00
C10    C     0.76703   0.25366   0.13460   0.01267  Uiso   1.00
C11    C     0.67468   0.17896   0.07810   0.01267  Uiso   1.00
C12    C     0.60615   0.06770   0.08287   0.01267  Uiso   1.00
C13    C     0.62882   0.03224   0.14380   0.01267  Uiso   1.00
C14    C     0.71986   0.10832   0.20060   0.01267  Uiso   1.00
C15    C     0.19574   0.33108   0.44381   0.01267  Uiso   1.00
C16    C     0.31598   0.32996   0.44250   0.01267  Uiso   1.00
C17    C     0.40216   0.38332   0.39323   0.01267  Uiso   1.00
C18    C     0.36029   0.43318   0.34592   0.01267  Uiso   1.00
C19    C     0.23898   0.43056   0.35017   0.01267  Uiso   1.00
C20    C     0.53462   0.38904   0.39356   0.01267  Uiso   1.00
C21    C     0.55917   0.30314   0.41220   0.01267  Uiso   1.00
C22    C     0.68369   0.31378   0.41630   0.01267  Uiso   1.00
C23    C     0.76224   0.48368   0.38220   0.01267  Uiso   1.00
C24    C     0.64021   0.48022   0.37640   0.01267  Uiso   1.00
C25    C     0.43735   0.34450   0.05607   0.01267  Uiso   1.00
C26    C     0.40134   0.25128   0.09876   0.01267  Uiso   1.00
C27    C     0.44742   0.27484   0.17266   0.01267  Uiso   1.00
C28    C     0.41092   0.19044   0.21278   0.01267  Uiso   1.00
C29    C     0.32932   0.07984   0.17840   0.01267  Uiso   1.00
C30    C     0.28561   0.05522   0.10457   0.01267  Uiso   1.00
C31    C     0.32150   0.14080   0.06429   0.01267  Uiso   1.00
C32    C     0.58555   0.70010   0.23912   0.01267  Uiso   1.00
C33    C     0.57097   0.78154   0.30318   0.01267  Uiso   1.00
C34    C     0.51337   0.74634   0.36540   0.01267  Uiso   1.00
C35    C     0.49572   0.82104   0.42190   0.01267  Uiso   1.00
C36    C     0.53845   0.93230   0.41713   0.01267  Uiso   1.00
C37    C     0.59658   0.96776   0.35620   0.01267  Uiso   1.00
C38    C     0.61154   0.89168   0.29940   0.01267  Uiso   1.00
C39    C     0.86466   0.66892   0.05619   0.01267  Uiso   1.00
C40    C     0.98602   0.67004   0.05750   0.01267  Uiso   1.00
C41    C     0.01884   0.61668   0.10677   0.01267  Uiso   1.00
C42    C     0.92711   0.56682   0.15408   0.01267  Uiso   1.00
C43    C     0.80842   0.56944   0.14983   0.01267  Uiso   1.00
C44    C     0.14558   0.61096   0.10644   0.01267  Uiso   1.00
C45    C     0.25603   0.69686   0.08780   0.01267  Uiso   1.00
C46    C     0.36991   0.68622   0.08370   0.01267  Uiso   1.00
C47    C     0.27856   0.51632   0.11780   0.01267  Uiso   1.00
C48    C     0.15999   0.51978   0.12360   0.01267  Uiso   1.00
C49    C     0.90715   0.34450   0.55607   0.01267  Uiso   1.00
C50    C     0.84994   0.25128   0.59876   0.01267  Uiso   1.00
C51    C     0.82742   0.27484   0.67266   0.01267  Uiso   1.00
C52    C     0.77952   0.19044   0.71278   0.01267  Uiso   1.00
C53    C     0.75052   0.07984   0.67840   0.01267  Uiso   1.00
C54    C     0.76961   0.05522   0.60457   0.01267  Uiso   1.00
C55    C     0.81930   0.14080   0.56429   0.01267  Uiso   1.00
C56    C     0.11455   0.70010   0.73912   0.01267  Uiso   1.00
C57    C     0.21057   0.78154   0.80318   0.01267  Uiso   1.00
C58    C     0.23297   0.74634   0.86540   0.01267  Uiso   1.00
C59    C     0.32532   0.82104   0.92190   0.01267  Uiso   1.00
C60    C     0.39385   0.93230   0.91713   0.01267  Uiso   1.00
C61    C     0.37118   0.96776   0.85620   0.01267  Uiso   1.00
C62    C     0.28014   0.89168   0.79940   0.01267  Uiso   1.00
C63    C     0.80426   0.66892   0.55619   0.01267  Uiso   1.00
C64    C     0.68402   0.67004   0.55750   0.01267  Uiso   1.00
C65    C     0.59784   0.61668   0.60677   0.01267  Uiso   1.00
C66    C     0.63971   0.56682   0.65408   0.01267  Uiso   1.00
C67    C     0.76102   0.56944   0.64983   0.01267  Uiso   1.00
C68    C     0.46538   0.61096   0.60644   0.01267  Uiso   1.00
C69    C     0.44083   0.69686   0.58780   0.01267  Uiso   1.00
C70    C     0.31631   0.68622   0.58370   0.01267  Uiso   1.00
C71    C     0.23776   0.51632   0.61780   0.01267  Uiso   1.00
C72    C     0.35979   0.51978   0.62360   0.01267  Uiso   1.00
C73    C     0.56265   0.65550   0.94393   0.01267  Uiso   1.00
C74    C     0.59866   0.74872   0.90124   0.01267  Uiso   1.00
C75    C     0.55258   0.72516   0.82734   0.01267  Uiso   1.00
C76    C     0.58908   0.80956   0.78722   0.01267  Uiso   1.00
C77    C     0.67068   0.92016   0.82160   0.01267  Uiso   1.00
C78    C     0.71439   0.94478   0.89543   0.01267  Uiso   1.00
C79    C     0.67850   0.85920   0.93571   0.01267  Uiso   1.00
C80    C     0.41445   0.29990   0.76088   0.01267  Uiso   1.00
C81    C     0.42903   0.21846   0.69682   0.01267  Uiso   1.00
C82    C     0.48663   0.25366   0.63460   0.01267  Uiso   1.00
C83    C     0.50428   0.17896   0.57810   0.01267  Uiso   1.00
C84    C     0.46155   0.06770   0.58287   0.01267  Uiso   1.00
C85    C     0.40342   0.03224   0.64380   0.01267  Uiso   1.00
C86    C     0.38846   0.10832   0.70060   0.01267  Uiso   1.00
C87    C     0.13534   0.33108   0.94381   0.01267  Uiso   1.00
C88    C     0.01398   0.32996   0.94250   0.01267  Uiso   1.00
C89    C     0.98116   0.38332   0.89323   0.01267  Uiso   1.00
C90    C     0.07289   0.43318   0.84592   0.01267  Uiso   1.00
C91    C     0.19158   0.43056   0.85017   0.01267  Uiso   1.00
C92    C     0.85442   0.38904   0.89356   0.01267  Uiso   1.00
C93    C     0.74397   0.30314   0.91220   0.01267  Uiso   1.00
C94    C     0.63009   0.31378   0.91630   0.01267  Uiso   1.00
C95    C     0.72144   0.48368   0.88220   0.01267  Uiso   1.00
C96    C     0.84001   0.48022   0.87640   0.01267  Uiso   1.00
N1     N     0.15665   0.38110   0.39873   0.01267  Uiso   1.00
N2     N     0.78642   0.40384   0.40328   0.01267  Uiso   1.00
N3     N     0.29675   0.01410   0.28461   0.01267  Uiso   1.00
N4     N     0.50714   0.98188   0.02741   0.01267  Uiso   1.00
N5     N     0.77555   0.61890   0.10127   0.01267  Uiso   1.00
N6     N     0.38258   0.59616   0.09672   0.01267  Uiso   1.00
N7     N     0.28265   0.98590   0.21539   0.01267  Uiso   1.00
N8     N     0.52526   0.01812   0.47259   0.01267  Uiso   1.00
N9     N     0.84335   0.61890   0.60127   0.01267  Uiso   1.00
N10    N     0.21358   0.59616   0.59672   0.01267  Uiso   1.00
N11    N     0.70325   0.98590   0.71539   0.01267  Uiso   1.00
N12    N     0.49286   0.01812   0.97259   0.01267  Uiso   1.00
N13    N     0.22445   0.38110   0.89873   0.01267  Uiso   1.00
N14    N     0.61742   0.40384   0.90328   0.01267  Uiso   1.00
N15    N     0.71735   0.01410   0.78461   0.01267  Uiso   1.00
N16    N     0.47474   0.98188   0.52741   0.01267  Uiso   1.00
O1     O     0.07663   0.55946   0.41201   0.01267  Uiso   1.00
O2     O     0.95442   0.39764   0.25520   0.01267  Uiso   1.00
O3     O     0.88515   0.26084   0.31911   0.01267  Uiso   1.00
O4     O     0.06548   0.68140   0.50884   0.01267  Uiso   1.00
O5     O     0.51717   0.44054   0.08799   0.01267  Uiso   1.00
O6     O     0.55678   0.60236   0.24480   0.01267  Uiso   1.00
O7     O     0.62431   0.73916   0.18089   0.01267  Uiso   1.00
O8     O     0.38408   0.31860   0.99116   0.01267  Uiso   1.00
O9     O     0.92337   0.44054   0.58799   0.01267  Uiso   1.00
O10    O     0.04558   0.60236   0.74480   0.01267  Uiso   1.00
O11    O     0.11485   0.73916   0.68089   0.01267  Uiso   1.00
O12    O     0.93452   0.31860   0.49116   0.01267  Uiso   1.00
O13    O     0.48283   0.55946   0.91201   0.01267  Uiso   1.00
O14    O     0.44322   0.39764   0.75520   0.01267  Uiso   1.00
O15    O     0.37569   0.26084   0.81911   0.01267  Uiso   1.00
O16    O     0.61592   0.68140   0.00884   0.01267  Uiso   1.00
