data_OSOMIT_clean
_audit_creation_date              2014-07-02
_audit_creation_method            'Materials Studio'
_symmetry_space_group_name_H-M    'P1'
_symmetry_Int_Tables_number       1
_symmetry_cell_setting            triclinic
loop_
_symmetry_equiv_pos_as_xyz
  x,y,z
_cell_length_a                    10.7210
_cell_length_b                    13.0180
_cell_length_c                    15.1830
_cell_angle_alpha                 95.5990
_cell_angle_beta                  108.0100
_cell_angle_gamma                 104.7020
loop_
_atom_site_label
_atom_site_type_symbol
_atom_site_fract_x
_atom_site_fract_y
_atom_site_fract_z
_atom_site_U_iso_or_equiv
_atom_site_adp_type
_atom_site_occupancy
Zn1    Zn    0.58228   0.07958   0.65621   0.01267  Uiso   1.00
Zn2    Zn    0.74817   0.36797   0.91608   0.01267  Uiso   1.00
Zn3    Zn    0.41831   0.54113   0.83732   0.01267  Uiso   1.00
Zn4    Zn    0.41772   0.92042   0.34379   0.01267  Uiso   1.00
Zn5    Zn    0.25183   0.63203   0.08392   0.01267  Uiso   1.00
Zn6    Zn    0.58169   0.45887   0.16268   0.01267  Uiso   1.00
H1     H     0.85230   0.43180   0.66580   0.01267  Uiso   1.00
H2     H     0.69470   0.37780   0.61270   0.01267  Uiso   1.00
H3     H     0.05850   0.33260   0.85900   0.01267  Uiso   1.00
H4     H     0.16590   0.29830   0.93680   0.01267  Uiso   1.00
H5     H     0.63680   0.27420   0.47540   0.01267  Uiso   1.00
H6     H     0.75300   0.24860   0.44350   0.01267  Uiso   1.00
H7     H     0.05110   0.04030   0.38980   0.01267  Uiso   1.00
H8     H     0.93280   0.06490   0.41930   0.01267  Uiso   1.00
H9     H     0.26300   0.08950   0.61000   0.01267  Uiso   1.00
H10    H     0.23970   0.04300   0.50520   0.01267  Uiso   1.00
H11    H     0.30040   0.19400   0.80820   0.01267  Uiso   1.00
H12    H     0.32580   0.24170   0.91280   0.01267  Uiso   1.00
H13    H     0.88340   0.68430   0.81570   0.01267  Uiso   1.00
H14    H     0.01510   0.59440   0.91000   0.01267  Uiso   1.00
H15    H     0.15970   0.42020   0.49280   0.01267  Uiso   1.00
H16    H     0.18410   0.62280   0.76400   0.01267  Uiso   1.00
H17    H     0.05020   0.03300   0.84060   0.01267  Uiso   1.00
H18    H     0.26020   0.86500   0.07770   0.01267  Uiso   1.00
H19    H     0.33500   0.44000   0.63360   0.01267  Uiso   1.00
H20    H     0.13850   0.96410   0.98830   0.01267  Uiso   1.00
H21    H     0.00490   0.60680   0.62820   0.01267  Uiso   1.00
H22    H     0.72810   0.77480   0.80370   0.01267  Uiso   1.00
H23    H     0.89930   0.11770   0.76000   0.01267  Uiso   1.00
H24    H     0.58580   0.86650   0.72140   0.01267  Uiso   1.00
H25    H     0.14770   0.56820   0.33420   0.01267  Uiso   1.00
H26    H     0.30530   0.62220   0.38730   0.01267  Uiso   1.00
H27    H     0.94150   0.66740   0.14100   0.01267  Uiso   1.00
H28    H     0.83410   0.70170   0.06320   0.01267  Uiso   1.00
H29    H     0.36320   0.72580   0.52460   0.01267  Uiso   1.00
H30    H     0.24700   0.75140   0.55650   0.01267  Uiso   1.00
H31    H     0.94890   0.95970   0.61020   0.01267  Uiso   1.00
H32    H     0.06720   0.93510   0.58070   0.01267  Uiso   1.00
H33    H     0.73700   0.91050   0.39000   0.01267  Uiso   1.00
H34    H     0.76030   0.95700   0.49480   0.01267  Uiso   1.00
H35    H     0.69960   0.80600   0.19180   0.01267  Uiso   1.00
H36    H     0.67420   0.75830   0.08720   0.01267  Uiso   1.00
H37    H     0.11660   0.31570   0.18430   0.01267  Uiso   1.00
H38    H     0.98490   0.40560   0.09000   0.01267  Uiso   1.00
H39    H     0.84030   0.57980   0.50720   0.01267  Uiso   1.00
H40    H     0.81590   0.37720   0.23600   0.01267  Uiso   1.00
H41    H     0.94980   0.96700   0.15940   0.01267  Uiso   1.00
H42    H     0.73980   0.13500   0.92230   0.01267  Uiso   1.00
H43    H     0.66500   0.56000   0.36640   0.01267  Uiso   1.00
H44    H     0.86150   0.03590   0.01170   0.01267  Uiso   1.00
H45    H     0.99510   0.39320   0.37180   0.01267  Uiso   1.00
H46    H     0.27190   0.22520   0.19630   0.01267  Uiso   1.00
H47    H     0.10070   0.88230   0.24000   0.01267  Uiso   1.00
H48    H     0.41420   0.13350   0.27860   0.01267  Uiso   1.00
C1     C     0.77930   0.36370   0.64720   0.01267  Uiso   1.00
C2     C     0.76490   0.32580   0.73620   0.01267  Uiso   1.00
C3     C     0.12820   0.27860   0.72700   0.01267  Uiso   1.00
C4     C     0.08110   0.19060   0.57950   0.01267  Uiso   1.00
C5     C     0.93080   0.26760   0.61160   0.01267  Uiso   1.00
C6     C     0.15610   0.34450   0.89030   0.01267  Uiso   1.00
C7     C     0.70760   0.23820   0.48960   0.01267  Uiso   1.00
C8     C     0.02520   0.09680   0.41980   0.01267  Uiso   1.00
C9     C     0.24700   0.10680   0.54750   0.01267  Uiso   1.00
C10    C     0.63900   0.11740   0.47830   0.01267  Uiso   1.00
C11    C     0.46340   0.32500   0.86290   0.01267  Uiso   1.00
C12    C     0.32390   0.26090   0.85230   0.01267  Uiso   1.00
C13    C     0.22030   0.46100   0.94160   0.01267  Uiso   1.00
C14    C     0.36930   0.19690   0.55040   0.01267  Uiso   1.00
C15    C     0.02180   0.18390   0.36030   0.01267  Uiso   1.00
C16    C     0.95920   0.72290   0.86840   0.01267  Uiso   1.00
C17    C     0.05840   0.50790   0.54490   0.01267  Uiso   1.00
C18    C     0.03870   0.66930   0.92610   0.01267  Uiso   1.00
C19    C     0.16160   0.46040   0.54750   0.01267  Uiso   1.00
C20    C     0.17790   0.58070   0.70880   0.01267  Uiso   1.00
C21    C     0.90440   0.89450   0.83360   0.01267  Uiso   1.00
C22    C     0.95610   0.99810   0.81810   0.01267  Uiso   1.00
C23    C     0.18340   0.82890   0.02480   0.01267  Uiso   1.00
C24    C     0.26740   0.47330   0.63230   0.01267  Uiso   1.00
C25    C     0.11080   0.88910   0.97120   0.01267  Uiso   1.00
C26    C     0.99490   0.83550   0.89080   0.01267  Uiso   1.00
C27    C     0.06980   0.57120   0.62760   0.01267  Uiso   1.00
C28    C     0.76520   0.84460   0.79600   0.01267  Uiso   1.00
C29    C     0.86430   0.04770   0.76840   0.01267  Uiso   1.00
C30    C     0.68020   0.90030   0.74610   0.01267  Uiso   1.00
C31    C     0.22070   0.63630   0.35280   0.01267  Uiso   1.00
C32    C     0.23510   0.67420   0.26380   0.01267  Uiso   1.00
C33    C     0.87180   0.72140   0.27300   0.01267  Uiso   1.00
C34    C     0.91890   0.80940   0.42050   0.01267  Uiso   1.00
C35    C     0.06920   0.73240   0.38840   0.01267  Uiso   1.00
C36    C     0.84390   0.65550   0.10970   0.01267  Uiso   1.00
C37    C     0.29240   0.76180   0.51040   0.01267  Uiso   1.00
C38    C     0.97480   0.90320   0.58020   0.01267  Uiso   1.00
C39    C     0.75300   0.89320   0.45250   0.01267  Uiso   1.00
C40    C     0.36100   0.88260   0.52170   0.01267  Uiso   1.00
C41    C     0.53660   0.67500   0.13710   0.01267  Uiso   1.00
C42    C     0.67610   0.73910   0.14770   0.01267  Uiso   1.00
C43    C     0.77970   0.53900   0.05840   0.01267  Uiso   1.00
C44    C     0.63070   0.80310   0.44960   0.01267  Uiso   1.00
C45    C     0.97820   0.81610   0.63970   0.01267  Uiso   1.00
C46    C     0.04080   0.27710   0.13160   0.01267  Uiso   1.00
C47    C     0.94160   0.49210   0.45510   0.01267  Uiso   1.00
C48    C     0.96130   0.33070   0.07390   0.01267  Uiso   1.00
C49    C     0.83840   0.53960   0.45250   0.01267  Uiso   1.00
C50    C     0.82210   0.41930   0.29120   0.01267  Uiso   1.00
C51    C     0.09560   0.10550   0.16640   0.01267  Uiso   1.00
C52    C     0.04390   0.00190   0.18190   0.01267  Uiso   1.00
C53    C     0.81660   0.17110   0.97520   0.01267  Uiso   1.00
C54    C     0.73260   0.52670   0.36770   0.01267  Uiso   1.00
C55    C     0.88920   0.11090   0.02880   0.01267  Uiso   1.00
C56    C     0.00510   0.16450   0.10920   0.01267  Uiso   1.00
C57    C     0.93020   0.42880   0.37240   0.01267  Uiso   1.00
C58    C     0.23480   0.15540   0.20400   0.01267  Uiso   1.00
C59    C     0.13570   0.95230   0.23160   0.01267  Uiso   1.00
C60    C     0.31980   0.09970   0.25390   0.01267  Uiso   1.00
N1     N     0.01230   0.30770   0.70140   0.01267  Uiso   1.00
N2     N     0.80860   0.29020   0.58350   0.01267  Uiso   1.00
N3     N     0.17030   0.22260   0.66880   0.01267  Uiso   1.00
N4     N     0.95840   0.20800   0.54580   0.01267  Uiso   1.00
N5     N     0.11670   0.13100   0.51690   0.01267  Uiso   1.00
N6     N     0.21250   0.31020   0.82020   0.01267  Uiso   1.00
N7     N     0.14710   0.72050   0.00340   0.01267  Uiso   1.00
N8     N     0.27490   0.53190   0.71160   0.01267  Uiso   1.00
N9     N     0.72950   0.00160   0.73220   0.01267  Uiso   1.00
N10    N     0.98770   0.69230   0.29860   0.01267  Uiso   1.00
N11    N     0.19140   0.70980   0.41650   0.01267  Uiso   1.00
N12    N     0.82970   0.77740   0.33120   0.01267  Uiso   1.00
N13    N     0.04160   0.79200   0.45420   0.01267  Uiso   1.00
N14    N     0.88330   0.86900   0.48310   0.01267  Uiso   1.00
N15    N     0.78750   0.68980   0.17980   0.01267  Uiso   1.00
N16    N     0.85290   0.27950   0.99660   0.01267  Uiso   1.00
N17    N     0.72510   0.46810   0.28840   0.01267  Uiso   1.00
N18    N     0.27050   0.99840   0.26780   0.01267  Uiso   1.00
O1     O     0.65940   0.07230   0.54920   0.01267  Uiso   1.00
O2     O     0.78380   0.40550   0.80280   0.01267  Uiso   1.00
O3     O     0.73650   0.23140   0.74720   0.01267  Uiso   1.00
O4     O     0.56890   0.06950   0.39540   0.01267  Uiso   1.00
O5     O     0.55450   0.27820   0.88550   0.01267  Uiso   1.00
O6     O     0.49430   0.42080   0.85120   0.01267  Uiso   1.00
O7     O     0.17520   0.48420   0.00660   0.01267  Uiso   1.00
O8     O     0.30590   0.53090   0.92080   0.01267  Uiso   1.00
O9     O     0.35080   0.27270   0.50680   0.01267  Uiso   1.00
O10    O     0.48790   0.19180   0.59350   0.01267  Uiso   1.00
O11    O     0.13420   0.26460   0.38160   0.01267  Uiso   1.00
O12    O     0.91880   0.17760   0.29380   0.01267  Uiso   1.00
O13    O     0.34060   0.92770   0.45080   0.01267  Uiso   1.00
O14    O     0.21620   0.59450   0.19720   0.01267  Uiso   1.00
O15    O     0.26350   0.76860   0.25280   0.01267  Uiso   1.00
O16    O     0.43110   0.93050   0.60460   0.01267  Uiso   1.00
O17    O     0.44550   0.72180   0.11450   0.01267  Uiso   1.00
O18    O     0.50570   0.57920   0.14880   0.01267  Uiso   1.00
O19    O     0.82480   0.51580   0.99340   0.01267  Uiso   1.00
O20    O     0.69410   0.46910   0.07920   0.01267  Uiso   1.00
O21    O     0.64920   0.72730   0.49320   0.01267  Uiso   1.00
O22    O     0.51210   0.80820   0.40650   0.01267  Uiso   1.00
O23    O     0.86580   0.73540   0.61840   0.01267  Uiso   1.00
O24    O     0.08120   0.82240   0.70620   0.01267  Uiso   1.00
