data_image0
_cell_length_a       16.159
_cell_length_b       14.035
_cell_length_c       15.438
_cell_angle_alpha    90
_cell_angle_beta     109.09
_cell_angle_gamma    90

_symmetry_space_group_name_H-M    "P 1"
_symmetry_int_tables_number       1

loop_
  _symmetry_equiv_pos_as_xyz
  'x, y, z'

loop_
  _atom_site_label
  _atom_site_occupancy
  _atom_site_fract_x
  _atom_site_fract_y
  _atom_site_fract_z
  _atom_site_thermal_displace_type
  _atom_site_B_iso_or_equiv
  _atom_site_type_symbol
  N1       1.0000 0.53870  0.29960  0.35030  Biso   1.000  N
  N2       1.0000 0.54340  0.17490  0.43780  Biso   1.000  N
  N3       1.0000 0.46120  0.50220  0.15630  Biso   1.000  N
  N4       1.0000 0.38650  0.62010  0.07540  Biso   1.000  N
  C1       1.0000 0.50120  0.21860  0.35800  Biso   1.000  C
  H1       1.0000 0.45170  0.19440  0.31380  Biso   1.000  H
  C2       1.0000 0.60950  0.30790  0.42960  Biso   1.000  C
  H2       1.0000 0.64860  0.35870  0.44380  Biso   1.000  H
  C3       1.0000 0.61340  0.23120  0.48340  Biso   1.000  C
  H3       1.0000 0.65520  0.21900  0.54010  Biso   1.000  H
  C4       1.0000 0.52120  0.08500  0.46920  Biso   1.000  C
  C5       1.0000 0.58560  0.02230  0.51290  Biso   1.000  C
  H4       1.0000 0.64380  0.03730  0.52120  Biso   1.000  H
  C6       1.0000 0.43500  0.06340  0.45510  Biso   1.000  C
  H5       1.0000 0.39110  0.10590  0.42430  Biso   1.000  H
  C7       1.0000 0.38830  0.54970  0.13520  Biso   1.000  C
  H6       1.0000 0.34320  0.53670  0.15850  Biso   1.000  H
  C8       1.0000 0.50920  0.54290  0.10870  Biso   1.000  C
  H7       1.0000 0.56480  0.52360  0.11050  Biso   1.000  H
  C9       1.0000 0.46380  0.61550  0.05850  Biso   1.000  C
  H8       1.0000 0.48180  0.65500  0.01960  Biso   1.000  H
  C10      1.0000 0.31650  0.68660  0.03720  Biso   1.000  C
  C11      1.0000 0.29410  0.71040  0.94610  Biso   1.000  C
  H9       1.0000 0.32410  0.68360  0.90990  Biso   1.000  H
  C12      1.0000 0.27330  0.72560  0.09170  Biso   1.000  C
  H10      1.0000 0.28910  0.70930  0.15340  Biso   1.000  H
  N5       1.0000 0.03870  0.79960  0.35030  Biso   1.000  N
  N6       1.0000 0.04340  0.67490  0.43780  Biso   1.000  N
  N7       1.0000 0.96120  0.00220  0.15630  Biso   1.000  N
  N8       1.0000 0.88650  0.12010  0.07540  Biso   1.000  N
  C13      1.0000 0.00120  0.71860  0.35800  Biso   1.000  C
  H11      1.0000 0.95170  0.69440  0.31380  Biso   1.000  H
  C14      1.0000 0.10950  0.80790  0.42960  Biso   1.000  C
  H12      1.0000 0.14860  0.85870  0.44380  Biso   1.000  H
  C15      1.0000 0.11340  0.73120  0.48340  Biso   1.000  C
  H13      1.0000 0.15520  0.71900  0.54010  Biso   1.000  H
  C16      1.0000 0.02120  0.58500  0.46920  Biso   1.000  C
  C17      1.0000 0.08560  0.52230  0.51290  Biso   1.000  C
  H14      1.0000 0.14380  0.53730  0.52120  Biso   1.000  H
  C18      1.0000 0.93500  0.56340  0.45510  Biso   1.000  C
  H15      1.0000 0.89110  0.60590  0.42430  Biso   1.000  H
  C19      1.0000 0.88830  0.04970  0.13520  Biso   1.000  C
  H16      1.0000 0.84320  0.03670  0.15850  Biso   1.000  H
  C20      1.0000 0.00920  0.04290  0.10870  Biso   1.000  C
  H17      1.0000 0.06480  0.02360  0.11050  Biso   1.000  H
  C21      1.0000 0.96380  0.11550  0.05850  Biso   1.000  C
  H18      1.0000 0.98180  0.15500  0.01960  Biso   1.000  H
  C22      1.0000 0.81650  0.18660  0.03720  Biso   1.000  C
  C23      1.0000 0.79410  0.21040  0.94610  Biso   1.000  C
  H19      1.0000 0.82410  0.18360  0.90990  Biso   1.000  H
  C24      1.0000 0.77330  0.22560  0.09170  Biso   1.000  C
  H20      1.0000 0.78910  0.20930  0.15340  Biso   1.000  H
  N9       1.0000 0.46130  0.29960  0.14970  Biso   1.000  N
  N10      1.0000 0.45660  0.17490  0.06220  Biso   1.000  N
  N11      1.0000 0.53880  0.50220  0.34370  Biso   1.000  N
  N12      1.0000 0.61350  0.62010  0.42460  Biso   1.000  N
  C25      1.0000 0.49880  0.21860  0.14200  Biso   1.000  C
  H21      1.0000 0.54830  0.19440  0.18620  Biso   1.000  H
  C26      1.0000 0.39050  0.30790  0.07040  Biso   1.000  C
  H22      1.0000 0.35140  0.35870  0.05620  Biso   1.000  H
  C27      1.0000 0.38660  0.23120  0.01660  Biso   1.000  C
  H23      1.0000 0.34480  0.21900  0.95990  Biso   1.000  H
  C28      1.0000 0.47880  0.08500  0.03080  Biso   1.000  C
  C29      1.0000 0.41440  0.02230  0.98710  Biso   1.000  C
  H24      1.0000 0.35620  0.03730  0.97880  Biso   1.000  H
  C30      1.0000 0.56500  0.06340  0.04490  Biso   1.000  C
  H25      1.0000 0.60890  0.10590  0.07570  Biso   1.000  H
  C31      1.0000 0.61170  0.54970  0.36480  Biso   1.000  C
  H26      1.0000 0.65680  0.53670  0.34150  Biso   1.000  H
  C32      1.0000 0.49080  0.54290  0.39130  Biso   1.000  C
  H27      1.0000 0.43520  0.52360  0.38950  Biso   1.000  H
  C33      1.0000 0.53620  0.61550  0.44150  Biso   1.000  C
  H28      1.0000 0.51820  0.65500  0.48040  Biso   1.000  H
  C34      1.0000 0.68350  0.68660  0.46280  Biso   1.000  C
  C35      1.0000 0.70590  0.71040  0.55390  Biso   1.000  C
  H29      1.0000 0.67590  0.68360  0.59010  Biso   1.000  H
  C36      1.0000 0.72670  0.72560  0.40830  Biso   1.000  C
  H30      1.0000 0.71090  0.70930  0.34660  Biso   1.000  H
  N13      1.0000 0.96130  0.79960  0.14970  Biso   1.000  N
  N14      1.0000 0.95660  0.67490  0.06220  Biso   1.000  N
  N15      1.0000 0.03880  0.00220  0.34370  Biso   1.000  N
  N16      1.0000 0.11350  0.12010  0.42460  Biso   1.000  N
  C37      1.0000 0.99880  0.71860  0.14200  Biso   1.000  C
  H31      1.0000 0.04830  0.69440  0.18620  Biso   1.000  H
  C38      1.0000 0.89050  0.80790  0.07040  Biso   1.000  C
  H32      1.0000 0.85140  0.85870  0.05620  Biso   1.000  H
  C39      1.0000 0.88660  0.73120  0.01660  Biso   1.000  C
  H33      1.0000 0.84480  0.71900  0.95990  Biso   1.000  H
  C40      1.0000 0.97880  0.58500  0.03080  Biso   1.000  C
  C41      1.0000 0.91440  0.52230  0.98710  Biso   1.000  C
  H34      1.0000 0.85620  0.53730  0.97880  Biso   1.000  H
  C42      1.0000 0.06500  0.56340  0.04490  Biso   1.000  C
  H35      1.0000 0.10890  0.60590  0.07570  Biso   1.000  H
  C43      1.0000 0.11170  0.04970  0.36480  Biso   1.000  C
  H36      1.0000 0.15680  0.03670  0.34150  Biso   1.000  H
  C44      1.0000 0.99080  0.04290  0.39130  Biso   1.000  C
  H37      1.0000 0.93520  0.02360  0.38950  Biso   1.000  H
  C45      1.0000 0.03620  0.11550  0.44150  Biso   1.000  C
  H38      1.0000 0.01820  0.15500  0.48040  Biso   1.000  H
  C46      1.0000 0.18350  0.18660  0.46280  Biso   1.000  C
  C47      1.0000 0.20590  0.21040  0.55390  Biso   1.000  C
  H39      1.0000 0.17590  0.18360  0.59010  Biso   1.000  H
  C48      1.0000 0.22670  0.22560  0.40830  Biso   1.000  C
  H40      1.0000 0.21090  0.20930  0.34660  Biso   1.000  H
  N17      1.0000 0.46130  0.70040  0.64970  Biso   1.000  N
  N18      1.0000 0.45660  0.82510  0.56220  Biso   1.000  N
  N19      1.0000 0.53880  0.49780  0.84370  Biso   1.000  N
  N20      1.0000 0.61350  0.37990  0.92460  Biso   1.000  N
  C49      1.0000 0.49880  0.78140  0.64200  Biso   1.000  C
  H41      1.0000 0.54830  0.80560  0.68620  Biso   1.000  H
  C50      1.0000 0.39050  0.69210  0.57040  Biso   1.000  C
  H42      1.0000 0.35140  0.64130  0.55620  Biso   1.000  H
  C51      1.0000 0.38660  0.76880  0.51660  Biso   1.000  C
  H43      1.0000 0.34480  0.78100  0.45990  Biso   1.000  H
  C52      1.0000 0.47880  0.91500  0.53080  Biso   1.000  C
  C53      1.0000 0.41440  0.97770  0.48710  Biso   1.000  C
  H44      1.0000 0.35620  0.96270  0.47880  Biso   1.000  H
  C54      1.0000 0.56500  0.93660  0.54490  Biso   1.000  C
  H45      1.0000 0.60890  0.89410  0.57570  Biso   1.000  H
  C55      1.0000 0.61170  0.45030  0.86480  Biso   1.000  C
  H46      1.0000 0.65680  0.46330  0.84150  Biso   1.000  H
  C56      1.0000 0.49080  0.45710  0.89130  Biso   1.000  C
  H47      1.0000 0.43520  0.47640  0.88950  Biso   1.000  H
  C57      1.0000 0.53620  0.38450  0.94150  Biso   1.000  C
  H48      1.0000 0.51820  0.34500  0.98040  Biso   1.000  H
  C58      1.0000 0.68350  0.31340  0.96280  Biso   1.000  C
  C59      1.0000 0.70590  0.28960  0.05390  Biso   1.000  C
  H49      1.0000 0.67590  0.31640  0.09010  Biso   1.000  H
  C60      1.0000 0.72670  0.27440  0.90830  Biso   1.000  C
  H50      1.0000 0.71090  0.29070  0.84660  Biso   1.000  H
  N21      1.0000 0.96130  0.20040  0.64970  Biso   1.000  N
  N22      1.0000 0.95660  0.32510  0.56220  Biso   1.000  N
  N23      1.0000 0.03880  0.99780  0.84370  Biso   1.000  N
  N24      1.0000 0.11350  0.87990  0.92460  Biso   1.000  N
  C61      1.0000 0.99880  0.28140  0.64200  Biso   1.000  C
  H51      1.0000 0.04830  0.30560  0.68620  Biso   1.000  H
  C62      1.0000 0.89050  0.19210  0.57040  Biso   1.000  C
  H52      1.0000 0.85140  0.14130  0.55620  Biso   1.000  H
  C63      1.0000 0.88660  0.26880  0.51660  Biso   1.000  C
  H53      1.0000 0.84480  0.28100  0.45990  Biso   1.000  H
  C64      1.0000 0.97880  0.41500  0.53080  Biso   1.000  C
  C65      1.0000 0.91440  0.47770  0.48710  Biso   1.000  C
  H54      1.0000 0.85620  0.46270  0.47880  Biso   1.000  H
  C66      1.0000 0.06500  0.43660  0.54490  Biso   1.000  C
  H55      1.0000 0.10890  0.39410  0.57570  Biso   1.000  H
  C67      1.0000 0.11170  0.95030  0.86480  Biso   1.000  C
  H56      1.0000 0.15680  0.96330  0.84150  Biso   1.000  H
  C68      1.0000 0.99080  0.95710  0.89130  Biso   1.000  C
  H57      1.0000 0.93520  0.97640  0.88950  Biso   1.000  H
  C69      1.0000 0.03620  0.88450  0.94150  Biso   1.000  C
  H58      1.0000 0.01820  0.84500  0.98040  Biso   1.000  H
  C70      1.0000 0.18350  0.81340  0.96280  Biso   1.000  C
  C71      1.0000 0.20590  0.78960  0.05390  Biso   1.000  C
  H59      1.0000 0.17590  0.81640  0.09010  Biso   1.000  H
  C72      1.0000 0.22670  0.77440  0.90830  Biso   1.000  C
  H60      1.0000 0.21090  0.79070  0.84660  Biso   1.000  H
  N25      1.0000 0.53870  0.70040  0.85030  Biso   1.000  N
  N26      1.0000 0.54340  0.82510  0.93780  Biso   1.000  N
  N27      1.0000 0.46120  0.49780  0.65630  Biso   1.000  N
  N28      1.0000 0.38650  0.37990  0.57540  Biso   1.000  N
  C73      1.0000 0.50120  0.78140  0.85800  Biso   1.000  C
  H61      1.0000 0.45170  0.80560  0.81380  Biso   1.000  H
  C74      1.0000 0.60950  0.69210  0.92960  Biso   1.000  C
  H62      1.0000 0.64860  0.64130  0.94380  Biso   1.000  H
  C75      1.0000 0.61340  0.76880  0.98340  Biso   1.000  C
  H63      1.0000 0.65520  0.78100  0.04010  Biso   1.000  H
  C76      1.0000 0.52120  0.91500  0.96920  Biso   1.000  C
  C77      1.0000 0.58560  0.97770  0.01290  Biso   1.000  C
  H64      1.0000 0.64380  0.96270  0.02120  Biso   1.000  H
  C78      1.0000 0.43500  0.93660  0.95510  Biso   1.000  C
  H65      1.0000 0.39110  0.89410  0.92430  Biso   1.000  H
  C79      1.0000 0.38830  0.45030  0.63520  Biso   1.000  C
  H66      1.0000 0.34320  0.46330  0.65850  Biso   1.000  H
  C80      1.0000 0.50920  0.45710  0.60870  Biso   1.000  C
  H67      1.0000 0.56480  0.47640  0.61050  Biso   1.000  H
  C81      1.0000 0.46380  0.38450  0.55850  Biso   1.000  C
  H68      1.0000 0.48180  0.34500  0.51960  Biso   1.000  H
  C82      1.0000 0.31650  0.31340  0.53720  Biso   1.000  C
  C83      1.0000 0.29410  0.28960  0.44610  Biso   1.000  C
  H69      1.0000 0.32410  0.31640  0.40990  Biso   1.000  H
  C84      1.0000 0.27330  0.27440  0.59170  Biso   1.000  C
  H70      1.0000 0.28910  0.29070  0.65340  Biso   1.000  H
  N29      1.0000 0.03870  0.20040  0.85030  Biso   1.000  N
  N30      1.0000 0.04340  0.32510  0.93780  Biso   1.000  N
  N31      1.0000 0.96120  0.99780  0.65630  Biso   1.000  N
  N32      1.0000 0.88650  0.87990  0.57540  Biso   1.000  N
  C85      1.0000 0.00120  0.28140  0.85800  Biso   1.000  C
  H71      1.0000 0.95170  0.30560  0.81380  Biso   1.000  H
  C86      1.0000 0.10950  0.19210  0.92960  Biso   1.000  C
  H72      1.0000 0.14860  0.14130  0.94380  Biso   1.000  H
  C87      1.0000 0.11340  0.26880  0.98340  Biso   1.000  C
  H73      1.0000 0.15520  0.28100  0.04010  Biso   1.000  H
  C88      1.0000 0.02120  0.41500  0.96920  Biso   1.000  C
  C89      1.0000 0.08560  0.47770  0.01290  Biso   1.000  C
  H74      1.0000 0.14380  0.46270  0.02120  Biso   1.000  H
  C90      1.0000 0.93500  0.43660  0.95510  Biso   1.000  C
  H75      1.0000 0.89110  0.39410  0.92430  Biso   1.000  H
  C91      1.0000 0.88830  0.95030  0.63520  Biso   1.000  C
  H76      1.0000 0.84320  0.96330  0.65850  Biso   1.000  H
  C92      1.0000 0.00920  0.95710  0.60870  Biso   1.000  C
  H77      1.0000 0.06480  0.97640  0.61050  Biso   1.000  H
  C93      1.0000 0.96380  0.88450  0.55850  Biso   1.000  C
  H78      1.0000 0.98180  0.84500  0.51960  Biso   1.000  H
  C94      1.0000 0.81650  0.81340  0.53720  Biso   1.000  C
  C95      1.0000 0.79410  0.78960  0.44610  Biso   1.000  C
  H79      1.0000 0.82410  0.81640  0.40990  Biso   1.000  H
  C96      1.0000 0.77330  0.77440  0.59170  Biso   1.000  C
  H80      1.0000 0.78910  0.79070  0.65340  Biso   1.000  H
  Cu1      1.0000 0.50000  0.39685  0.25000  Biso   1.000  Cu
  Cu2      1.0000 0.00000  0.89685  0.25000  Biso   1.000  Cu
  Cu3      1.0000 0.50000  0.60315  0.75000  Biso   1.000  Cu
  Cu4      1.0000 0.00000  0.10315  0.75000  Biso   1.000  Cu
