data_image0
_cell_length_a       31.98
_cell_length_b       7.904
_cell_length_c       26.8
_cell_angle_alpha    90
_cell_angle_beta     90
_cell_angle_gamma    90

_symmetry_space_group_name_H-M    "P 1"
_symmetry_int_tables_number       1

loop_
  _symmetry_equiv_pos_as_xyz
  'x, y, z'

loop_
  _atom_site_label
  _atom_site_occupancy
  _atom_site_fract_x
  _atom_site_fract_y
  _atom_site_fract_z
  _atom_site_thermal_displace_type
  _atom_site_B_iso_or_equiv
  _atom_site_type_symbol
  Cd1      1.0000 0.10837  0.63406  0.43443  Biso   1.000  Cd
  C1       1.0000 0.17500  0.98980  0.53070  Biso   1.000  C
  C2       1.0000 0.08100  0.23860  0.58440  Biso   1.000  C
  H1       1.0000 0.09270  0.33560  0.59830  Biso   1.000  H
  C3       1.0000 0.09040  0.38390  0.50490  Biso   1.000  C
  C4       1.0000 0.24170  0.16430  0.63200  Biso   1.000  C
  H2       1.0000 0.26640  0.22500  0.63530  Biso   1.000  H
  C5       1.0000 0.07800  0.22920  0.53650  Biso   1.000  C
  C6       1.0000 0.06450  0.08470  0.51360  Biso   1.000  C
  H3       1.0000 0.06300  0.07970  0.47900  Biso   1.000  H
  C7       1.0000 0.05290  0.94640  0.54170  Biso   1.000  C
  N1       1.0000 0.17390  0.08830  0.48820  Biso   1.000  N
  H4       1.0000 0.18340  0.18980  0.48590  Biso   1.000  H
  O1       1.0000 0.06990  0.40840  0.46470  Biso   1.000  O
  C8       1.0000 0.19040  0.03430  0.57850  Biso   1.000  C
  O2       1.0000 0.11970  0.47720  0.51850  Biso   1.000  O
  C9       1.0000 0.05390  0.96040  0.59360  Biso   1.000  C
  H5       1.0000 0.04540  0.86820  0.61260  Biso   1.000  H
  C10      1.0000 0.06700  0.10410  0.61800  Biso   1.000  C
  C11      1.0000 0.06990  0.11840  0.67440  Biso   1.000  C
  C12      1.0000 0.15670  0.84520  0.51710  Biso   1.000  C
  H6       1.0000 0.15290  0.75430  0.53860  Biso   1.000  H
  C13      1.0000 0.03770  0.78650  0.51650  Biso   1.000  C
  O3       1.0000 0.07910  0.07060  0.86040  Biso   1.000  O
  O4       1.0000 0.11270  0.30310  0.84580  Biso   1.000  O
  C14      1.0000 0.09200  0.17890  0.83190  Biso   1.000  C
  O5       1.0000 0.04260  0.77380  0.46850  Biso   1.000  O
  O6       1.0000 0.02120  0.67150  0.54170  Biso   1.000  O
  C15      1.0000 0.08240  0.16310  0.77580  Biso   1.000  C
  C16      1.0000 0.08600  0.26500  0.69540  Biso   1.000  C
  H7       1.0000 0.09150  0.35660  0.67470  Biso   1.000  H
  C17      1.0000 0.09360  0.27970  0.74200  Biso   1.000  C
  H8       1.0000 0.10760  0.37590  0.75300  Biso   1.000  H
  C18      1.0000 0.16850  0.98200  0.62050  Biso   1.000  C
  H9       1.0000 0.14410  0.91910  0.61710  Biso   1.000  H
  C19      1.0000 0.18360  0.02510  0.66880  Biso   1.000  C
  H10      1.0000 0.16870  0.99220  0.69700  Biso   1.000  H
  C20      1.0000 0.22080  0.11750  0.67380  Biso   1.000  C
  C21      1.0000 0.22720  0.12410  0.58370  Biso   1.000  C
  H11      1.0000 0.24230  0.15770  0.55570  Biso   1.000  H
  C22      1.0000 0.23650  0.16340  0.72490  Biso   1.000  C
  C23      1.0000 0.26830  0.28290  0.81660  Biso   1.000  C
  C24      1.0000 0.22490  0.27980  0.80880  Biso   1.000  C
  H12      1.0000 0.20640  0.31900  0.83300  Biso   1.000  H
  C25      1.0000 0.27990  0.16720  0.73490  Biso   1.000  C
  H13      1.0000 0.29850  0.13100  0.71040  Biso   1.000  H
  C26      1.0000 0.21050  0.21510  0.76310  Biso   1.000  C
  H14      1.0000 0.18180  0.20660  0.75830  Biso   1.000  H
  C27      1.0000 0.29560  0.22390  0.78040  Biso   1.000  C
  H15      1.0000 0.32420  0.22210  0.78650  Biso   1.000  H
  C28      1.0000 0.28490  0.35860  0.86140  Biso   1.000  C
  N2       1.0000 0.32480  0.41110  0.86750  Biso   1.000  N
  C29      1.0000 0.26390  0.41320  0.90330  Biso   1.000  C
  H16      1.0000 0.23580  0.39680  0.91030  Biso   1.000  H
  N3       1.0000 0.14430  0.84380  0.46900  Biso   1.000  N
  C30      1.0000 0.33030  0.48940  0.91130  Biso   1.000  C
  N4       1.0000 0.29200  0.49510  0.93230  Biso   1.000  N
  H17      1.0000 0.28620  0.54380  0.96020  Biso   1.000  H
  C31      1.0000 0.15570  0.00110  0.45100  Biso   1.000  C
  H18      1.0000 0.15140  0.04000  0.41870  Biso   1.000  H
  C32      1.0000 0.06080  0.99320  0.70560  Biso   1.000  C
  H19      1.0000 0.05030  0.89200  0.69310  Biso   1.000  H
  N5       1.0000 0.06690  0.01200  0.75710  Biso   1.000  N
  H20      1.0000 0.06110  0.93020  0.77700  Biso   1.000  H
  Cd2      1.0000 0.10837  0.13406  0.93443  Biso   1.000  Cd
  C33      1.0000 0.17500  0.48980  0.03070  Biso   1.000  C
  C34      1.0000 0.08100  0.73860  0.08440  Biso   1.000  C
  H21      1.0000 0.09270  0.83560  0.09830  Biso   1.000  H
  C35      1.0000 0.09040  0.88390  0.00490  Biso   1.000  C
  C36      1.0000 0.24170  0.66430  0.13200  Biso   1.000  C
  H22      1.0000 0.26640  0.72500  0.13530  Biso   1.000  H
  C37      1.0000 0.07800  0.72920  0.03650  Biso   1.000  C
  C38      1.0000 0.06450  0.58470  0.01360  Biso   1.000  C
  H23      1.0000 0.06300  0.57970  0.97900  Biso   1.000  H
  C39      1.0000 0.05290  0.44640  0.04170  Biso   1.000  C
  N6       1.0000 0.17390  0.58830  0.98820  Biso   1.000  N
  H24      1.0000 0.18340  0.68980  0.98590  Biso   1.000  H
  O7       1.0000 0.06990  0.90840  0.96470  Biso   1.000  O
  C40      1.0000 0.19040  0.53430  0.07850  Biso   1.000  C
  O8       1.0000 0.11970  0.97720  0.01850  Biso   1.000  O
  C41      1.0000 0.05390  0.46040  0.09360  Biso   1.000  C
  H25      1.0000 0.04540  0.36820  0.11260  Biso   1.000  H
  C42      1.0000 0.06700  0.60410  0.11800  Biso   1.000  C
  C43      1.0000 0.06990  0.61840  0.17440  Biso   1.000  C
  C44      1.0000 0.15670  0.34520  0.01710  Biso   1.000  C
  H26      1.0000 0.15290  0.25430  0.03860  Biso   1.000  H
  C45      1.0000 0.03770  0.28650  0.01650  Biso   1.000  C
  O9       1.0000 0.07910  0.57060  0.36040  Biso   1.000  O
  O10      1.0000 0.11270  0.80310  0.34580  Biso   1.000  O
  C46      1.0000 0.09200  0.67890  0.33190  Biso   1.000  C
  O11      1.0000 0.04260  0.27380  0.96850  Biso   1.000  O
  O12      1.0000 0.02120  0.17150  0.04170  Biso   1.000  O
  C47      1.0000 0.08240  0.66310  0.27580  Biso   1.000  C
  C48      1.0000 0.08600  0.76500  0.19540  Biso   1.000  C
  H27      1.0000 0.09150  0.85660  0.17470  Biso   1.000  H
  C49      1.0000 0.09360  0.77970  0.24200  Biso   1.000  C
  H28      1.0000 0.10760  0.87590  0.25300  Biso   1.000  H
  C50      1.0000 0.16850  0.48200  0.12050  Biso   1.000  C
  H29      1.0000 0.14410  0.41910  0.11710  Biso   1.000  H
  C51      1.0000 0.18360  0.52510  0.16880  Biso   1.000  C
  H30      1.0000 0.16870  0.49220  0.19700  Biso   1.000  H
  C52      1.0000 0.22080  0.61750  0.17380  Biso   1.000  C
  C53      1.0000 0.22720  0.62410  0.08370  Biso   1.000  C
  H31      1.0000 0.24230  0.65770  0.05570  Biso   1.000  H
  C54      1.0000 0.23650  0.66340  0.22490  Biso   1.000  C
  C55      1.0000 0.26830  0.78290  0.31660  Biso   1.000  C
  C56      1.0000 0.22490  0.77980  0.30880  Biso   1.000  C
  H32      1.0000 0.20640  0.81900  0.33300  Biso   1.000  H
  C57      1.0000 0.27990  0.66720  0.23490  Biso   1.000  C
  H33      1.0000 0.29850  0.63100  0.21040  Biso   1.000  H
  C58      1.0000 0.21050  0.71510  0.26310  Biso   1.000  C
  H34      1.0000 0.18180  0.70660  0.25830  Biso   1.000  H
  C59      1.0000 0.29560  0.72390  0.28040  Biso   1.000  C
  H35      1.0000 0.32420  0.72210  0.28650  Biso   1.000  H
  C60      1.0000 0.28490  0.85860  0.36140  Biso   1.000  C
  N7       1.0000 0.32480  0.91110  0.36750  Biso   1.000  N
  C61      1.0000 0.26390  0.91320  0.40330  Biso   1.000  C
  H36      1.0000 0.23580  0.89680  0.41030  Biso   1.000  H
  N8       1.0000 0.14430  0.34380  0.96900  Biso   1.000  N
  C62      1.0000 0.33030  0.98940  0.41130  Biso   1.000  C
  N9       1.0000 0.29200  0.99510  0.43230  Biso   1.000  N
  H37      1.0000 0.28620  0.04380  0.46020  Biso   1.000  H
  C63      1.0000 0.15570  0.50110  0.95100  Biso   1.000  C
  H38      1.0000 0.15140  0.54000  0.91870  Biso   1.000  H
  C64      1.0000 0.06080  0.49320  0.20560  Biso   1.000  C
  H39      1.0000 0.05030  0.39200  0.19310  Biso   1.000  H
  N10      1.0000 0.06690  0.51200  0.25710  Biso   1.000  N
  H40      1.0000 0.06110  0.43020  0.27700  Biso   1.000  H
  Cd3      1.0000 0.89163  0.36594  0.43443  Biso   1.000  Cd
  C65      1.0000 0.82500  0.01020  0.53070  Biso   1.000  C
  C66      1.0000 0.91900  0.76140  0.58440  Biso   1.000  C
  H41      1.0000 0.90730  0.66440  0.59830  Biso   1.000  H
  C67      1.0000 0.90960  0.61610  0.50490  Biso   1.000  C
  C68      1.0000 0.75830  0.83570  0.63200  Biso   1.000  C
  H42      1.0000 0.73360  0.77500  0.63530  Biso   1.000  H
  C69      1.0000 0.92200  0.77080  0.53650  Biso   1.000  C
  C70      1.0000 0.93550  0.91530  0.51360  Biso   1.000  C
  H43      1.0000 0.93700  0.92030  0.47900  Biso   1.000  H
  C71      1.0000 0.94710  0.05360  0.54170  Biso   1.000  C
  N11      1.0000 0.82610  0.91170  0.48820  Biso   1.000  N
  H44      1.0000 0.81660  0.81020  0.48590  Biso   1.000  H
  O13      1.0000 0.93010  0.59160  0.46470  Biso   1.000  O
  C72      1.0000 0.80960  0.96570  0.57850  Biso   1.000  C
  O14      1.0000 0.88030  0.52280  0.51850  Biso   1.000  O
  C73      1.0000 0.94610  0.03960  0.59360  Biso   1.000  C
  H45      1.0000 0.95460  0.13180  0.61260  Biso   1.000  H
  C74      1.0000 0.93300  0.89590  0.61800  Biso   1.000  C
  C75      1.0000 0.93010  0.88160  0.67440  Biso   1.000  C
  C76      1.0000 0.84330  0.15480  0.51710  Biso   1.000  C
  H46      1.0000 0.84710  0.24570  0.53860  Biso   1.000  H
  C77      1.0000 0.96230  0.21350  0.51650  Biso   1.000  C
  O15      1.0000 0.92090  0.92940  0.86040  Biso   1.000  O
  O16      1.0000 0.88730  0.69690  0.84580  Biso   1.000  O
  C78      1.0000 0.90800  0.82110  0.83190  Biso   1.000  C
  O17      1.0000 0.95740  0.22620  0.46850  Biso   1.000  O
  O18      1.0000 0.97880  0.32850  0.54170  Biso   1.000  O
  C79      1.0000 0.91760  0.83690  0.77580  Biso   1.000  C
  C80      1.0000 0.91400  0.73500  0.69540  Biso   1.000  C
  H47      1.0000 0.90850  0.64340  0.67470  Biso   1.000  H
  C81      1.0000 0.90640  0.72030  0.74200  Biso   1.000  C
  H48      1.0000 0.89240  0.62410  0.75300  Biso   1.000  H
  C82      1.0000 0.83150  0.01800  0.62050  Biso   1.000  C
  H49      1.0000 0.85590  0.08090  0.61710  Biso   1.000  H
  C83      1.0000 0.81640  0.97490  0.66880  Biso   1.000  C
  H50      1.0000 0.83130  0.00780  0.69700  Biso   1.000  H
  C84      1.0000 0.77920  0.88250  0.67380  Biso   1.000  C
  C85      1.0000 0.77280  0.87590  0.58370  Biso   1.000  C
  H51      1.0000 0.75770  0.84230  0.55570  Biso   1.000  H
  C86      1.0000 0.76350  0.83660  0.72490  Biso   1.000  C
  C87      1.0000 0.73170  0.71710  0.81660  Biso   1.000  C
  C88      1.0000 0.77510  0.72020  0.80880  Biso   1.000  C
  H52      1.0000 0.79360  0.68100  0.83300  Biso   1.000  H
  C89      1.0000 0.72010  0.83280  0.73490  Biso   1.000  C
  H53      1.0000 0.70150  0.86900  0.71040  Biso   1.000  H
  C90      1.0000 0.78950  0.78490  0.76310  Biso   1.000  C
  H54      1.0000 0.81820  0.79340  0.75830  Biso   1.000  H
  C91      1.0000 0.70440  0.77610  0.78040  Biso   1.000  C
  H55      1.0000 0.67580  0.77790  0.78650  Biso   1.000  H
  C92      1.0000 0.71510  0.64140  0.86140  Biso   1.000  C
  N12      1.0000 0.67520  0.58890  0.86750  Biso   1.000  N
  C93      1.0000 0.73610  0.58680  0.90330  Biso   1.000  C
  H56      1.0000 0.76420  0.60320  0.91030  Biso   1.000  H
  N13      1.0000 0.85570  0.15620  0.46900  Biso   1.000  N
  C94      1.0000 0.66970  0.51060  0.91130  Biso   1.000  C
  N14      1.0000 0.70800  0.50490  0.93230  Biso   1.000  N
  H57      1.0000 0.71380  0.45620  0.96020  Biso   1.000  H
  C95      1.0000 0.84430  0.99890  0.45100  Biso   1.000  C
  H58      1.0000 0.84860  0.96000  0.41870  Biso   1.000  H
  C96      1.0000 0.93920  0.00680  0.70560  Biso   1.000  C
  H59      1.0000 0.94970  0.10800  0.69310  Biso   1.000  H
  N15      1.0000 0.93310  0.98800  0.75710  Biso   1.000  N
  H60      1.0000 0.93890  0.06980  0.77700  Biso   1.000  H
  Cd4      1.0000 0.89163  0.86594  0.93443  Biso   1.000  Cd
  C97      1.0000 0.82500  0.51020  0.03070  Biso   1.000  C
  C98      1.0000 0.91900  0.26140  0.08440  Biso   1.000  C
  H61      1.0000 0.90730  0.16440  0.09830  Biso   1.000  H
  C99      1.0000 0.90960  0.11610  0.00490  Biso   1.000  C
  C100     1.0000 0.75830  0.33570  0.13200  Biso   1.000  C
  H62      1.0000 0.73360  0.27500  0.13530  Biso   1.000  H
  C101     1.0000 0.92200  0.27080  0.03650  Biso   1.000  C
  C102     1.0000 0.93550  0.41530  0.01360  Biso   1.000  C
  H63      1.0000 0.93700  0.42030  0.97900  Biso   1.000  H
  C103     1.0000 0.94710  0.55360  0.04170  Biso   1.000  C
  N16      1.0000 0.82610  0.41170  0.98820  Biso   1.000  N
  H64      1.0000 0.81660  0.31020  0.98590  Biso   1.000  H
  O19      1.0000 0.93010  0.09160  0.96470  Biso   1.000  O
  C104     1.0000 0.80960  0.46570  0.07850  Biso   1.000  C
  O20      1.0000 0.88030  0.02280  0.01850  Biso   1.000  O
  C105     1.0000 0.94610  0.53960  0.09360  Biso   1.000  C
  H65      1.0000 0.95460  0.63180  0.11260  Biso   1.000  H
  C106     1.0000 0.93300  0.39590  0.11800  Biso   1.000  C
  C107     1.0000 0.93010  0.38160  0.17440  Biso   1.000  C
  C108     1.0000 0.84330  0.65480  0.01710  Biso   1.000  C
  H66      1.0000 0.84710  0.74570  0.03860  Biso   1.000  H
  C109     1.0000 0.96230  0.71350  0.01650  Biso   1.000  C
  O21      1.0000 0.92090  0.42940  0.36040  Biso   1.000  O
  O22      1.0000 0.88730  0.19690  0.34580  Biso   1.000  O
  C110     1.0000 0.90800  0.32110  0.33190  Biso   1.000  C
  O23      1.0000 0.95740  0.72620  0.96850  Biso   1.000  O
  O24      1.0000 0.97880  0.82850  0.04170  Biso   1.000  O
  C111     1.0000 0.91760  0.33690  0.27580  Biso   1.000  C
  C112     1.0000 0.91400  0.23500  0.19540  Biso   1.000  C
  H67      1.0000 0.90850  0.14340  0.17470  Biso   1.000  H
  C113     1.0000 0.90640  0.22030  0.24200  Biso   1.000  C
  H68      1.0000 0.89240  0.12410  0.25300  Biso   1.000  H
  C114     1.0000 0.83150  0.51800  0.12050  Biso   1.000  C
  H69      1.0000 0.85590  0.58090  0.11710  Biso   1.000  H
  C115     1.0000 0.81640  0.47490  0.16880  Biso   1.000  C
  H70      1.0000 0.83130  0.50780  0.19700  Biso   1.000  H
  C116     1.0000 0.77920  0.38250  0.17380  Biso   1.000  C
  C117     1.0000 0.77280  0.37590  0.08370  Biso   1.000  C
  H71      1.0000 0.75770  0.34230  0.05570  Biso   1.000  H
  C118     1.0000 0.76350  0.33660  0.22490  Biso   1.000  C
  C119     1.0000 0.73170  0.21710  0.31660  Biso   1.000  C
  C120     1.0000 0.77510  0.22020  0.30880  Biso   1.000  C
  H72      1.0000 0.79360  0.18100  0.33300  Biso   1.000  H
  C121     1.0000 0.72010  0.33280  0.23490  Biso   1.000  C
  H73      1.0000 0.70150  0.36900  0.21040  Biso   1.000  H
  C122     1.0000 0.78950  0.28490  0.26310  Biso   1.000  C
  H74      1.0000 0.81820  0.29340  0.25830  Biso   1.000  H
  C123     1.0000 0.70440  0.27610  0.28040  Biso   1.000  C
  H75      1.0000 0.67580  0.27790  0.28650  Biso   1.000  H
  C124     1.0000 0.71510  0.14140  0.36140  Biso   1.000  C
  N17      1.0000 0.67520  0.08890  0.36750  Biso   1.000  N
  C125     1.0000 0.73610  0.08680  0.40330  Biso   1.000  C
  H76      1.0000 0.76420  0.10320  0.41030  Biso   1.000  H
  N18      1.0000 0.85570  0.65620  0.96900  Biso   1.000  N
  C126     1.0000 0.66970  0.01060  0.41130  Biso   1.000  C
  N19      1.0000 0.70800  0.00490  0.43230  Biso   1.000  N
  H77      1.0000 0.71380  0.95620  0.46020  Biso   1.000  H
  C127     1.0000 0.84430  0.49890  0.95100  Biso   1.000  C
  H78      1.0000 0.84860  0.46000  0.91870  Biso   1.000  H
  C128     1.0000 0.93920  0.50680  0.20560  Biso   1.000  C
  H79      1.0000 0.94970  0.60800  0.19310  Biso   1.000  H
  N20      1.0000 0.93310  0.48800  0.25710  Biso   1.000  N
  H80      1.0000 0.93890  0.56980  0.27700  Biso   1.000  H
  Cd5      1.0000 0.60837  0.86594  0.43443  Biso   1.000  Cd
  C129     1.0000 0.67500  0.51020  0.53070  Biso   1.000  C
  C130     1.0000 0.58100  0.26140  0.58440  Biso   1.000  C
  H81      1.0000 0.59270  0.16440  0.59830  Biso   1.000  H
  C131     1.0000 0.59040  0.11610  0.50490  Biso   1.000  C
  C132     1.0000 0.74170  0.33570  0.63200  Biso   1.000  C
  H82      1.0000 0.76640  0.27500  0.63530  Biso   1.000  H
  C133     1.0000 0.57800  0.27080  0.53650  Biso   1.000  C
  C134     1.0000 0.56450  0.41530  0.51360  Biso   1.000  C
  H83      1.0000 0.56300  0.42030  0.47900  Biso   1.000  H
  C135     1.0000 0.55290  0.55360  0.54170  Biso   1.000  C
  N21      1.0000 0.67390  0.41170  0.48820  Biso   1.000  N
  H84      1.0000 0.68340  0.31020  0.48590  Biso   1.000  H
  O25      1.0000 0.56990  0.09160  0.46470  Biso   1.000  O
  C136     1.0000 0.69040  0.46570  0.57850  Biso   1.000  C
  O26      1.0000 0.61970  0.02280  0.51850  Biso   1.000  O
  C137     1.0000 0.55390  0.53960  0.59360  Biso   1.000  C
  H85      1.0000 0.54540  0.63180  0.61260  Biso   1.000  H
  C138     1.0000 0.56700  0.39590  0.61800  Biso   1.000  C
  C139     1.0000 0.56990  0.38160  0.67440  Biso   1.000  C
  C140     1.0000 0.65670  0.65480  0.51710  Biso   1.000  C
  H86      1.0000 0.65290  0.74570  0.53860  Biso   1.000  H
  C141     1.0000 0.53770  0.71350  0.51650  Biso   1.000  C
  O27      1.0000 0.57910  0.42940  0.86040  Biso   1.000  O
  O28      1.0000 0.61270  0.19690  0.84580  Biso   1.000  O
  C142     1.0000 0.59200  0.32110  0.83190  Biso   1.000  C
  O29      1.0000 0.54260  0.72620  0.46850  Biso   1.000  O
  O30      1.0000 0.52120  0.82850  0.54170  Biso   1.000  O
  C143     1.0000 0.58240  0.33690  0.77580  Biso   1.000  C
  C144     1.0000 0.58600  0.23500  0.69540  Biso   1.000  C
  H87      1.0000 0.59150  0.14340  0.67470  Biso   1.000  H
  C145     1.0000 0.59360  0.22030  0.74200  Biso   1.000  C
  H88      1.0000 0.60760  0.12410  0.75300  Biso   1.000  H
  C146     1.0000 0.66850  0.51800  0.62050  Biso   1.000  C
  H89      1.0000 0.64410  0.58090  0.61710  Biso   1.000  H
  C147     1.0000 0.68360  0.47490  0.66880  Biso   1.000  C
  H90      1.0000 0.66870  0.50780  0.69700  Biso   1.000  H
  C148     1.0000 0.72080  0.38250  0.67380  Biso   1.000  C
  C149     1.0000 0.72720  0.37590  0.58370  Biso   1.000  C
  H91      1.0000 0.74230  0.34230  0.55570  Biso   1.000  H
  C150     1.0000 0.73650  0.33660  0.72490  Biso   1.000  C
  C151     1.0000 0.76830  0.21710  0.81660  Biso   1.000  C
  C152     1.0000 0.72490  0.22020  0.80880  Biso   1.000  C
  H92      1.0000 0.70640  0.18100  0.83300  Biso   1.000  H
  C153     1.0000 0.77990  0.33280  0.73490  Biso   1.000  C
  H93      1.0000 0.79850  0.36900  0.71040  Biso   1.000  H
  C154     1.0000 0.71050  0.28490  0.76310  Biso   1.000  C
  H94      1.0000 0.68180  0.29340  0.75830  Biso   1.000  H
  C155     1.0000 0.79560  0.27610  0.78040  Biso   1.000  C
  H95      1.0000 0.82420  0.27790  0.78650  Biso   1.000  H
  C156     1.0000 0.78490  0.14140  0.86140  Biso   1.000  C
  N22      1.0000 0.82480  0.08890  0.86750  Biso   1.000  N
  C157     1.0000 0.76390  0.08680  0.90330  Biso   1.000  C
  H96      1.0000 0.73580  0.10320  0.91030  Biso   1.000  H
  N23      1.0000 0.64430  0.65620  0.46900  Biso   1.000  N
  C158     1.0000 0.83030  0.01060  0.91130  Biso   1.000  C
  N24      1.0000 0.79200  0.00490  0.93230  Biso   1.000  N
  H97      1.0000 0.78620  0.95620  0.96020  Biso   1.000  H
  C159     1.0000 0.65570  0.49890  0.45100  Biso   1.000  C
  H98      1.0000 0.65140  0.46000  0.41870  Biso   1.000  H
  C160     1.0000 0.56080  0.50680  0.70560  Biso   1.000  C
  H99      1.0000 0.55030  0.60800  0.69310  Biso   1.000  H
  N25      1.0000 0.56690  0.48800  0.75710  Biso   1.000  N
  H100     1.0000 0.56110  0.56980  0.77700  Biso   1.000  H
  Cd6      1.0000 0.60837  0.36594  0.93443  Biso   1.000  Cd
  C161     1.0000 0.67500  0.01020  0.03070  Biso   1.000  C
  C162     1.0000 0.58100  0.76140  0.08440  Biso   1.000  C
  H101     1.0000 0.59270  0.66440  0.09830  Biso   1.000  H
  C163     1.0000 0.59040  0.61610  0.00490  Biso   1.000  C
  C164     1.0000 0.74170  0.83570  0.13200  Biso   1.000  C
  H102     1.0000 0.76640  0.77500  0.13530  Biso   1.000  H
  C165     1.0000 0.57800  0.77080  0.03650  Biso   1.000  C
  C166     1.0000 0.56450  0.91530  0.01360  Biso   1.000  C
  H103     1.0000 0.56300  0.92030  0.97900  Biso   1.000  H
  C167     1.0000 0.55290  0.05360  0.04170  Biso   1.000  C
  N26      1.0000 0.67390  0.91170  0.98820  Biso   1.000  N
  H104     1.0000 0.68340  0.81020  0.98590  Biso   1.000  H
  O31      1.0000 0.56990  0.59160  0.96470  Biso   1.000  O
  C168     1.0000 0.69040  0.96570  0.07850  Biso   1.000  C
  O32      1.0000 0.61970  0.52280  0.01850  Biso   1.000  O
  C169     1.0000 0.55390  0.03960  0.09360  Biso   1.000  C
  H105     1.0000 0.54540  0.13180  0.11260  Biso   1.000  H
  C170     1.0000 0.56700  0.89590  0.11800  Biso   1.000  C
  C171     1.0000 0.56990  0.88160  0.17440  Biso   1.000  C
  C172     1.0000 0.65670  0.15480  0.01710  Biso   1.000  C
  H106     1.0000 0.65290  0.24570  0.03860  Biso   1.000  H
  C173     1.0000 0.53770  0.21350  0.01650  Biso   1.000  C
  O33      1.0000 0.57910  0.92940  0.36040  Biso   1.000  O
  O34      1.0000 0.61270  0.69690  0.34580  Biso   1.000  O
  C174     1.0000 0.59200  0.82110  0.33190  Biso   1.000  C
  O35      1.0000 0.54260  0.22620  0.96850  Biso   1.000  O
  O36      1.0000 0.52120  0.32850  0.04170  Biso   1.000  O
  C175     1.0000 0.58240  0.83690  0.27580  Biso   1.000  C
  C176     1.0000 0.58600  0.73500  0.19540  Biso   1.000  C
  H107     1.0000 0.59150  0.64340  0.17470  Biso   1.000  H
  C177     1.0000 0.59360  0.72030  0.24200  Biso   1.000  C
  H108     1.0000 0.60760  0.62410  0.25300  Biso   1.000  H
  C178     1.0000 0.66850  0.01800  0.12050  Biso   1.000  C
  H109     1.0000 0.64410  0.08090  0.11710  Biso   1.000  H
  C179     1.0000 0.68360  0.97490  0.16880  Biso   1.000  C
  H110     1.0000 0.66870  0.00780  0.19700  Biso   1.000  H
  C180     1.0000 0.72080  0.88250  0.17380  Biso   1.000  C
  C181     1.0000 0.72720  0.87590  0.08370  Biso   1.000  C
  H111     1.0000 0.74230  0.84230  0.05570  Biso   1.000  H
  C182     1.0000 0.73650  0.83660  0.22490  Biso   1.000  C
  C183     1.0000 0.76830  0.71710  0.31660  Biso   1.000  C
  C184     1.0000 0.72490  0.72020  0.30880  Biso   1.000  C
  H112     1.0000 0.70640  0.68100  0.33300  Biso   1.000  H
  C185     1.0000 0.77990  0.83280  0.23490  Biso   1.000  C
  H113     1.0000 0.79850  0.86900  0.21040  Biso   1.000  H
  C186     1.0000 0.71050  0.78490  0.26310  Biso   1.000  C
  H114     1.0000 0.68180  0.79340  0.25830  Biso   1.000  H
  C187     1.0000 0.79560  0.77610  0.28040  Biso   1.000  C
  H115     1.0000 0.82420  0.77790  0.28650  Biso   1.000  H
  C188     1.0000 0.78490  0.64140  0.36140  Biso   1.000  C
  N27      1.0000 0.82480  0.58890  0.36750  Biso   1.000  N
  C189     1.0000 0.76390  0.58680  0.40330  Biso   1.000  C
  H116     1.0000 0.73580  0.60320  0.41030  Biso   1.000  H
  N28      1.0000 0.64430  0.15620  0.96900  Biso   1.000  N
  C190     1.0000 0.83030  0.51060  0.41130  Biso   1.000  C
  N29      1.0000 0.79200  0.50490  0.43230  Biso   1.000  N
  H117     1.0000 0.78620  0.45620  0.46020  Biso   1.000  H
  C191     1.0000 0.65570  0.99890  0.95100  Biso   1.000  C
  H118     1.0000 0.65140  0.96000  0.91870  Biso   1.000  H
  C192     1.0000 0.56080  0.00680  0.20560  Biso   1.000  C
  H119     1.0000 0.55030  0.10800  0.19310  Biso   1.000  H
  N30      1.0000 0.56690  0.98800  0.25710  Biso   1.000  N
  H120     1.0000 0.56110  0.06980  0.27700  Biso   1.000  H
  Cd7      1.0000 0.39163  0.13406  0.43443  Biso   1.000  Cd
  C193     1.0000 0.32500  0.48980  0.53070  Biso   1.000  C
  C194     1.0000 0.41900  0.73860  0.58440  Biso   1.000  C
  H121     1.0000 0.40730  0.83560  0.59830  Biso   1.000  H
  C195     1.0000 0.40960  0.88390  0.50490  Biso   1.000  C
  C196     1.0000 0.25830  0.66430  0.63200  Biso   1.000  C
  H122     1.0000 0.23360  0.72500  0.63530  Biso   1.000  H
  C197     1.0000 0.42200  0.72920  0.53650  Biso   1.000  C
  C198     1.0000 0.43550  0.58470  0.51360  Biso   1.000  C
  H123     1.0000 0.43700  0.57970  0.47900  Biso   1.000  H
  C199     1.0000 0.44710  0.44640  0.54170  Biso   1.000  C
  N31      1.0000 0.32610  0.58830  0.48820  Biso   1.000  N
  H124     1.0000 0.31660  0.68980  0.48590  Biso   1.000  H
  O37      1.0000 0.43010  0.90840  0.46470  Biso   1.000  O
  C200     1.0000 0.30960  0.53430  0.57850  Biso   1.000  C
  O38      1.0000 0.38030  0.97720  0.51850  Biso   1.000  O
  C201     1.0000 0.44610  0.46040  0.59360  Biso   1.000  C
  H125     1.0000 0.45460  0.36820  0.61260  Biso   1.000  H
  C202     1.0000 0.43300  0.60410  0.61800  Biso   1.000  C
  C203     1.0000 0.43010  0.61840  0.67440  Biso   1.000  C
  C204     1.0000 0.34330  0.34520  0.51710  Biso   1.000  C
  H126     1.0000 0.34710  0.25430  0.53860  Biso   1.000  H
  C205     1.0000 0.46230  0.28650  0.51650  Biso   1.000  C
  O39      1.0000 0.42090  0.57060  0.86040  Biso   1.000  O
  O40      1.0000 0.38730  0.80310  0.84580  Biso   1.000  O
  C206     1.0000 0.40800  0.67890  0.83190  Biso   1.000  C
  O41      1.0000 0.45740  0.27380  0.46850  Biso   1.000  O
  O42      1.0000 0.47880  0.17150  0.54170  Biso   1.000  O
  C207     1.0000 0.41760  0.66310  0.77580  Biso   1.000  C
  C208     1.0000 0.41400  0.76500  0.69540  Biso   1.000  C
  H127     1.0000 0.40850  0.85660  0.67470  Biso   1.000  H
  C209     1.0000 0.40640  0.77970  0.74200  Biso   1.000  C
  H128     1.0000 0.39240  0.87590  0.75300  Biso   1.000  H
  C210     1.0000 0.33150  0.48200  0.62050  Biso   1.000  C
  H129     1.0000 0.35590  0.41910  0.61710  Biso   1.000  H
  C211     1.0000 0.31640  0.52510  0.66880  Biso   1.000  C
  H130     1.0000 0.33130  0.49220  0.69700  Biso   1.000  H
  C212     1.0000 0.27920  0.61750  0.67380  Biso   1.000  C
  C213     1.0000 0.27280  0.62410  0.58370  Biso   1.000  C
  H131     1.0000 0.25770  0.65770  0.55570  Biso   1.000  H
  C214     1.0000 0.26350  0.66340  0.72490  Biso   1.000  C
  C215     1.0000 0.23170  0.78290  0.81660  Biso   1.000  C
  C216     1.0000 0.27510  0.77980  0.80880  Biso   1.000  C
  H132     1.0000 0.29360  0.81900  0.83300  Biso   1.000  H
  C217     1.0000 0.22010  0.66720  0.73490  Biso   1.000  C
  H133     1.0000 0.20150  0.63100  0.71040  Biso   1.000  H
  C218     1.0000 0.28950  0.71510  0.76310  Biso   1.000  C
  H134     1.0000 0.31820  0.70660  0.75830  Biso   1.000  H
  C219     1.0000 0.20440  0.72390  0.78040  Biso   1.000  C
  H135     1.0000 0.17580  0.72210  0.78650  Biso   1.000  H
  C220     1.0000 0.21510  0.85860  0.86140  Biso   1.000  C
  N32      1.0000 0.17520  0.91110  0.86750  Biso   1.000  N
  C221     1.0000 0.23610  0.91320  0.90330  Biso   1.000  C
  H136     1.0000 0.26420  0.89680  0.91030  Biso   1.000  H
  N33      1.0000 0.35570  0.34380  0.46900  Biso   1.000  N
  C222     1.0000 0.16970  0.98940  0.91130  Biso   1.000  C
  N34      1.0000 0.20800  0.99510  0.93230  Biso   1.000  N
  H137     1.0000 0.21380  0.04380  0.96020  Biso   1.000  H
  C223     1.0000 0.34430  0.50110  0.45100  Biso   1.000  C
  H138     1.0000 0.34860  0.54000  0.41870  Biso   1.000  H
  C224     1.0000 0.43920  0.49320  0.70560  Biso   1.000  C
  H139     1.0000 0.44970  0.39200  0.69310  Biso   1.000  H
  N35      1.0000 0.43310  0.51200  0.75710  Biso   1.000  N
  H140     1.0000 0.43890  0.43020  0.77700  Biso   1.000  H
  Cd8      1.0000 0.39163  0.63406  0.93443  Biso   1.000  Cd
  C225     1.0000 0.32500  0.98980  0.03070  Biso   1.000  C
  C226     1.0000 0.41900  0.23860  0.08440  Biso   1.000  C
  H141     1.0000 0.40730  0.33560  0.09830  Biso   1.000  H
  C227     1.0000 0.40960  0.38390  0.00490  Biso   1.000  C
  C228     1.0000 0.25830  0.16430  0.13200  Biso   1.000  C
  H142     1.0000 0.23360  0.22500  0.13530  Biso   1.000  H
  C229     1.0000 0.42200  0.22920  0.03650  Biso   1.000  C
  C230     1.0000 0.43550  0.08470  0.01360  Biso   1.000  C
  H143     1.0000 0.43700  0.07970  0.97900  Biso   1.000  H
  C231     1.0000 0.44710  0.94640  0.04170  Biso   1.000  C
  N36      1.0000 0.32610  0.08830  0.98820  Biso   1.000  N
  H144     1.0000 0.31660  0.18980  0.98590  Biso   1.000  H
  O43      1.0000 0.43010  0.40840  0.96470  Biso   1.000  O
  C232     1.0000 0.30960  0.03430  0.07850  Biso   1.000  C
  O44      1.0000 0.38030  0.47720  0.01850  Biso   1.000  O
  C233     1.0000 0.44610  0.96040  0.09360  Biso   1.000  C
  H145     1.0000 0.45460  0.86820  0.11260  Biso   1.000  H
  C234     1.0000 0.43300  0.10410  0.11800  Biso   1.000  C
  C235     1.0000 0.43010  0.11840  0.17440  Biso   1.000  C
  C236     1.0000 0.34330  0.84520  0.01710  Biso   1.000  C
  H146     1.0000 0.34710  0.75430  0.03860  Biso   1.000  H
  C237     1.0000 0.46230  0.78650  0.01650  Biso   1.000  C
  O45      1.0000 0.42090  0.07060  0.36040  Biso   1.000  O
  O46      1.0000 0.38730  0.30310  0.34580  Biso   1.000  O
  C238     1.0000 0.40800  0.17890  0.33190  Biso   1.000  C
  O47      1.0000 0.45740  0.77380  0.96850  Biso   1.000  O
  O48      1.0000 0.47880  0.67150  0.04170  Biso   1.000  O
  C239     1.0000 0.41760  0.16310  0.27580  Biso   1.000  C
  C240     1.0000 0.41400  0.26500  0.19540  Biso   1.000  C
  H147     1.0000 0.40850  0.35660  0.17470  Biso   1.000  H
  C241     1.0000 0.40640  0.27970  0.24200  Biso   1.000  C
  H148     1.0000 0.39240  0.37590  0.25300  Biso   1.000  H
  C242     1.0000 0.33150  0.98200  0.12050  Biso   1.000  C
  H149     1.0000 0.35590  0.91910  0.11710  Biso   1.000  H
  C243     1.0000 0.31640  0.02510  0.16880  Biso   1.000  C
  H150     1.0000 0.33130  0.99220  0.19700  Biso   1.000  H
  C244     1.0000 0.27920  0.11750  0.17380  Biso   1.000  C
  C245     1.0000 0.27280  0.12410  0.08370  Biso   1.000  C
  H151     1.0000 0.25770  0.15770  0.05570  Biso   1.000  H
  C246     1.0000 0.26350  0.16340  0.22490  Biso   1.000  C
  C247     1.0000 0.23170  0.28290  0.31660  Biso   1.000  C
  C248     1.0000 0.27510  0.27980  0.30880  Biso   1.000  C
  H152     1.0000 0.29360  0.31900  0.33300  Biso   1.000  H
  C249     1.0000 0.22010  0.16720  0.23490  Biso   1.000  C
  H153     1.0000 0.20150  0.13100  0.21040  Biso   1.000  H
  C250     1.0000 0.28950  0.21510  0.26310  Biso   1.000  C
  H154     1.0000 0.31820  0.20660  0.25830  Biso   1.000  H
  C251     1.0000 0.20440  0.22390  0.28040  Biso   1.000  C
  H155     1.0000 0.17580  0.22210  0.28650  Biso   1.000  H
  C252     1.0000 0.21510  0.35860  0.36140  Biso   1.000  C
  N37      1.0000 0.17520  0.41110  0.36750  Biso   1.000  N
  C253     1.0000 0.23610  0.41320  0.40330  Biso   1.000  C
  H156     1.0000 0.26420  0.39680  0.41030  Biso   1.000  H
  N38      1.0000 0.35570  0.84380  0.96900  Biso   1.000  N
  C254     1.0000 0.16970  0.48940  0.41130  Biso   1.000  C
  N39      1.0000 0.20800  0.49510  0.43230  Biso   1.000  N
  H157     1.0000 0.21380  0.54380  0.46020  Biso   1.000  H
  C255     1.0000 0.34430  0.00110  0.95100  Biso   1.000  C
  H158     1.0000 0.34860  0.04000  0.91870  Biso   1.000  H
  C256     1.0000 0.43920  0.99320  0.20560  Biso   1.000  C
  H159     1.0000 0.44970  0.89200  0.19310  Biso   1.000  H
  N40      1.0000 0.43310  0.01200  0.25710  Biso   1.000  N
  H160     1.0000 0.43890  0.93020  0.27700  Biso   1.000  H
  Cd9      1.0000 0.00000  0.50000  0.47714  Biso   1.000  Cd
  Cd10     1.0000 0.00000  0.00000  0.97714  Biso   1.000  Cd
  Cd11     1.0000 0.50000  0.00000  0.47714  Biso   1.000  Cd
  Cd12     1.0000 0.50000  0.50000  0.97714  Biso   1.000  Cd
