data_image0
_cell_length_a       10.4237
_cell_length_b       14.7281
_cell_length_c       25.599
_cell_angle_alpha    81.665
_cell_angle_beta     82.26
_cell_angle_gamma    71.667

_symmetry_space_group_name_H-M    "P 1"
_symmetry_int_tables_number       1

loop_
  _symmetry_equiv_pos_as_xyz
  'x, y, z'

loop_
  _atom_site_label
  _atom_site_occupancy
  _atom_site_fract_x
  _atom_site_fract_y
  _atom_site_fract_z
  _atom_site_thermal_displace_type
  _atom_site_B_iso_or_equiv
  _atom_site_type_symbol
  U1       1.0000 0.03588  0.57406  0.32523  Biso   1.000  U
  U2       1.0000 0.52521  0.09864  0.82611  Biso   1.000  U
  Si1      1.0000 0.72190  0.11017  0.47236  Biso   1.000  Si
  Si2      1.0000 0.15720  0.63700  0.96918  Biso   1.000  Si
  O1       1.0000 0.47800  0.94710  0.82920  Biso   1.000  O
  O2       1.0000 0.55160  0.03970  0.73950  Biso   1.000  O
  O3       1.0000 0.61000  0.17160  0.73890  Biso   1.000  O
  O4       1.0000 0.48510  0.17640  0.90800  Biso   1.000  O
  O5       1.0000 0.54140  0.25730  0.83410  Biso   1.000  O
  O6       1.0000 0.46900  0.99650  0.90600  Biso   1.000  O
  O7       1.0000 0.84840  0.72070  0.33700  Biso   1.000  O
  O8       1.0000 0.94270  0.64230  0.40910  Biso   1.000  O
  O9       1.0000 0.13490  0.47040  0.40530  Biso   1.000  O
  O10      1.0000 0.23220  0.42720  0.32670  Biso   1.000  O
  O11      1.0000 0.13650  0.52430  0.23850  Biso   1.000  O
  O12      1.0000 0.95710  0.65330  0.23800  Biso   1.000  O
  C1       1.0000 0.74450  0.16210  0.57460  Biso   1.000  C
  H1       1.0000 0.79640  0.20140  0.55600  Biso   1.000  H
  C2       1.0000 0.70400  0.10430  0.54680  Biso   1.000  C
  C3       1.0000 0.71180  0.16460  0.62900  Biso   1.000  C
  H2       1.0000 0.73650  0.20780  0.64690  Biso   1.000  H
  C4       1.0000 0.64250  0.10310  0.65670  Biso   1.000  C
  C5       1.0000 0.74840  0.98810  0.45140  Biso   1.000  C
  C6       1.0000 0.83440  0.90610  0.47670  Biso   1.000  C
  H3       1.0000 0.86830  0.91050  0.50860  Biso   1.000  H
  C7       1.0000 0.87170  0.81820  0.45670  Biso   1.000  C
  H4       1.0000 0.93190  0.76300  0.47410  Biso   1.000  H
  C8       1.0000 0.81920  0.81160  0.40980  Biso   1.000  C
  C9       1.0000 0.87060  0.72050  0.38400  Biso   1.000  C
  C10      1.0000 0.59800  0.10440  0.71440  Biso   1.000  C
  C11      1.0000 0.05370  0.59530  0.21270  Biso   1.000  C
  C12      1.0000 0.56550  0.19930  0.44760  Biso   1.000  C
  C13      1.0000 0.44480  0.23730  0.47770  Biso   1.000  C
  H5       1.0000 0.43590  0.21460  0.51430  Biso   1.000  H
  C14      1.0000 0.33550  0.30830  0.45580  Biso   1.000  C
  H6       1.0000 0.25480  0.33400  0.47780  Biso   1.000  H
  C15      1.0000 0.34350  0.34160  0.40210  Biso   1.000  C
  C16      1.0000 0.46210  0.30120  0.36990  Biso   1.000  C
  H7       1.0000 0.46750  0.31960  0.33270  Biso   1.000  H
  C17      1.0000 0.57150  0.23410  0.39290  Biso   1.000  C
  H8       1.0000 0.65360  0.21050  0.37120  Biso   1.000  H
  C18      1.0000 0.69320  0.97840  0.40590  Biso   1.000  C
  H9       1.0000 0.63070  0.03280  0.38890  Biso   1.000  H
  C19      1.0000 0.72980  0.88960  0.38560  Biso   1.000  C
  H10      1.0000 0.69210  0.88370  0.35490  Biso   1.000  H
  C20      1.0000 0.86900  0.24710  0.44040  Biso   1.000  C
  H11      1.0000 0.79770  0.28900  0.46060  Biso   1.000  H
  C21      1.0000 0.86600  0.15200  0.43900  Biso   1.000  C
  C22      1.0000 0.97330  0.09450  0.40770  Biso   1.000  C
  H12      1.0000 0.97690  0.02980  0.40580  Biso   1.000  H
  C23      1.0000 0.60400  0.04160  0.63000  Biso   1.000  C
  H13      1.0000 0.55800  0.99880  0.64910  Biso   1.000  H
  C24      1.0000 0.63300  0.04300  0.57530  Biso   1.000  C
  H14      1.0000 0.60450  0.00210  0.55700  Biso   1.000  H
  C25      1.0000 0.48870  0.25410  0.88280  Biso   1.000  C
  C26      1.0000 0.42280  0.34840  0.90640  Biso   1.000  C
  C27      1.0000 0.35940  0.34580  0.95720  Biso   1.000  C
  H15      1.0000 0.36580  0.28620  0.97820  Biso   1.000  H
  C28      1.0000 0.23030  0.41650  0.37800  Biso   1.000  C
  C29      1.0000 0.07680  0.60720  0.15460  Biso   1.000  C
  C30      1.0000 0.20620  0.58310  0.12900  Biso   1.000  C
  H16      1.0000 0.28160  0.55940  0.14960  Biso   1.000  H
  C31      1.0000 0.96690  0.64380  0.12260  Biso   1.000  C
  H17      1.0000 0.87680  0.66380  0.13910  Biso   1.000  H
  C32      1.0000 0.97110  0.28090  0.41360  Biso   1.000  C
  H18      1.0000 0.97040  0.34500  0.41570  Biso   1.000  H
  C33      1.0000 0.07480  0.22110  0.38350  Biso   1.000  C
  H19      1.0000 0.14670  0.24360  0.36560  Biso   1.000  H
  C34      1.0000 0.07400  0.12930  0.37960  Biso   1.000  C
  H20      1.0000 0.14300  0.08960  0.35750  Biso   1.000  H
  C35      1.0000 0.98800  0.65100  0.06830  Biso   1.000  C
  H21      1.0000 0.91280  0.67340  0.04760  Biso   1.000  H
  C36      1.0000 0.22900  0.59220  0.07530  Biso   1.000  C
  H22      1.0000 0.31980  0.57580  0.05930  Biso   1.000  H
  C37      1.0000 0.41320  0.43570  0.87480  Biso   1.000  C
  H23      1.0000 0.45570  0.43710  0.83960  Biso   1.000  H
  C38      1.0000 0.34060  0.51950  0.89630  Biso   1.000  C
  H24      1.0000 0.33540  0.57890  0.87520  Biso   1.000  H
  C39      1.0000 0.28480  0.43330  0.97720  Biso   1.000  C
  H25      1.0000 0.24050  0.43190  0.01210  Biso   1.000  H
  C40      1.0000 0.23470  0.73450  0.94580  Biso   1.000  C
  C41      1.0000 0.31110  0.76650  0.97600  Biso   1.000  C
  H26      1.0000 0.31500  0.74240  0.01240  Biso   1.000  H
  C42      1.0000 0.38070  0.83110  0.95560  Biso   1.000  C
  H27      1.0000 0.42710  0.85280  0.97840  Biso   1.000  H
  C43      1.0000 0.12210  0.62510  0.04310  Biso   1.000  C
  C44      1.0000 0.27390  0.52160  0.94740  Biso   1.000  C
  C45      1.0000 0.00060  0.67180  0.93430  Biso   1.000  C
  C46      1.0000 0.96740  0.61350  0.90410  Biso   1.000  C
  H28      1.0000 0.02680  0.54990  0.90230  Biso   1.000  H
  C47      1.0000 0.85390  0.64110  0.87650  Biso   1.000  C
  H29      1.0000 0.83640  0.59750  0.85650  Biso   1.000  H
  C48      1.0000 0.32250  0.82880  0.87150  Biso   1.000  C
  H30      1.0000 0.33390  0.84400  0.83420  Biso   1.000  H
  C49      1.0000 0.38370  0.86390  0.90360  Biso   1.000  C
  C50      1.0000 0.90800  0.76120  0.93750  Biso   1.000  C
  H31      1.0000 0.92450  0.80400  0.95830  Biso   1.000  H
  C51      1.0000 0.76690  0.73240  0.87840  Biso   1.000  C
  H32      1.0000 0.69290  0.75390  0.85710  Biso   1.000  H
  C52      1.0000 0.24090  0.76900  0.89390  Biso   1.000  C
  H33      1.0000 0.18830  0.75250  0.87130  Biso   1.000  H
  C53      1.0000 0.78400  0.79300  0.91020  Biso   1.000  C
  H34      1.0000 0.71880  0.85370  0.91450  Biso   1.000  H
  C54      1.0000 0.45040  0.93660  0.87900  Biso   1.000  C
  U3       1.0000 0.96412  0.42594  0.67477  Biso   1.000  U
  U4       1.0000 0.47479  0.90136  0.17389  Biso   1.000  U
  Si3      1.0000 0.27810  0.88983  0.52764  Biso   1.000  Si
  Si4      1.0000 0.84280  0.36300  0.03082  Biso   1.000  Si
  O13      1.0000 0.52200  0.05290  0.17080  Biso   1.000  O
  O14      1.0000 0.44840  0.96030  0.26050  Biso   1.000  O
  O15      1.0000 0.39000  0.82840  0.26110  Biso   1.000  O
  O16      1.0000 0.51490  0.82360  0.09200  Biso   1.000  O
  O17      1.0000 0.45860  0.74270  0.16590  Biso   1.000  O
  O18      1.0000 0.53100  0.00350  0.09400  Biso   1.000  O
  O19      1.0000 0.15160  0.27930  0.66300  Biso   1.000  O
  O20      1.0000 0.05730  0.35770  0.59090  Biso   1.000  O
  O21      1.0000 0.86510  0.52960  0.59470  Biso   1.000  O
  O22      1.0000 0.76780  0.57280  0.67330  Biso   1.000  O
  O23      1.0000 0.86350  0.47570  0.76150  Biso   1.000  O
  O24      1.0000 0.04290  0.34670  0.76200  Biso   1.000  O
  C55      1.0000 0.25550  0.83790  0.42540  Biso   1.000  C
  H35      1.0000 0.20360  0.79860  0.44400  Biso   1.000  H
  C56      1.0000 0.29600  0.89570  0.45320  Biso   1.000  C
  C57      1.0000 0.28820  0.83540  0.37100  Biso   1.000  C
  H36      1.0000 0.26350  0.79220  0.35310  Biso   1.000  H
  C58      1.0000 0.35750  0.89690  0.34330  Biso   1.000  C
  C59      1.0000 0.25160  0.01190  0.54860  Biso   1.000  C
  C60      1.0000 0.16560  0.09390  0.52330  Biso   1.000  C
  H37      1.0000 0.13170  0.08950  0.49140  Biso   1.000  H
  C61      1.0000 0.12830  0.18180  0.54330  Biso   1.000  C
  H38      1.0000 0.06810  0.23700  0.52590  Biso   1.000  H
  C62      1.0000 0.18080  0.18840  0.59020  Biso   1.000  C
  C63      1.0000 0.12940  0.27950  0.61600  Biso   1.000  C
  C64      1.0000 0.40200  0.89560  0.28560  Biso   1.000  C
  C65      1.0000 0.94630  0.40470  0.78730  Biso   1.000  C
  C66      1.0000 0.43450  0.80070  0.55240  Biso   1.000  C
  C67      1.0000 0.55520  0.76270  0.52230  Biso   1.000  C
  H39      1.0000 0.56410  0.78540  0.48570  Biso   1.000  H
  C68      1.0000 0.66450  0.69170  0.54420  Biso   1.000  C
  H40      1.0000 0.74520  0.66600  0.52220  Biso   1.000  H
  C69      1.0000 0.65650  0.65840  0.59790  Biso   1.000  C
  C70      1.0000 0.53790  0.69880  0.63010  Biso   1.000  C
  H41      1.0000 0.53250  0.68040  0.66730  Biso   1.000  H
  C71      1.0000 0.42850  0.76590  0.60710  Biso   1.000  C
  H42      1.0000 0.34640  0.78950  0.62880  Biso   1.000  H
  C72      1.0000 0.30680  0.02160  0.59410  Biso   1.000  C
  H43      1.0000 0.36930  0.96720  0.61110  Biso   1.000  H
  C73      1.0000 0.27020  0.11040  0.61440  Biso   1.000  C
  H44      1.0000 0.30790  0.11630  0.64510  Biso   1.000  H
  C74      1.0000 0.13100  0.75290  0.55960  Biso   1.000  C
  H45      1.0000 0.20230  0.71100  0.53940  Biso   1.000  H
  C75      1.0000 0.13400  0.84800  0.56100  Biso   1.000  C
  C76      1.0000 0.02670  0.90550  0.59230  Biso   1.000  C
  H46      1.0000 0.02310  0.97020  0.59420  Biso   1.000  H
  C77      1.0000 0.39600  0.95840  0.37000  Biso   1.000  C
  H47      1.0000 0.44200  0.00120  0.35090  Biso   1.000  H
  C78      1.0000 0.36700  0.95700  0.42470  Biso   1.000  C
  H48      1.0000 0.39550  0.99790  0.44300  Biso   1.000  H
  C79      1.0000 0.51130  0.74590  0.11720  Biso   1.000  C
  C80      1.0000 0.57720  0.65160  0.09360  Biso   1.000  C
  C81      1.0000 0.64060  0.65420  0.04280  Biso   1.000  C
  H49      1.0000 0.63420  0.71380  0.02180  Biso   1.000  H
  C82      1.0000 0.76970  0.58350  0.62200  Biso   1.000  C
  C83      1.0000 0.92320  0.39280  0.84540  Biso   1.000  C
  C84      1.0000 0.79380  0.41690  0.87100  Biso   1.000  C
  H50      1.0000 0.71840  0.44060  0.85040  Biso   1.000  H
  C85      1.0000 0.03310  0.35620  0.87740  Biso   1.000  C
  H51      1.0000 0.12320  0.33620  0.86090  Biso   1.000  H
  C86      1.0000 0.02890  0.71910  0.58640  Biso   1.000  C
  H52      1.0000 0.02960  0.65500  0.58430  Biso   1.000  H
  C87      1.0000 0.92520  0.77890  0.61650  Biso   1.000  C
  H53      1.0000 0.85330  0.75640  0.63440  Biso   1.000  H
  C88      1.0000 0.92600  0.87070  0.62040  Biso   1.000  C
  H54      1.0000 0.85700  0.91040  0.64250  Biso   1.000  H
  C89      1.0000 0.01200  0.34900  0.93170  Biso   1.000  C
  H55      1.0000 0.08720  0.32660  0.95240  Biso   1.000  H
  C90      1.0000 0.77100  0.40780  0.92470  Biso   1.000  C
  H56      1.0000 0.68020  0.42420  0.94070  Biso   1.000  H
  C91      1.0000 0.58680  0.56430  0.12520  Biso   1.000  C
  H57      1.0000 0.54430  0.56290  0.16040  Biso   1.000  H
  C92      1.0000 0.65940  0.48050  0.10370  Biso   1.000  C
  H58      1.0000 0.66460  0.42110  0.12480  Biso   1.000  H
  C93      1.0000 0.71520  0.56670  0.02280  Biso   1.000  C
  H59      1.0000 0.75950  0.56810  0.98790  Biso   1.000  H
  C94      1.0000 0.76530  0.26550  0.05420  Biso   1.000  C
  C95      1.0000 0.68890  0.23350  0.02400  Biso   1.000  C
  H60      1.0000 0.68500  0.25760  0.98760  Biso   1.000  H
  C96      1.0000 0.61930  0.16890  0.04440  Biso   1.000  C
  H61      1.0000 0.57290  0.14720  0.02160  Biso   1.000  H
  C97      1.0000 0.87790  0.37490  0.95690  Biso   1.000  C
  C98      1.0000 0.72610  0.47840  0.05260  Biso   1.000  C
  C99      1.0000 0.99940  0.32820  0.06570  Biso   1.000  C
  C100     1.0000 0.03260  0.38650  0.09590  Biso   1.000  C
  H62      1.0000 0.97320  0.45010  0.09770  Biso   1.000  H
  C101     1.0000 0.14610  0.35890  0.12350  Biso   1.000  C
  H63      1.0000 0.16360  0.40250  0.14350  Biso   1.000  H
  C102     1.0000 0.67750  0.17120  0.12850  Biso   1.000  C
  H64      1.0000 0.66610  0.15600  0.16580  Biso   1.000  H
  C103     1.0000 0.61630  0.13610  0.09640  Biso   1.000  C
  C104     1.0000 0.09200  0.23880  0.06250  Biso   1.000  C
  H65      1.0000 0.07550  0.19600  0.04170  Biso   1.000  H
  C105     1.0000 0.23310  0.26760  0.12160  Biso   1.000  C
  H66      1.0000 0.30710  0.24610  0.14290  Biso   1.000  H
  C106     1.0000 0.75910  0.23100  0.10610  Biso   1.000  C
  H67      1.0000 0.81170  0.24750  0.12870  Biso   1.000  H
  C107     1.0000 0.21600  0.20700  0.08980  Biso   1.000  C
  H68      1.0000 0.28120  0.14630  0.08550  Biso   1.000  H
  C108     1.0000 0.54960  0.06340  0.12100  Biso   1.000  C
