data_image0
_cell_length_a       7.263
_cell_length_b       24.54
_cell_length_c       17.718
_cell_angle_alpha    90
_cell_angle_beta     90.726
_cell_angle_gamma    90

_symmetry_space_group_name_H-M    "P 1"
_symmetry_int_tables_number       1

loop_
  _symmetry_equiv_pos_as_xyz
  'x, y, z'

loop_
  _atom_site_label
  _atom_site_occupancy
  _atom_site_fract_x
  _atom_site_fract_y
  _atom_site_fract_z
  _atom_site_thermal_displace_type
  _atom_site_B_iso_or_equiv
  _atom_site_type_symbol
  U1       1.0000 0.41315  0.54457  0.13593  Biso   1.000  U
  Si1      1.0000 0.66630  0.80003  0.33482  Biso   1.000  Si
  O1       1.0000 0.27740  0.97370  0.52040  Biso   1.000  O
  O2       1.0000 0.13930  0.60210  0.13610  Biso   1.000  O
  O3       1.0000 0.30570  0.60300  0.24110  Biso   1.000  O
  O4       1.0000 0.36470  0.98190  0.40070  Biso   1.000  O
  O5       1.0000 0.27130  0.97940  0.07760  Biso   1.000  O
  O6       1.0000 0.07050  0.91330  0.06350  Biso   1.000  O
  C1       1.0000 0.50230  0.91590  0.17380  Biso   1.000  C
  H1       1.0000 0.55060  0.94920  0.15510  Biso   1.000  H
  C2       1.0000 0.60060  0.88620  0.22720  Biso   1.000  C
  H2       1.0000 0.71590  0.89980  0.24480  Biso   1.000  H
  C3       1.0000 0.53510  0.83690  0.25610  Biso   1.000  C
  C4       1.0000 0.33070  0.89660  0.14730  Biso   1.000  C
  C5       1.0000 0.26530  0.84700  0.17250  Biso   1.000  C
  H3       1.0000 0.15290  0.83280  0.15280  Biso   1.000  H
  C6       1.0000 0.36520  0.81790  0.22700  Biso   1.000  C
  H4       1.0000 0.31730  0.78430  0.24500  Biso   1.000  H
  C7       1.0000 0.21960  0.93110  0.09390  Biso   1.000  C
  C8       1.0000 0.80390  0.74230  0.29270  Biso   1.000  C
  C9       1.0000 0.77440  0.72040  0.22230  Biso   1.000  C
  H5       1.0000 0.67340  0.73330  0.19270  Biso   1.000  H
  C10      1.0000 0.88730  0.68020  0.19280  Biso   1.000  C
  H6       1.0000 0.86300  0.66600  0.14380  Biso   1.000  H
  C11      1.0000 0.03750  0.66060  0.23560  Biso   1.000  C
  C12      1.0000 0.06700  0.68140  0.30820  Biso   1.000  C
  H7       1.0000 0.16570  0.66800  0.33860  Biso   1.000  H
  C13      1.0000 0.95210  0.72140  0.33530  Biso   1.000  C
  H8       1.0000 0.97410  0.73530  0.38460  Biso   1.000  H
  C14      1.0000 0.16630  0.62020  0.20430  Biso   1.000  C
  C15      1.0000 0.83710  0.85030  0.37540  Biso   1.000  C
  C16      1.0000 0.98660  0.86470  0.32900  Biso   1.000  C
  H9       1.0000 0.99770  0.84810  0.28080  Biso   1.000  H
  C17      1.0000 0.11710  0.90240  0.35250  Biso   1.000  C
  H10      1.0000 0.21350  0.91250  0.31970  Biso   1.000  H
  C18      1.0000 0.10750  0.92570  0.42480  Biso   1.000  C
  C19      1.0000 0.96270  0.91100  0.47190  Biso   1.000  C
  H11      1.0000 0.95620  0.92600  0.52120  Biso   1.000  H
  C20      1.0000 0.82830  0.87460  0.44740  Biso   1.000  C
  H12      1.0000 0.72880  0.86590  0.47960  Biso   1.000  H
  C21      1.0000 0.25740  0.96240  0.45010  Biso   1.000  C
  C22      1.0000 0.50220  0.77510  0.40720  Biso   1.000  C
  C23      1.0000 0.47820  0.71840  0.42210  Biso   1.000  C
  H13      1.0000 0.55030  0.69220  0.39650  Biso   1.000  H
  C24      1.0000 0.34670  0.70160  0.47520  Biso   1.000  C
  H14      1.0000 0.32830  0.66380  0.48400  Biso   1.000  H
  C25      1.0000 0.24480  0.73920  0.51440  Biso   1.000  C
  H15      1.0000 0.15860  0.72740  0.55080  Biso   1.000  H
  C26      1.0000 0.26780  0.79340  0.50090  Biso   1.000  C
  H16      1.0000 0.19620  0.81920  0.52760  Biso   1.000  H
  C27      1.0000 0.39470  0.81140  0.44840  Biso   1.000  C
  H17      1.0000 0.40880  0.84940  0.44040  Biso   1.000  H
  U2       1.0000 0.58685  0.04457  0.36407  Biso   1.000  U
  Si2      1.0000 0.33370  0.30003  0.16518  Biso   1.000  Si
  O7       1.0000 0.72260  0.47370  0.97960  Biso   1.000  O
  O8       1.0000 0.86070  0.10210  0.36390  Biso   1.000  O
  O9       1.0000 0.69430  0.10300  0.25890  Biso   1.000  O
  O10      1.0000 0.63530  0.48190  0.09930  Biso   1.000  O
  O11      1.0000 0.72870  0.47940  0.42240  Biso   1.000  O
  O12      1.0000 0.92950  0.41330  0.43650  Biso   1.000  O
  C28      1.0000 0.49770  0.41590  0.32620  Biso   1.000  C
  H18      1.0000 0.44940  0.44920  0.34490  Biso   1.000  H
  C29      1.0000 0.39940  0.38620  0.27280  Biso   1.000  C
  H19      1.0000 0.28410  0.39980  0.25520  Biso   1.000  H
  C30      1.0000 0.46490  0.33690  0.24390  Biso   1.000  C
  C31      1.0000 0.66930  0.39660  0.35270  Biso   1.000  C
  C32      1.0000 0.73470  0.34700  0.32750  Biso   1.000  C
  H20      1.0000 0.84710  0.33280  0.34720  Biso   1.000  H
  C33      1.0000 0.63480  0.31790  0.27300  Biso   1.000  C
  H21      1.0000 0.68270  0.28430  0.25500  Biso   1.000  H
  C34      1.0000 0.78040  0.43110  0.40610  Biso   1.000  C
  C35      1.0000 0.19610  0.24230  0.20730  Biso   1.000  C
  C36      1.0000 0.22560  0.22040  0.27770  Biso   1.000  C
  H22      1.0000 0.32660  0.23330  0.30730  Biso   1.000  H
  C37      1.0000 0.11270  0.18020  0.30720  Biso   1.000  C
  H23      1.0000 0.13700  0.16600  0.35620  Biso   1.000  H
  C38      1.0000 0.96250  0.16060  0.26440  Biso   1.000  C
  C39      1.0000 0.93300  0.18140  0.19180  Biso   1.000  C
  H24      1.0000 0.83430  0.16800  0.16140  Biso   1.000  H
  C40      1.0000 0.04790  0.22140  0.16470  Biso   1.000  C
  H25      1.0000 0.02590  0.23530  0.11540  Biso   1.000  H
  C41      1.0000 0.83370  0.12020  0.29570  Biso   1.000  C
  C42      1.0000 0.16290  0.35030  0.12460  Biso   1.000  C
  C43      1.0000 0.01340  0.36470  0.17100  Biso   1.000  C
  H26      1.0000 0.00230  0.34810  0.21920  Biso   1.000  H
  C44      1.0000 0.88290  0.40240  0.14750  Biso   1.000  C
  H27      1.0000 0.78650  0.41250  0.18030  Biso   1.000  H
  C45      1.0000 0.89250  0.42570  0.07520  Biso   1.000  C
  C46      1.0000 0.03730  0.41100  0.02810  Biso   1.000  C
  H28      1.0000 0.04380  0.42600  0.97880  Biso   1.000  H
  C47      1.0000 0.17170  0.37460  0.05260  Biso   1.000  C
  H29      1.0000 0.27120  0.36590  0.02040  Biso   1.000  H
  C48      1.0000 0.74260  0.46240  0.04990  Biso   1.000  C
  C49      1.0000 0.49780  0.27510  0.09280  Biso   1.000  C
  C50      1.0000 0.52180  0.21840  0.07790  Biso   1.000  C
  H30      1.0000 0.44970  0.19220  0.10350  Biso   1.000  H
  C51      1.0000 0.65330  0.20160  0.02480  Biso   1.000  C
  H31      1.0000 0.67170  0.16380  0.01600  Biso   1.000  H
  C52      1.0000 0.75520  0.23920  0.98560  Biso   1.000  C
  H32      1.0000 0.84140  0.22740  0.94920  Biso   1.000  H
  C53      1.0000 0.73220  0.29340  0.99910  Biso   1.000  C
  H33      1.0000 0.80380  0.31920  0.97240  Biso   1.000  H
  C54      1.0000 0.60530  0.31140  0.05160  Biso   1.000  C
  H34      1.0000 0.59120  0.34940  0.05960  Biso   1.000  H
  U3       1.0000 0.58685  0.45543  0.86407  Biso   1.000  U
  Si3      1.0000 0.33370  0.19997  0.66518  Biso   1.000  Si
  O13      1.0000 0.72260  0.02630  0.47960  Biso   1.000  O
  O14      1.0000 0.86070  0.39790  0.86390  Biso   1.000  O
  O15      1.0000 0.69430  0.39700  0.75890  Biso   1.000  O
  O16      1.0000 0.63530  0.01810  0.59930  Biso   1.000  O
  O17      1.0000 0.72870  0.02060  0.92240  Biso   1.000  O
  O18      1.0000 0.92950  0.08670  0.93650  Biso   1.000  O
  C55      1.0000 0.49770  0.08410  0.82620  Biso   1.000  C
  H35      1.0000 0.44940  0.05080  0.84490  Biso   1.000  H
  C56      1.0000 0.39940  0.11380  0.77280  Biso   1.000  C
  H36      1.0000 0.28410  0.10020  0.75520  Biso   1.000  H
  C57      1.0000 0.46490  0.16310  0.74390  Biso   1.000  C
  C58      1.0000 0.66930  0.10340  0.85270  Biso   1.000  C
  C59      1.0000 0.73470  0.15300  0.82750  Biso   1.000  C
  H37      1.0000 0.84710  0.16720  0.84720  Biso   1.000  H
  C60      1.0000 0.63480  0.18210  0.77300  Biso   1.000  C
  H38      1.0000 0.68270  0.21570  0.75500  Biso   1.000  H
  C61      1.0000 0.78040  0.06890  0.90610  Biso   1.000  C
  C62      1.0000 0.19610  0.25770  0.70730  Biso   1.000  C
  C63      1.0000 0.22560  0.27960  0.77770  Biso   1.000  C
  H39      1.0000 0.32660  0.26670  0.80730  Biso   1.000  H
  C64      1.0000 0.11270  0.31980  0.80720  Biso   1.000  C
  H40      1.0000 0.13700  0.33400  0.85620  Biso   1.000  H
  C65      1.0000 0.96250  0.33940  0.76440  Biso   1.000  C
  C66      1.0000 0.93300  0.31860  0.69180  Biso   1.000  C
  H41      1.0000 0.83430  0.33200  0.66140  Biso   1.000  H
  C67      1.0000 0.04790  0.27860  0.66470  Biso   1.000  C
  H42      1.0000 0.02590  0.26470  0.61540  Biso   1.000  H
  C68      1.0000 0.83370  0.37980  0.79570  Biso   1.000  C
  C69      1.0000 0.16290  0.14970  0.62460  Biso   1.000  C
  C70      1.0000 0.01340  0.13530  0.67100  Biso   1.000  C
  H43      1.0000 0.00230  0.15190  0.71920  Biso   1.000  H
  C71      1.0000 0.88290  0.09760  0.64750  Biso   1.000  C
  H44      1.0000 0.78650  0.08750  0.68030  Biso   1.000  H
  C72      1.0000 0.89250  0.07430  0.57520  Biso   1.000  C
  C73      1.0000 0.03730  0.08900  0.52810  Biso   1.000  C
  H45      1.0000 0.04380  0.07400  0.47880  Biso   1.000  H
  C74      1.0000 0.17170  0.12540  0.55260  Biso   1.000  C
  H46      1.0000 0.27120  0.13410  0.52040  Biso   1.000  H
  C75      1.0000 0.74260  0.03760  0.54990  Biso   1.000  C
  C76      1.0000 0.49780  0.22490  0.59280  Biso   1.000  C
  C77      1.0000 0.52180  0.28160  0.57790  Biso   1.000  C
  H47      1.0000 0.44970  0.30780  0.60350  Biso   1.000  H
  C78      1.0000 0.65330  0.29840  0.52480  Biso   1.000  C
  H48      1.0000 0.67170  0.33620  0.51600  Biso   1.000  H
  C79      1.0000 0.75520  0.26080  0.48560  Biso   1.000  C
  H49      1.0000 0.84140  0.27260  0.44920  Biso   1.000  H
  C80      1.0000 0.73220  0.20660  0.49910  Biso   1.000  C
  H50      1.0000 0.80380  0.18080  0.47240  Biso   1.000  H
  C81      1.0000 0.60530  0.18860  0.55160  Biso   1.000  C
  H51      1.0000 0.59120  0.15060  0.55960  Biso   1.000  H
  U4       1.0000 0.41315  0.95543  0.63593  Biso   1.000  U
  Si4      1.0000 0.66630  0.69997  0.83482  Biso   1.000  Si
  O19      1.0000 0.27740  0.52630  0.02040  Biso   1.000  O
  O20      1.0000 0.13930  0.89790  0.63610  Biso   1.000  O
  O21      1.0000 0.30570  0.89700  0.74110  Biso   1.000  O
  O22      1.0000 0.36470  0.51810  0.90070  Biso   1.000  O
  O23      1.0000 0.27130  0.52060  0.57760  Biso   1.000  O
  O24      1.0000 0.07050  0.58670  0.56350  Biso   1.000  O
  C82      1.0000 0.50230  0.58410  0.67380  Biso   1.000  C
  H52      1.0000 0.55060  0.55080  0.65510  Biso   1.000  H
  C83      1.0000 0.60060  0.61380  0.72720  Biso   1.000  C
  H53      1.0000 0.71590  0.60020  0.74480  Biso   1.000  H
  C84      1.0000 0.53510  0.66310  0.75610  Biso   1.000  C
  C85      1.0000 0.33070  0.60340  0.64730  Biso   1.000  C
  C86      1.0000 0.26530  0.65300  0.67250  Biso   1.000  C
  H54      1.0000 0.15290  0.66720  0.65280  Biso   1.000  H
  C87      1.0000 0.36520  0.68210  0.72700  Biso   1.000  C
  H55      1.0000 0.31730  0.71570  0.74500  Biso   1.000  H
  C88      1.0000 0.21960  0.56890  0.59390  Biso   1.000  C
  C89      1.0000 0.80390  0.75770  0.79270  Biso   1.000  C
  C90      1.0000 0.77440  0.77960  0.72230  Biso   1.000  C
  H56      1.0000 0.67340  0.76670  0.69270  Biso   1.000  H
  C91      1.0000 0.88730  0.81980  0.69280  Biso   1.000  C
  H57      1.0000 0.86300  0.83400  0.64380  Biso   1.000  H
  C92      1.0000 0.03750  0.83940  0.73560  Biso   1.000  C
  C93      1.0000 0.06700  0.81860  0.80820  Biso   1.000  C
  H58      1.0000 0.16570  0.83200  0.83860  Biso   1.000  H
  C94      1.0000 0.95210  0.77860  0.83530  Biso   1.000  C
  H59      1.0000 0.97410  0.76470  0.88460  Biso   1.000  H
  C95      1.0000 0.16630  0.87980  0.70430  Biso   1.000  C
  C96      1.0000 0.83710  0.64970  0.87540  Biso   1.000  C
  C97      1.0000 0.98660  0.63530  0.82900  Biso   1.000  C
  H60      1.0000 0.99770  0.65190  0.78080  Biso   1.000  H
  C98      1.0000 0.11710  0.59760  0.85250  Biso   1.000  C
  H61      1.0000 0.21350  0.58750  0.81970  Biso   1.000  H
  C99      1.0000 0.10750  0.57430  0.92480  Biso   1.000  C
  C100     1.0000 0.96270  0.58900  0.97190  Biso   1.000  C
  H62      1.0000 0.95620  0.57400  0.02120  Biso   1.000  H
  C101     1.0000 0.82830  0.62540  0.94740  Biso   1.000  C
  H63      1.0000 0.72880  0.63410  0.97960  Biso   1.000  H
  C102     1.0000 0.25740  0.53760  0.95010  Biso   1.000  C
  C103     1.0000 0.50220  0.72490  0.90720  Biso   1.000  C
  C104     1.0000 0.47820  0.78160  0.92210  Biso   1.000  C
  H64      1.0000 0.55030  0.80780  0.89650  Biso   1.000  H
  C105     1.0000 0.34670  0.79840  0.97520  Biso   1.000  C
  H65      1.0000 0.32830  0.83620  0.98400  Biso   1.000  H
  C106     1.0000 0.24480  0.76080  0.01440  Biso   1.000  C
  H66      1.0000 0.15860  0.77260  0.05080  Biso   1.000  H
  C107     1.0000 0.26780  0.70660  0.00090  Biso   1.000  C
  H67      1.0000 0.19620  0.68080  0.02760  Biso   1.000  H
  C108     1.0000 0.39470  0.68860  0.94840  Biso   1.000  C
  H68      1.0000 0.40880  0.65060  0.94040  Biso   1.000  H
  U5       1.0000 0.00000  0.00000  0.00000  Biso   1.000  U
  U6       1.0000 0.00000  0.50000  0.50000  Biso   1.000  U
