data_image0
_cell_length_a       24.704
_cell_length_b       5.7098
_cell_length_c       26.335
_cell_angle_alpha    90
_cell_angle_beta     114.87
_cell_angle_gamma    90

_symmetry_space_group_name_H-M    "P 1"
_symmetry_int_tables_number       1

loop_
  _symmetry_equiv_pos_as_xyz
  'x, y, z'

loop_
  _atom_site_label
  _atom_site_occupancy
  _atom_site_fract_x
  _atom_site_fract_y
  _atom_site_fract_z
  _atom_site_thermal_displace_type
  _atom_site_B_iso_or_equiv
  _atom_site_type_symbol
  Zn1      1.0000 0.25723  0.22360  0.53989  Biso   1.000  Zn
  S1       1.0000 0.10070  0.01940  0.72125  Biso   1.000  S
  S2       1.0000 0.50656  0.46390  0.39274  Biso   1.000  S
  O1       1.0000 0.24170  0.83790  0.55103  Biso   1.000  O
  O2       1.0000 0.22030  0.47960  0.57097  Biso   1.000  O
  O3       1.0000 0.83810  0.50630  0.57490  Biso   1.000  O
  O4       1.0000 0.81689  0.85980  0.53735  Biso   1.000  O
  O5       1.0000 0.12380  0.88260  0.77158  Biso   1.000  O
  O6       1.0000 0.10370  0.27150  0.72470  Biso   1.000  O
  O7       1.0000 0.30545  0.45590  0.50219  Biso   1.000  O
  O8       1.0000 0.51896  0.71170  0.39648  Biso   1.000  O
  O9       1.0000 0.55487  0.29790  0.41797  Biso   1.000  O
  O10      1.0000 0.33230  0.35180  0.11687  Biso   1.000  O
  O11      1.0000 0.36150  0.98280  0.13997  Biso   1.000  O
  O12      1.0000 0.31928  0.07330  0.50006  Biso   1.000  O
  C1       1.0000 0.22080  0.69700  0.57500  Biso   1.000  C
  C2       1.0000 0.19310  0.78930  0.61270  Biso   1.000  C
  C3       1.0000 0.16380  0.00540  0.60340  Biso   1.000  C
  H1       1.0000 0.16380  0.10350  0.57520  Biso   1.000  H
  C4       1.0000 0.13560  0.07230  0.63540  Biso   1.000  C
  H2       1.0000 0.11520  0.21400  0.62830  Biso   1.000  H
  C5       1.0000 0.13710  0.92970  0.67880  Biso   1.000  C
  C6       1.0000 0.16700  0.71700  0.68910  Biso   1.000  C
  H3       1.0000 0.16870  0.62220  0.71840  Biso   1.000  H
  C7       1.0000 0.19380  0.64920  0.65600  Biso   1.000  C
  H4       1.0000 0.21320  0.50530  0.66250  Biso   1.000  H
  C8       1.0000 0.02510  0.93880  0.68140  Biso   1.000  C
  C9       1.0000 0.98910  0.08460  0.63870  Biso   1.000  C
  H5       1.0000 0.00340  0.22790  0.63280  Biso   1.000  H
  C10      1.0000 0.93210  0.01510  0.60520  Biso   1.000  C
  H6       1.0000 0.90760  0.11290  0.57650  Biso   1.000  H
  C11      1.0000 0.91060  0.80410  0.61330  Biso   1.000  C
  C12      1.0000 0.94650  0.65830  0.65660  Biso   1.000  C
  H7       1.0000 0.93170  0.51600  0.66240  Biso   1.000  H
  C13      1.0000 0.00440  0.72490  0.69120  Biso   1.000  C
  H8       1.0000 0.02890  0.62840  0.72020  Biso   1.000  H
  C14      1.0000 0.84920  0.71420  0.57130  Biso   1.000  C
  C15      1.0000 0.33010  0.28030  0.49050  Biso   1.000  C
  C16      1.0000 0.37330  0.32510  0.46600  Biso   1.000  C
  C17      1.0000 0.37380  0.53890  0.44080  Biso   1.000  C
  H9       1.0000 0.34640  0.65410  0.43870  Biso   1.000  H
  C18      1.0000 0.41440  0.58080  0.41920  Biso   1.000  C
  H10      1.0000 0.41450  0.72430  0.40260  Biso   1.000  H
  C19      1.0000 0.45560  0.40830  0.42200  Biso   1.000  C
  C20      1.0000 0.45600  0.19620  0.44600  Biso   1.000  C
  H11      1.0000 0.48390  0.08240  0.44860  Biso   1.000  H
  C21      1.0000 0.41270  0.15410  0.46700  Biso   1.000  C
  H12      1.0000 0.41090  0.00770  0.48170  Biso   1.000  H
  C22      1.0000 0.46670  0.38850  0.32210  Biso   1.000  C
  C23      1.0000 0.42590  0.54810  0.28580  Biso   1.000  C
  H13      1.0000 0.42070  0.69390  0.29880  Biso   1.000  H
  C24      1.0000 0.39340  0.48830  0.23030  Biso   1.000  C
  H14      1.0000 0.36660  0.59510  0.20590  Biso   1.000  H
  C25      1.0000 0.40040  0.27020  0.21060  Biso   1.000  C
  C26      1.0000 0.44260  0.11560  0.24720  Biso   1.000  C
  H15      1.0000 0.44830  0.97140  0.23380  Biso   1.000  H
  C27      1.0000 0.47610  0.17060  0.30280  Biso   1.000  C
  H16      1.0000 0.50400  0.06580  0.32670  Biso   1.000  H
  C28      1.0000 0.36200  0.19300  0.15080  Biso   1.000  C
  Na1      1.0000 0.65016  0.21630  0.42502  Biso   1.000  Na
  Na2      1.0000 0.22920  0.77910  0.45251  Biso   1.000  Na
  Zn2      1.0000 0.74277  0.72360  0.96011  Biso   1.000  Zn
  S3       1.0000 0.89930  0.51940  0.77875  Biso   1.000  S
  S4       1.0000 0.49344  0.96390  0.10726  Biso   1.000  S
  O13      1.0000 0.75830  0.33790  0.94897  Biso   1.000  O
  O14      1.0000 0.77970  0.97960  0.92903  Biso   1.000  O
  O15      1.0000 0.16190  0.00630  0.92510  Biso   1.000  O
  O16      1.0000 0.18311  0.35980  0.96265  Biso   1.000  O
  O17      1.0000 0.87620  0.38260  0.72842  Biso   1.000  O
  O18      1.0000 0.89630  0.77150  0.77530  Biso   1.000  O
  O19      1.0000 0.69455  0.95590  0.99781  Biso   1.000  O
  O20      1.0000 0.48104  0.21170  0.10352  Biso   1.000  O
  O21      1.0000 0.44513  0.79790  0.08203  Biso   1.000  O
  O22      1.0000 0.66770  0.85180  0.38313  Biso   1.000  O
  O23      1.0000 0.63850  0.48280  0.36003  Biso   1.000  O
  O24      1.0000 0.68072  0.57330  0.99994  Biso   1.000  O
  C29      1.0000 0.77920  0.19700  0.92500  Biso   1.000  C
  C30      1.0000 0.80690  0.28930  0.88730  Biso   1.000  C
  C31      1.0000 0.83620  0.50540  0.89660  Biso   1.000  C
  H17      1.0000 0.83620  0.60350  0.92480  Biso   1.000  H
  C32      1.0000 0.86440  0.57230  0.86460  Biso   1.000  C
  H18      1.0000 0.88480  0.71400  0.87170  Biso   1.000  H
  C33      1.0000 0.86290  0.42970  0.82120  Biso   1.000  C
  C34      1.0000 0.83300  0.21700  0.81090  Biso   1.000  C
  H19      1.0000 0.83130  0.12220  0.78160  Biso   1.000  H
  C35      1.0000 0.80620  0.14920  0.84400  Biso   1.000  C
  H20      1.0000 0.78680  0.00530  0.83750  Biso   1.000  H
  C36      1.0000 0.97490  0.43880  0.81860  Biso   1.000  C
  C37      1.0000 0.01090  0.58460  0.86130  Biso   1.000  C
  H21      1.0000 0.99660  0.72790  0.86720  Biso   1.000  H
  C38      1.0000 0.06790  0.51510  0.89480  Biso   1.000  C
  H22      1.0000 0.09240  0.61290  0.92350  Biso   1.000  H
  C39      1.0000 0.08940  0.30410  0.88670  Biso   1.000  C
  C40      1.0000 0.05350  0.15830  0.84340  Biso   1.000  C
  H23      1.0000 0.06830  0.01600  0.83760  Biso   1.000  H
  C41      1.0000 0.99560  0.22490  0.80880  Biso   1.000  C
  H24      1.0000 0.97110  0.12840  0.77980  Biso   1.000  H
  C42      1.0000 0.15080  0.21420  0.92870  Biso   1.000  C
  C43      1.0000 0.66990  0.78030  0.00950  Biso   1.000  C
  C44      1.0000 0.62670  0.82510  0.03400  Biso   1.000  C
  C45      1.0000 0.62620  0.03890  0.05920  Biso   1.000  C
  H25      1.0000 0.65360  0.15410  0.06130  Biso   1.000  H
  C46      1.0000 0.58560  0.08080  0.08080  Biso   1.000  C
  H26      1.0000 0.58550  0.22430  0.09740  Biso   1.000  H
  C47      1.0000 0.54440  0.90830  0.07800  Biso   1.000  C
  C48      1.0000 0.54400  0.69620  0.05400  Biso   1.000  C
  H27      1.0000 0.51610  0.58240  0.05140  Biso   1.000  H
  C49      1.0000 0.58730  0.65410  0.03300  Biso   1.000  C
  H28      1.0000 0.58910  0.50770  0.01830  Biso   1.000  H
  C50      1.0000 0.53330  0.88850  0.17790  Biso   1.000  C
  C51      1.0000 0.57410  0.04810  0.21420  Biso   1.000  C
  H29      1.0000 0.57930  0.19390  0.20120  Biso   1.000  H
  C52      1.0000 0.60660  0.98830  0.26970  Biso   1.000  C
  H30      1.0000 0.63340  0.09510  0.29410  Biso   1.000  H
  C53      1.0000 0.59960  0.77020  0.28940  Biso   1.000  C
  C54      1.0000 0.55740  0.61560  0.25280  Biso   1.000  C
  H31      1.0000 0.55170  0.47140  0.26620  Biso   1.000  H
  C55      1.0000 0.52390  0.67060  0.19720  Biso   1.000  C
  H32      1.0000 0.49600  0.56580  0.17330  Biso   1.000  H
  C56      1.0000 0.63800  0.69300  0.34920  Biso   1.000  C
  Na3      1.0000 0.34984  0.71630  0.07498  Biso   1.000  Na
  Na4      1.0000 0.77080  0.27910  0.04749  Biso   1.000  Na
  Zn3      1.0000 0.74277  0.77640  0.46011  Biso   1.000  Zn
  S5       1.0000 0.89930  0.98060  0.27875  Biso   1.000  S
  S6       1.0000 0.49344  0.53610  0.60726  Biso   1.000  S
  O25      1.0000 0.75830  0.16210  0.44897  Biso   1.000  O
  O26      1.0000 0.77970  0.52040  0.42903  Biso   1.000  O
  O27      1.0000 0.16190  0.49370  0.42510  Biso   1.000  O
  O28      1.0000 0.18311  0.14020  0.46265  Biso   1.000  O
  O29      1.0000 0.87620  0.11740  0.22842  Biso   1.000  O
  O30      1.0000 0.89630  0.72850  0.27530  Biso   1.000  O
  O31      1.0000 0.69455  0.54410  0.49781  Biso   1.000  O
  O32      1.0000 0.48104  0.28830  0.60352  Biso   1.000  O
  O33      1.0000 0.44513  0.70210  0.58203  Biso   1.000  O
  O34      1.0000 0.66770  0.64820  0.88313  Biso   1.000  O
  O35      1.0000 0.63850  0.01720  0.86003  Biso   1.000  O
  O36      1.0000 0.68072  0.92670  0.49994  Biso   1.000  O
  C57      1.0000 0.77920  0.30300  0.42500  Biso   1.000  C
  C58      1.0000 0.80690  0.21070  0.38730  Biso   1.000  C
  C59      1.0000 0.83620  0.99460  0.39660  Biso   1.000  C
  H33      1.0000 0.83620  0.89650  0.42480  Biso   1.000  H
  C60      1.0000 0.86440  0.92770  0.36460  Biso   1.000  C
  H34      1.0000 0.88480  0.78600  0.37170  Biso   1.000  H
  C61      1.0000 0.86290  0.07030  0.32120  Biso   1.000  C
  C62      1.0000 0.83300  0.28300  0.31090  Biso   1.000  C
  H35      1.0000 0.83130  0.37780  0.28160  Biso   1.000  H
  C63      1.0000 0.80620  0.35080  0.34400  Biso   1.000  C
  H36      1.0000 0.78680  0.49470  0.33750  Biso   1.000  H
  C64      1.0000 0.97490  0.06120  0.31860  Biso   1.000  C
  C65      1.0000 0.01090  0.91540  0.36130  Biso   1.000  C
  H37      1.0000 0.99660  0.77210  0.36720  Biso   1.000  H
  C66      1.0000 0.06790  0.98490  0.39480  Biso   1.000  C
  H38      1.0000 0.09240  0.88710  0.42350  Biso   1.000  H
  C67      1.0000 0.08940  0.19590  0.38670  Biso   1.000  C
  C68      1.0000 0.05350  0.34170  0.34340  Biso   1.000  C
  H39      1.0000 0.06830  0.48400  0.33760  Biso   1.000  H
  C69      1.0000 0.99560  0.27510  0.30880  Biso   1.000  C
  H40      1.0000 0.97110  0.37160  0.27980  Biso   1.000  H
  C70      1.0000 0.15080  0.28580  0.42870  Biso   1.000  C
  C71      1.0000 0.66990  0.71970  0.50950  Biso   1.000  C
  C72      1.0000 0.62670  0.67490  0.53400  Biso   1.000  C
  C73      1.0000 0.62620  0.46110  0.55920  Biso   1.000  C
  H41      1.0000 0.65360  0.34590  0.56130  Biso   1.000  H
  C74      1.0000 0.58560  0.41920  0.58080  Biso   1.000  C
  H42      1.0000 0.58550  0.27570  0.59740  Biso   1.000  H
  C75      1.0000 0.54440  0.59170  0.57800  Biso   1.000  C
  C76      1.0000 0.54400  0.80380  0.55400  Biso   1.000  C
  H43      1.0000 0.51610  0.91760  0.55140  Biso   1.000  H
  C77      1.0000 0.58730  0.84590  0.53300  Biso   1.000  C
  H44      1.0000 0.58910  0.99230  0.51830  Biso   1.000  H
  C78      1.0000 0.53330  0.61150  0.67790  Biso   1.000  C
  C79      1.0000 0.57410  0.45190  0.71420  Biso   1.000  C
  H45      1.0000 0.57930  0.30610  0.70120  Biso   1.000  H
  C80      1.0000 0.60660  0.51170  0.76970  Biso   1.000  C
  H46      1.0000 0.63340  0.40490  0.79410  Biso   1.000  H
  C81      1.0000 0.59960  0.72980  0.78940  Biso   1.000  C
  C82      1.0000 0.55740  0.88440  0.75280  Biso   1.000  C
  H47      1.0000 0.55170  0.02860  0.76620  Biso   1.000  H
  C83      1.0000 0.52390  0.82940  0.69720  Biso   1.000  C
  H48      1.0000 0.49600  0.93420  0.67330  Biso   1.000  H
  C84      1.0000 0.63800  0.80700  0.84920  Biso   1.000  C
  Na5      1.0000 0.34984  0.78370  0.57498  Biso   1.000  Na
  Na6      1.0000 0.77080  0.22090  0.54749  Biso   1.000  Na
  Zn4      1.0000 0.25723  0.27640  0.03989  Biso   1.000  Zn
  S7       1.0000 0.10070  0.48060  0.22125  Biso   1.000  S
  S8       1.0000 0.50656  0.03610  0.89274  Biso   1.000  S
  O37      1.0000 0.24170  0.66210  0.05103  Biso   1.000  O
  O38      1.0000 0.22030  0.02040  0.07097  Biso   1.000  O
  O39      1.0000 0.83810  0.99370  0.07490  Biso   1.000  O
  O40      1.0000 0.81689  0.64020  0.03735  Biso   1.000  O
  O41      1.0000 0.12380  0.61740  0.27158  Biso   1.000  O
  O42      1.0000 0.10370  0.22850  0.22470  Biso   1.000  O
  O43      1.0000 0.30545  0.04410  0.00219  Biso   1.000  O
  O44      1.0000 0.51896  0.78830  0.89648  Biso   1.000  O
  O45      1.0000 0.55487  0.20210  0.91797  Biso   1.000  O
  O46      1.0000 0.33230  0.14820  0.61687  Biso   1.000  O
  O47      1.0000 0.36150  0.51720  0.63997  Biso   1.000  O
  O48      1.0000 0.31928  0.42670  0.00006  Biso   1.000  O
  C85      1.0000 0.22080  0.80300  0.07500  Biso   1.000  C
  C86      1.0000 0.19310  0.71070  0.11270  Biso   1.000  C
  C87      1.0000 0.16380  0.49460  0.10340  Biso   1.000  C
  H49      1.0000 0.16380  0.39650  0.07520  Biso   1.000  H
  C88      1.0000 0.13560  0.42770  0.13540  Biso   1.000  C
  H50      1.0000 0.11520  0.28600  0.12830  Biso   1.000  H
  C89      1.0000 0.13710  0.57030  0.17880  Biso   1.000  C
  C90      1.0000 0.16700  0.78300  0.18910  Biso   1.000  C
  H51      1.0000 0.16870  0.87780  0.21840  Biso   1.000  H
  C91      1.0000 0.19380  0.85080  0.15600  Biso   1.000  C
  H52      1.0000 0.21320  0.99470  0.16250  Biso   1.000  H
  C92      1.0000 0.02510  0.56120  0.18140  Biso   1.000  C
  C93      1.0000 0.98910  0.41540  0.13870  Biso   1.000  C
  H53      1.0000 0.00340  0.27210  0.13280  Biso   1.000  H
  C94      1.0000 0.93210  0.48490  0.10520  Biso   1.000  C
  H54      1.0000 0.90760  0.38710  0.07650  Biso   1.000  H
  C95      1.0000 0.91060  0.69590  0.11330  Biso   1.000  C
  C96      1.0000 0.94650  0.84170  0.15660  Biso   1.000  C
  H55      1.0000 0.93170  0.98400  0.16240  Biso   1.000  H
  C97      1.0000 0.00440  0.77510  0.19120  Biso   1.000  C
  H56      1.0000 0.02890  0.87160  0.22020  Biso   1.000  H
  C98      1.0000 0.84920  0.78580  0.07130  Biso   1.000  C
  C99      1.0000 0.33010  0.21970  0.99050  Biso   1.000  C
  C100     1.0000 0.37330  0.17490  0.96600  Biso   1.000  C
  C101     1.0000 0.37380  0.96110  0.94080  Biso   1.000  C
  H57      1.0000 0.34640  0.84590  0.93870  Biso   1.000  H
  C102     1.0000 0.41440  0.91920  0.91920  Biso   1.000  C
  H58      1.0000 0.41450  0.77570  0.90260  Biso   1.000  H
  C103     1.0000 0.45560  0.09170  0.92200  Biso   1.000  C
  C104     1.0000 0.45600  0.30380  0.94600  Biso   1.000  C
  H59      1.0000 0.48390  0.41760  0.94860  Biso   1.000  H
  C105     1.0000 0.41270  0.34590  0.96700  Biso   1.000  C
  H60      1.0000 0.41090  0.49230  0.98170  Biso   1.000  H
  C106     1.0000 0.46670  0.11150  0.82210  Biso   1.000  C
  C107     1.0000 0.42590  0.95190  0.78580  Biso   1.000  C
  H61      1.0000 0.42070  0.80610  0.79880  Biso   1.000  H
  C108     1.0000 0.39340  0.01170  0.73030  Biso   1.000  C
  H62      1.0000 0.36660  0.90490  0.70590  Biso   1.000  H
  C109     1.0000 0.40040  0.22980  0.71060  Biso   1.000  C
  C110     1.0000 0.44260  0.38440  0.74720  Biso   1.000  C
  H63      1.0000 0.44830  0.52860  0.73380  Biso   1.000  H
  C111     1.0000 0.47610  0.32940  0.80280  Biso   1.000  C
  H64      1.0000 0.50400  0.43420  0.82670  Biso   1.000  H
  C112     1.0000 0.36200  0.30700  0.65080  Biso   1.000  C
  Na7      1.0000 0.65016  0.28370  0.92502  Biso   1.000  Na
  Na8      1.0000 0.22920  0.72090  0.95251  Biso   1.000  Na
