data_image0
_cell_length_a       33.4317
_cell_length_b       7.152
_cell_length_c       16.7181
_cell_angle_alpha    90
_cell_angle_beta     90
_cell_angle_gamma    90

_symmetry_space_group_name_H-M    "P 1"
_symmetry_int_tables_number       1

loop_
  _symmetry_equiv_pos_as_xyz
  'x, y, z'

loop_
  _atom_site_label
  _atom_site_occupancy
  _atom_site_fract_x
  _atom_site_fract_y
  _atom_site_fract_z
  _atom_site_thermal_displace_type
  _atom_site_B_iso_or_equiv
  _atom_site_type_symbol
  O1       1.0000 0.78961  0.16270  0.90840  Biso   1.000  O
  C1       1.0000 0.87961  0.15780  0.73920  Biso   1.000  C
  C2       1.0000 0.84999  0.15630  0.80056  Biso   1.000  C
  O2       1.0000 0.28961  0.66270  0.90840  Biso   1.000  O
  C3       1.0000 0.37961  0.65780  0.73920  Biso   1.000  C
  C4       1.0000 0.34999  0.65630  0.80056  Biso   1.000  C
  O3       1.0000 0.21039  0.83730  0.90840  Biso   1.000  O
  C5       1.0000 0.12039  0.84220  0.73920  Biso   1.000  C
  C6       1.0000 0.15001  0.84370  0.80056  Biso   1.000  C
  O4       1.0000 0.71039  0.33730  0.90840  Biso   1.000  O
  C7       1.0000 0.62039  0.34220  0.73920  Biso   1.000  C
  C8       1.0000 0.65001  0.34370  0.80056  Biso   1.000  C
  O5       1.0000 0.21039  0.16270  0.09160  Biso   1.000  O
  C9       1.0000 0.12039  0.15780  0.26080  Biso   1.000  C
  C10      1.0000 0.15001  0.15630  0.19944  Biso   1.000  C
  O6       1.0000 0.71039  0.66270  0.09160  Biso   1.000  O
  C11      1.0000 0.62039  0.65780  0.26080  Biso   1.000  C
  C12      1.0000 0.65001  0.65630  0.19944  Biso   1.000  C
  O7       1.0000 0.78961  0.83730  0.09160  Biso   1.000  O
  C13      1.0000 0.87961  0.84220  0.26080  Biso   1.000  C
  C14      1.0000 0.84999  0.84370  0.19944  Biso   1.000  C
  O8       1.0000 0.28961  0.33730  0.09160  Biso   1.000  O
  C15      1.0000 0.37961  0.34220  0.26080  Biso   1.000  C
  C16      1.0000 0.34999  0.34370  0.19944  Biso   1.000  C
  O9       1.0000 0.21039  0.83730  0.09160  Biso   1.000  O
  C17      1.0000 0.12039  0.84220  0.26080  Biso   1.000  C
  C18      1.0000 0.15001  0.84370  0.19944  Biso   1.000  C
  O10      1.0000 0.71039  0.33730  0.09160  Biso   1.000  O
  C19      1.0000 0.62039  0.34220  0.26080  Biso   1.000  C
  C20      1.0000 0.65001  0.34370  0.19944  Biso   1.000  C
  O11      1.0000 0.78961  0.16270  0.09160  Biso   1.000  O
  C21      1.0000 0.87961  0.15780  0.26080  Biso   1.000  C
  C22      1.0000 0.84999  0.15630  0.19944  Biso   1.000  C
  O12      1.0000 0.28961  0.66270  0.09160  Biso   1.000  O
  C23      1.0000 0.37961  0.65780  0.26080  Biso   1.000  C
  C24      1.0000 0.34999  0.65630  0.19944  Biso   1.000  C
  O13      1.0000 0.78961  0.83730  0.90840  Biso   1.000  O
  C25      1.0000 0.87961  0.84220  0.73920  Biso   1.000  C
  C26      1.0000 0.84999  0.84370  0.80056  Biso   1.000  C
  O14      1.0000 0.28961  0.33730  0.90840  Biso   1.000  O
  C27      1.0000 0.37961  0.34220  0.73920  Biso   1.000  C
  C28      1.0000 0.34999  0.34370  0.80056  Biso   1.000  C
  O15      1.0000 0.21039  0.16270  0.90840  Biso   1.000  O
  C29      1.0000 0.12039  0.15780  0.73920  Biso   1.000  C
  C30      1.0000 0.15001  0.15630  0.80056  Biso   1.000  C
  O16      1.0000 0.71039  0.66270  0.90840  Biso   1.000  O
  C31      1.0000 0.62039  0.65780  0.73920  Biso   1.000  C
  C32      1.0000 0.65001  0.65630  0.80056  Biso   1.000  C
  C33      1.0000 0.80160  0.00000  0.89770  Biso   1.000  C
  C34      1.0000 0.96665  0.00000  0.67280  Biso   1.000  C
  C35      1.0000 0.97974  0.00000  0.75230  Biso   1.000  C
  C36      1.0000 0.91234  0.00000  0.56790  Biso   1.000  C
  C37      1.0000 0.87367  0.00000  0.54067  Biso   1.000  C
  C38      1.0000 0.92929  0.00000  0.64210  Biso   1.000  C
  C39      1.0000 0.89674  0.00000  0.70400  Biso   1.000  C
  C40      1.0000 0.83332  0.00000  0.83560  Biso   1.000  C
  C41      1.0000 0.30160  0.50000  0.89770  Biso   1.000  C
  C42      1.0000 0.46665  0.50000  0.67280  Biso   1.000  C
  C43      1.0000 0.47974  0.50000  0.75230  Biso   1.000  C
  C44      1.0000 0.41234  0.50000  0.56790  Biso   1.000  C
  C45      1.0000 0.37367  0.50000  0.54067  Biso   1.000  C
  C46      1.0000 0.42929  0.50000  0.64210  Biso   1.000  C
  C47      1.0000 0.39674  0.50000  0.70400  Biso   1.000  C
  C48      1.0000 0.33332  0.50000  0.83560  Biso   1.000  C
  C49      1.0000 0.19840  0.00000  0.89770  Biso   1.000  C
  C50      1.0000 0.03335  0.00000  0.67280  Biso   1.000  C
  C51      1.0000 0.02026  0.00000  0.75230  Biso   1.000  C
  C52      1.0000 0.08766  0.00000  0.56790  Biso   1.000  C
  C53      1.0000 0.12633  0.00000  0.54067  Biso   1.000  C
  C54      1.0000 0.07071  0.00000  0.64210  Biso   1.000  C
  C55      1.0000 0.10326  0.00000  0.70400  Biso   1.000  C
  C56      1.0000 0.16668  0.00000  0.83560  Biso   1.000  C
  C57      1.0000 0.69840  0.50000  0.89770  Biso   1.000  C
  C58      1.0000 0.53335  0.50000  0.67280  Biso   1.000  C
  C59      1.0000 0.52026  0.50000  0.75230  Biso   1.000  C
  C60      1.0000 0.58766  0.50000  0.56790  Biso   1.000  C
  C61      1.0000 0.62633  0.50000  0.54067  Biso   1.000  C
  C62      1.0000 0.57071  0.50000  0.64210  Biso   1.000  C
  C63      1.0000 0.60326  0.50000  0.70400  Biso   1.000  C
  C64      1.0000 0.66668  0.50000  0.83560  Biso   1.000  C
  C65      1.0000 0.19840  0.00000  0.10230  Biso   1.000  C
  C66      1.0000 0.03335  0.00000  0.32720  Biso   1.000  C
  C67      1.0000 0.02026  0.00000  0.24770  Biso   1.000  C
  C68      1.0000 0.08766  0.00000  0.43210  Biso   1.000  C
  C69      1.0000 0.12633  0.00000  0.45933  Biso   1.000  C
  C70      1.0000 0.07071  0.00000  0.35790  Biso   1.000  C
  C71      1.0000 0.10326  0.00000  0.29600  Biso   1.000  C
  C72      1.0000 0.16668  0.00000  0.16440  Biso   1.000  C
  C73      1.0000 0.69840  0.50000  0.10230  Biso   1.000  C
  C74      1.0000 0.53335  0.50000  0.32720  Biso   1.000  C
  C75      1.0000 0.52026  0.50000  0.24770  Biso   1.000  C
  C76      1.0000 0.58766  0.50000  0.43210  Biso   1.000  C
  C77      1.0000 0.62633  0.50000  0.45933  Biso   1.000  C
  C78      1.0000 0.57071  0.50000  0.35790  Biso   1.000  C
  C79      1.0000 0.60326  0.50000  0.29600  Biso   1.000  C
  C80      1.0000 0.66668  0.50000  0.16440  Biso   1.000  C
  C81      1.0000 0.80160  0.00000  0.10230  Biso   1.000  C
  C82      1.0000 0.96665  0.00000  0.32720  Biso   1.000  C
  C83      1.0000 0.97974  0.00000  0.24770  Biso   1.000  C
  C84      1.0000 0.91234  0.00000  0.43210  Biso   1.000  C
  C85      1.0000 0.87367  0.00000  0.45933  Biso   1.000  C
  C86      1.0000 0.92929  0.00000  0.35790  Biso   1.000  C
  C87      1.0000 0.89674  0.00000  0.29600  Biso   1.000  C
  C88      1.0000 0.83332  0.00000  0.16440  Biso   1.000  C
  C89      1.0000 0.30160  0.50000  0.10230  Biso   1.000  C
  C90      1.0000 0.46665  0.50000  0.32720  Biso   1.000  C
  C91      1.0000 0.47974  0.50000  0.24770  Biso   1.000  C
  C92      1.0000 0.41234  0.50000  0.43210  Biso   1.000  C
  C93      1.0000 0.37367  0.50000  0.45933  Biso   1.000  C
  C94      1.0000 0.42929  0.50000  0.35790  Biso   1.000  C
  C95      1.0000 0.39674  0.50000  0.29600  Biso   1.000  C
  C96      1.0000 0.33332  0.50000  0.16440  Biso   1.000  C
  N1       1.0000 0.93900  0.00000  0.50000  Biso   1.000  N
  N2       1.0000 0.43900  0.50000  0.50000  Biso   1.000  N
  N3       1.0000 0.06100  0.00000  0.50000  Biso   1.000  N
  N4       1.0000 0.56100  0.50000  0.50000  Biso   1.000  N
  N5       1.0000 0.00000  0.00000  0.62120  Biso   1.000  N
  N6       1.0000 0.50000  0.50000  0.62120  Biso   1.000  N
  N7       1.0000 0.00000  0.00000  0.37880  Biso   1.000  N
  N8       1.0000 0.50000  0.50000  0.37880  Biso   1.000  N
  In1      1.0000 0.75000  0.25000  0.00000  Biso   1.000  In
  In2      1.0000 0.25000  0.75000  0.00000  Biso   1.000  In
  In3      1.0000 0.25000  0.25000  0.00000  Biso   1.000  In
  In4      1.0000 0.75000  0.75000  0.00000  Biso   1.000  In
  O17      1.0000 0.73080  0.00000  0.00000  Biso   1.000  O
  O18      1.0000 0.23080  0.50000  0.00000  Biso   1.000  O
  O19      1.0000 0.26920  0.00000  0.00000  Biso   1.000  O
  O20      1.0000 0.76920  0.50000  0.00000  Biso   1.000  O
