data_image0
_cell_length_a       32.9509
_cell_length_b       6.699
_cell_length_c       16.5555
_cell_angle_alpha    90
_cell_angle_beta     90
_cell_angle_gamma    90

_symmetry_space_group_name_H-M    "P 1"
_symmetry_int_tables_number       1

loop_
  _symmetry_equiv_pos_as_xyz
  'x, y, z'

loop_
  _atom_site_label
  _atom_site_occupancy
  _atom_site_fract_x
  _atom_site_fract_y
  _atom_site_fract_z
  _atom_site_thermal_displace_type
  _atom_site_B_iso_or_equiv
  _atom_site_type_symbol
  O1       1.0000 0.79064  0.18810  0.91350  Biso   1.000  O
  C1       1.0000 0.88308  0.17530  0.75100  Biso   1.000  C
  C2       1.0000 0.85132  0.17070  0.80770  Biso   1.000  C
  O2       1.0000 0.29064  0.68810  0.91350  Biso   1.000  O
  C3       1.0000 0.38308  0.67530  0.75100  Biso   1.000  C
  C4       1.0000 0.35132  0.67070  0.80770  Biso   1.000  C
  O3       1.0000 0.20936  0.81190  0.91350  Biso   1.000  O
  C5       1.0000 0.11692  0.82470  0.75100  Biso   1.000  C
  C6       1.0000 0.14868  0.82930  0.80770  Biso   1.000  C
  O4       1.0000 0.70936  0.31190  0.91350  Biso   1.000  O
  C7       1.0000 0.61692  0.32470  0.75100  Biso   1.000  C
  C8       1.0000 0.64868  0.32930  0.80770  Biso   1.000  C
  O5       1.0000 0.20936  0.18810  0.08650  Biso   1.000  O
  C9       1.0000 0.11692  0.17530  0.24900  Biso   1.000  C
  C10      1.0000 0.14868  0.17070  0.19230  Biso   1.000  C
  O6       1.0000 0.70936  0.68810  0.08650  Biso   1.000  O
  C11      1.0000 0.61692  0.67530  0.24900  Biso   1.000  C
  C12      1.0000 0.64868  0.67070  0.19230  Biso   1.000  C
  O7       1.0000 0.79064  0.81190  0.08650  Biso   1.000  O
  C13      1.0000 0.88308  0.82470  0.24900  Biso   1.000  C
  C14      1.0000 0.85132  0.82930  0.19230  Biso   1.000  C
  O8       1.0000 0.29064  0.31190  0.08650  Biso   1.000  O
  C15      1.0000 0.38308  0.32470  0.24900  Biso   1.000  C
  C16      1.0000 0.35132  0.32930  0.19230  Biso   1.000  C
  O9       1.0000 0.20936  0.81190  0.08650  Biso   1.000  O
  C17      1.0000 0.11692  0.82470  0.24900  Biso   1.000  C
  C18      1.0000 0.14868  0.82930  0.19230  Biso   1.000  C
  O10      1.0000 0.70936  0.31190  0.08650  Biso   1.000  O
  C19      1.0000 0.61692  0.32470  0.24900  Biso   1.000  C
  C20      1.0000 0.64868  0.32930  0.19230  Biso   1.000  C
  O11      1.0000 0.79064  0.18810  0.08650  Biso   1.000  O
  C21      1.0000 0.88308  0.17530  0.24900  Biso   1.000  C
  C22      1.0000 0.85132  0.17070  0.19230  Biso   1.000  C
  O12      1.0000 0.29064  0.68810  0.08650  Biso   1.000  O
  C23      1.0000 0.38308  0.67530  0.24900  Biso   1.000  C
  C24      1.0000 0.35132  0.67070  0.19230  Biso   1.000  C
  O13      1.0000 0.79064  0.81190  0.91350  Biso   1.000  O
  C25      1.0000 0.88308  0.82470  0.75100  Biso   1.000  C
  C26      1.0000 0.85132  0.82930  0.80770  Biso   1.000  C
  O14      1.0000 0.29064  0.31190  0.91350  Biso   1.000  O
  C27      1.0000 0.38308  0.32470  0.75100  Biso   1.000  C
  C28      1.0000 0.35132  0.32930  0.80770  Biso   1.000  C
  O15      1.0000 0.20936  0.18810  0.91350  Biso   1.000  O
  C29      1.0000 0.11692  0.17530  0.75100  Biso   1.000  C
  C30      1.0000 0.14868  0.17070  0.80770  Biso   1.000  C
  O16      1.0000 0.70936  0.68810  0.91350  Biso   1.000  O
  C31      1.0000 0.61692  0.67530  0.75100  Biso   1.000  C
  C32      1.0000 0.64868  0.67070  0.80770  Biso   1.000  C
  C33      1.0000 0.96847  0.00000  0.66980  Biso   1.000  C
  C34      1.0000 0.97954  0.00000  0.75330  Biso   1.000  C
  C35      1.0000 0.91475  0.00000  0.56700  Biso   1.000  C
  C36      1.0000 0.87680  0.00000  0.53980  Biso   1.000  C
  C37      1.0000 0.92947  0.00000  0.64470  Biso   1.000  C
  C38      1.0000 0.90040  0.00000  0.71550  Biso   1.000  C
  C39      1.0000 0.83349  0.00000  0.84110  Biso   1.000  C
  C40      1.0000 0.79910  0.00000  0.90690  Biso   1.000  C
  C41      1.0000 0.46847  0.50000  0.66980  Biso   1.000  C
  C42      1.0000 0.47954  0.50000  0.75330  Biso   1.000  C
  C43      1.0000 0.41475  0.50000  0.56700  Biso   1.000  C
  C44      1.0000 0.37680  0.50000  0.53980  Biso   1.000  C
  C45      1.0000 0.42947  0.50000  0.64470  Biso   1.000  C
  C46      1.0000 0.40040  0.50000  0.71550  Biso   1.000  C
  C47      1.0000 0.33349  0.50000  0.84110  Biso   1.000  C
  C48      1.0000 0.29910  0.50000  0.90690  Biso   1.000  C
  C49      1.0000 0.03153  0.00000  0.66980  Biso   1.000  C
  C50      1.0000 0.02046  0.00000  0.75330  Biso   1.000  C
  C51      1.0000 0.08525  0.00000  0.56700  Biso   1.000  C
  C52      1.0000 0.12320  0.00000  0.53980  Biso   1.000  C
  C53      1.0000 0.07053  0.00000  0.64470  Biso   1.000  C
  C54      1.0000 0.09960  0.00000  0.71550  Biso   1.000  C
  C55      1.0000 0.16651  0.00000  0.84110  Biso   1.000  C
  C56      1.0000 0.20090  0.00000  0.90690  Biso   1.000  C
  C57      1.0000 0.53153  0.50000  0.66980  Biso   1.000  C
  C58      1.0000 0.52046  0.50000  0.75330  Biso   1.000  C
  C59      1.0000 0.58525  0.50000  0.56700  Biso   1.000  C
  C60      1.0000 0.62320  0.50000  0.53980  Biso   1.000  C
  C61      1.0000 0.57053  0.50000  0.64470  Biso   1.000  C
  C62      1.0000 0.59960  0.50000  0.71550  Biso   1.000  C
  C63      1.0000 0.66651  0.50000  0.84110  Biso   1.000  C
  C64      1.0000 0.70090  0.50000  0.90690  Biso   1.000  C
  C65      1.0000 0.03153  0.00000  0.33020  Biso   1.000  C
  C66      1.0000 0.02046  0.00000  0.24670  Biso   1.000  C
  C67      1.0000 0.08525  0.00000  0.43300  Biso   1.000  C
  C68      1.0000 0.12320  0.00000  0.46020  Biso   1.000  C
  C69      1.0000 0.07053  0.00000  0.35530  Biso   1.000  C
  C70      1.0000 0.09960  0.00000  0.28450  Biso   1.000  C
  C71      1.0000 0.16651  0.00000  0.15890  Biso   1.000  C
  C72      1.0000 0.20090  0.00000  0.09310  Biso   1.000  C
  C73      1.0000 0.53153  0.50000  0.33020  Biso   1.000  C
  C74      1.0000 0.52046  0.50000  0.24670  Biso   1.000  C
  C75      1.0000 0.58525  0.50000  0.43300  Biso   1.000  C
  C76      1.0000 0.62320  0.50000  0.46020  Biso   1.000  C
  C77      1.0000 0.57053  0.50000  0.35530  Biso   1.000  C
  C78      1.0000 0.59960  0.50000  0.28450  Biso   1.000  C
  C79      1.0000 0.66651  0.50000  0.15890  Biso   1.000  C
  C80      1.0000 0.70090  0.50000  0.09310  Biso   1.000  C
  C81      1.0000 0.96847  0.00000  0.33020  Biso   1.000  C
  C82      1.0000 0.97954  0.00000  0.24670  Biso   1.000  C
  C83      1.0000 0.91475  0.00000  0.43300  Biso   1.000  C
  C84      1.0000 0.87680  0.00000  0.46020  Biso   1.000  C
  C85      1.0000 0.92947  0.00000  0.35530  Biso   1.000  C
  C86      1.0000 0.90040  0.00000  0.28450  Biso   1.000  C
  C87      1.0000 0.83349  0.00000  0.15890  Biso   1.000  C
  C88      1.0000 0.79910  0.00000  0.09310  Biso   1.000  C
  C89      1.0000 0.46847  0.50000  0.33020  Biso   1.000  C
  C90      1.0000 0.47954  0.50000  0.24670  Biso   1.000  C
  C91      1.0000 0.41475  0.50000  0.43300  Biso   1.000  C
  C92      1.0000 0.37680  0.50000  0.46020  Biso   1.000  C
  C93      1.0000 0.42947  0.50000  0.35530  Biso   1.000  C
  C94      1.0000 0.40040  0.50000  0.28450  Biso   1.000  C
  C95      1.0000 0.33349  0.50000  0.15890  Biso   1.000  C
  C96      1.0000 0.29910  0.50000  0.09310  Biso   1.000  C
  N1       1.0000 0.00000  0.00000  0.61720  Biso   1.000  N
  N2       1.0000 0.50000  0.50000  0.61720  Biso   1.000  N
  N3       1.0000 0.00000  0.00000  0.38280  Biso   1.000  N
  N4       1.0000 0.50000  0.50000  0.38280  Biso   1.000  N
  N5       1.0000 0.93850  0.00000  0.50000  Biso   1.000  N
  N6       1.0000 0.43850  0.50000  0.50000  Biso   1.000  N
  N7       1.0000 0.06150  0.00000  0.50000  Biso   1.000  N
  N8       1.0000 0.56150  0.50000  0.50000  Biso   1.000  N
  Ga1      1.0000 0.75000  0.25000  0.00000  Biso   1.000  Ga
  Ga2      1.0000 0.25000  0.75000  0.00000  Biso   1.000  Ga
  Ga3      1.0000 0.25000  0.25000  0.00000  Biso   1.000  Ga
  Ga4      1.0000 0.75000  0.75000  0.00000  Biso   1.000  Ga
  O17      1.0000 0.72650  0.00000  0.00000  Biso   1.000  O
  O18      1.0000 0.22650  0.50000  0.00000  Biso   1.000  O
  O19      1.0000 0.27350  0.00000  0.00000  Biso   1.000  O
  O20      1.0000 0.77350  0.50000  0.00000  Biso   1.000  O
