data_OTAVOV_clean
_audit_creation_date              2014-07-02
_audit_creation_method            'Materials Studio'
_symmetry_space_group_name_H-M    'P1'
_symmetry_Int_Tables_number       1
_symmetry_cell_setting            triclinic
loop_
_symmetry_equiv_pos_as_xyz
  x,y,z
_cell_length_a                    10.1390
_cell_length_b                    17.8040
_cell_length_c                    20.0100
_cell_angle_alpha                 90.0000
_cell_angle_beta                  90.0000
_cell_angle_gamma                 90.0000
loop_
_atom_site_label
_atom_site_type_symbol
_atom_site_fract_x
_atom_site_fract_y
_atom_site_fract_z
_atom_site_U_iso_or_equiv
_atom_site_adp_type
_atom_site_occupancy
La1    La    0.96939   0.75000   0.75000   0.01267  Uiso   1.00
La2    La    0.53061   0.25000   0.25000   0.01267  Uiso   1.00
La3    La    0.03061   0.25000   0.25000   0.01267  Uiso   1.00
La4    La    0.46939   0.75000   0.75000   0.01267  Uiso   1.00
H1     H     0.04980   0.94020   0.68340   0.01267  Uiso   1.00
H2     H     0.37440   0.86510   0.53710   0.01267  Uiso   1.00
H3     H     0.80610   0.94070   0.49200   0.01267  Uiso   1.00
H4     H     0.12650   0.00490   0.59070   0.01267  Uiso   1.00
H5     H     0.02860   0.75390   0.55860   0.01267  Uiso   1.00
H6     H     0.31880   0.88560   0.42540   0.01267  Uiso   1.00
H7     H     0.73830   0.87330   0.58230   0.01267  Uiso   1.00
H8     H     0.12470   0.83920   0.38270   0.01267  Uiso   1.00
H9     H     0.98330   0.77420   0.44700   0.01267  Uiso   1.00
H10    H     0.04980   0.55980   0.81660   0.01267  Uiso   1.00
H11    H     0.37440   0.63490   0.96290   0.01267  Uiso   1.00
H12    H     0.80610   0.55930   0.00800   0.01267  Uiso   1.00
H13    H     0.12650   0.49510   0.90930   0.01267  Uiso   1.00
H14    H     0.02860   0.74610   0.94140   0.01267  Uiso   1.00
H15    H     0.31880   0.61440   0.07460   0.01267  Uiso   1.00
H16    H     0.73830   0.62670   0.91770   0.01267  Uiso   1.00
H17    H     0.12470   0.66080   0.11730   0.01267  Uiso   1.00
H18    H     0.98330   0.72580   0.05300   0.01267  Uiso   1.00
H19    H     0.45020   0.05980   0.18340   0.01267  Uiso   1.00
H20    H     0.12560   0.13490   0.03710   0.01267  Uiso   1.00
H21    H     0.69390   0.05930   0.99200   0.01267  Uiso   1.00
H22    H     0.37350   0.99510   0.09070   0.01267  Uiso   1.00
H23    H     0.47140   0.24610   0.05860   0.01267  Uiso   1.00
H24    H     0.18120   0.11440   0.92540   0.01267  Uiso   1.00
H25    H     0.76170   0.12670   0.08230   0.01267  Uiso   1.00
H26    H     0.37530   0.16080   0.88270   0.01267  Uiso   1.00
H27    H     0.51670   0.22580   0.94700   0.01267  Uiso   1.00
H28    H     0.45020   0.44020   0.31660   0.01267  Uiso   1.00
H29    H     0.12560   0.36510   0.46290   0.01267  Uiso   1.00
H30    H     0.69390   0.44070   0.50800   0.01267  Uiso   1.00
H31    H     0.37350   0.50490   0.40930   0.01267  Uiso   1.00
H32    H     0.47140   0.25390   0.44140   0.01267  Uiso   1.00
H33    H     0.18120   0.38560   0.57460   0.01267  Uiso   1.00
H34    H     0.76170   0.37330   0.41770   0.01267  Uiso   1.00
H35    H     0.37530   0.33920   0.61730   0.01267  Uiso   1.00
H36    H     0.51670   0.27420   0.55300   0.01267  Uiso   1.00
H37    H     0.95020   0.05980   0.31660   0.01267  Uiso   1.00
H38    H     0.62560   0.13490   0.46290   0.01267  Uiso   1.00
H39    H     0.19390   0.05930   0.50800   0.01267  Uiso   1.00
H40    H     0.87350   0.99510   0.40930   0.01267  Uiso   1.00
H41    H     0.97140   0.24610   0.44140   0.01267  Uiso   1.00
H42    H     0.68120   0.11440   0.57460   0.01267  Uiso   1.00
H43    H     0.26170   0.12670   0.41770   0.01267  Uiso   1.00
H44    H     0.87530   0.16080   0.61730   0.01267  Uiso   1.00
H45    H     0.01670   0.22580   0.55300   0.01267  Uiso   1.00
H46    H     0.95020   0.44020   0.18340   0.01267  Uiso   1.00
H47    H     0.62560   0.36510   0.03710   0.01267  Uiso   1.00
H48    H     0.19390   0.44070   0.99200   0.01267  Uiso   1.00
H49    H     0.87350   0.50490   0.09070   0.01267  Uiso   1.00
H50    H     0.97140   0.25390   0.05860   0.01267  Uiso   1.00
H51    H     0.68120   0.38560   0.92540   0.01267  Uiso   1.00
H52    H     0.26170   0.37330   0.08230   0.01267  Uiso   1.00
H53    H     0.87530   0.33920   0.88270   0.01267  Uiso   1.00
H54    H     0.01670   0.27420   0.94700   0.01267  Uiso   1.00
H55    H     0.54980   0.94020   0.81660   0.01267  Uiso   1.00
H56    H     0.87440   0.86510   0.96290   0.01267  Uiso   1.00
H57    H     0.30610   0.94070   0.00800   0.01267  Uiso   1.00
H58    H     0.62650   0.00490   0.90930   0.01267  Uiso   1.00
H59    H     0.52860   0.75390   0.94140   0.01267  Uiso   1.00
H60    H     0.81880   0.88560   0.07460   0.01267  Uiso   1.00
H61    H     0.23830   0.87330   0.91770   0.01267  Uiso   1.00
H62    H     0.62470   0.83920   0.11730   0.01267  Uiso   1.00
H63    H     0.48330   0.77420   0.05300   0.01267  Uiso   1.00
H64    H     0.54980   0.55980   0.68340   0.01267  Uiso   1.00
H65    H     0.87440   0.63490   0.53710   0.01267  Uiso   1.00
H66    H     0.30610   0.55930   0.49200   0.01267  Uiso   1.00
H67    H     0.62650   0.49510   0.59070   0.01267  Uiso   1.00
H68    H     0.52860   0.74610   0.55860   0.01267  Uiso   1.00
H69    H     0.81880   0.61440   0.42540   0.01267  Uiso   1.00
H70    H     0.23830   0.62670   0.58230   0.01267  Uiso   1.00
H71    H     0.62470   0.66080   0.38270   0.01267  Uiso   1.00
H72    H     0.48330   0.72580   0.44700   0.01267  Uiso   1.00
C1     C     0.20750   0.80770   0.55940   0.01267  Uiso   1.00
C2     C     0.00190   0.93930   0.64380   0.01267  Uiso   1.00
C3     C     0.29540   0.84710   0.51970   0.01267  Uiso   1.00
C4     C     0.97590   0.97890   0.52930   0.01267  Uiso   1.00
C5     C     0.85870   0.93990   0.53010   0.01267  Uiso   1.00
C6     C     0.04740   0.97860   0.58820   0.01267  Uiso   1.00
C7     C     0.08800   0.78020   0.53200   0.01267  Uiso   1.00
C8     C     0.26200   0.85880   0.45300   0.01267  Uiso   1.00
C9     C     0.81670   0.90030   0.58410   0.01267  Uiso   1.00
C10    C     0.14510   0.83100   0.42740   0.01267  Uiso   1.00
C11    C     0.06100   0.79260   0.46550   0.01267  Uiso   1.00
C12    C     0.23560   0.79720   0.63280   0.01267  Uiso   1.00
C13    C     0.20750   0.69230   0.94060   0.01267  Uiso   1.00
C14    C     0.00190   0.56070   0.85620   0.01267  Uiso   1.00
C15    C     0.29540   0.65290   0.98030   0.01267  Uiso   1.00
C16    C     0.97590   0.52110   0.97070   0.01267  Uiso   1.00
C17    C     0.85870   0.56010   0.96990   0.01267  Uiso   1.00
C18    C     0.04740   0.52140   0.91180   0.01267  Uiso   1.00
C19    C     0.08800   0.71980   0.96800   0.01267  Uiso   1.00
C20    C     0.26200   0.64120   0.04700   0.01267  Uiso   1.00
C21    C     0.81670   0.59970   0.91590   0.01267  Uiso   1.00
C22    C     0.14510   0.66900   0.07260   0.01267  Uiso   1.00
C23    C     0.06100   0.70740   0.03450   0.01267  Uiso   1.00
C24    C     0.23560   0.70280   0.86720   0.01267  Uiso   1.00
C25    C     0.29250   0.19230   0.05940   0.01267  Uiso   1.00
C26    C     0.49810   0.06070   0.14380   0.01267  Uiso   1.00
C27    C     0.20460   0.15290   0.01970   0.01267  Uiso   1.00
C28    C     0.52410   0.02110   0.02930   0.01267  Uiso   1.00
C29    C     0.64130   0.06010   0.03010   0.01267  Uiso   1.00
C30    C     0.45260   0.02140   0.08820   0.01267  Uiso   1.00
C31    C     0.41200   0.21980   0.03200   0.01267  Uiso   1.00
C32    C     0.23800   0.14120   0.95300   0.01267  Uiso   1.00
C33    C     0.68330   0.09970   0.08410   0.01267  Uiso   1.00
C34    C     0.35490   0.16900   0.92740   0.01267  Uiso   1.00
C35    C     0.43900   0.20740   0.96550   0.01267  Uiso   1.00
C36    C     0.26440   0.20280   0.13280   0.01267  Uiso   1.00
C37    C     0.29250   0.30770   0.44060   0.01267  Uiso   1.00
C38    C     0.49810   0.43930   0.35620   0.01267  Uiso   1.00
C39    C     0.20460   0.34710   0.48030   0.01267  Uiso   1.00
C40    C     0.52410   0.47890   0.47070   0.01267  Uiso   1.00
C41    C     0.64130   0.43990   0.46990   0.01267  Uiso   1.00
C42    C     0.45260   0.47860   0.41180   0.01267  Uiso   1.00
C43    C     0.41200   0.28020   0.46800   0.01267  Uiso   1.00
C44    C     0.23800   0.35880   0.54700   0.01267  Uiso   1.00
C45    C     0.68330   0.40030   0.41590   0.01267  Uiso   1.00
C46    C     0.35490   0.33100   0.57260   0.01267  Uiso   1.00
C47    C     0.43900   0.29260   0.53450   0.01267  Uiso   1.00
C48    C     0.26440   0.29720   0.36720   0.01267  Uiso   1.00
C49    C     0.79250   0.19230   0.44060   0.01267  Uiso   1.00
C50    C     0.99810   0.06070   0.35620   0.01267  Uiso   1.00
C51    C     0.70460   0.15290   0.48030   0.01267  Uiso   1.00
C52    C     0.02410   0.02110   0.47070   0.01267  Uiso   1.00
C53    C     0.14130   0.06010   0.46990   0.01267  Uiso   1.00
C54    C     0.95260   0.02140   0.41180   0.01267  Uiso   1.00
C55    C     0.91200   0.21980   0.46800   0.01267  Uiso   1.00
C56    C     0.73800   0.14120   0.54700   0.01267  Uiso   1.00
C57    C     0.18330   0.09970   0.41590   0.01267  Uiso   1.00
C58    C     0.85490   0.16900   0.57260   0.01267  Uiso   1.00
C59    C     0.93900   0.20740   0.53450   0.01267  Uiso   1.00
C60    C     0.76440   0.20280   0.36720   0.01267  Uiso   1.00
C61    C     0.79250   0.30770   0.05940   0.01267  Uiso   1.00
C62    C     0.99810   0.43930   0.14380   0.01267  Uiso   1.00
C63    C     0.70460   0.34710   0.01970   0.01267  Uiso   1.00
C64    C     0.02410   0.47890   0.02930   0.01267  Uiso   1.00
C65    C     0.14130   0.43990   0.03010   0.01267  Uiso   1.00
C66    C     0.95260   0.47860   0.08820   0.01267  Uiso   1.00
C67    C     0.91200   0.28020   0.03200   0.01267  Uiso   1.00
C68    C     0.73800   0.35880   0.95300   0.01267  Uiso   1.00
C69    C     0.18330   0.40030   0.08410   0.01267  Uiso   1.00
C70    C     0.85490   0.33100   0.92740   0.01267  Uiso   1.00
C71    C     0.93900   0.29260   0.96550   0.01267  Uiso   1.00
C72    C     0.76440   0.29720   0.13280   0.01267  Uiso   1.00
C73    C     0.70750   0.80770   0.94060   0.01267  Uiso   1.00
C74    C     0.50190   0.93930   0.85620   0.01267  Uiso   1.00
C75    C     0.79540   0.84710   0.98030   0.01267  Uiso   1.00
C76    C     0.47590   0.97890   0.97070   0.01267  Uiso   1.00
C77    C     0.35870   0.93990   0.96990   0.01267  Uiso   1.00
C78    C     0.54740   0.97860   0.91180   0.01267  Uiso   1.00
C79    C     0.58800   0.78020   0.96800   0.01267  Uiso   1.00
C80    C     0.76200   0.85880   0.04700   0.01267  Uiso   1.00
C81    C     0.31670   0.90030   0.91590   0.01267  Uiso   1.00
C82    C     0.64510   0.83100   0.07260   0.01267  Uiso   1.00
C83    C     0.56100   0.79260   0.03450   0.01267  Uiso   1.00
C84    C     0.73560   0.79720   0.86720   0.01267  Uiso   1.00
C85    C     0.70750   0.69230   0.55940   0.01267  Uiso   1.00
C86    C     0.50190   0.56070   0.64380   0.01267  Uiso   1.00
C87    C     0.79540   0.65290   0.51970   0.01267  Uiso   1.00
C88    C     0.47590   0.52110   0.52930   0.01267  Uiso   1.00
C89    C     0.35870   0.56010   0.53010   0.01267  Uiso   1.00
C90    C     0.54740   0.52140   0.58820   0.01267  Uiso   1.00
C91    C     0.58800   0.71980   0.53200   0.01267  Uiso   1.00
C92    C     0.76200   0.64120   0.45300   0.01267  Uiso   1.00
C93    C     0.31670   0.59970   0.58410   0.01267  Uiso   1.00
C94    C     0.64510   0.66900   0.42740   0.01267  Uiso   1.00
C95    C     0.56100   0.70740   0.46550   0.01267  Uiso   1.00
C96    C     0.73560   0.70280   0.63280   0.01267  Uiso   1.00
N1     N     0.89020   0.90060   0.64030   0.01267  Uiso   1.00
N2     N     0.89020   0.59940   0.85970   0.01267  Uiso   1.00
N3     N     0.60980   0.09940   0.14030   0.01267  Uiso   1.00
N4     N     0.60980   0.40060   0.35970   0.01267  Uiso   1.00
N5     N     0.10980   0.09940   0.35970   0.01267  Uiso   1.00
N6     N     0.10980   0.40060   0.14030   0.01267  Uiso   1.00
N7     N     0.39020   0.90060   0.85970   0.01267  Uiso   1.00
N8     N     0.39020   0.59940   0.64030   0.01267  Uiso   1.00
O1     O     0.85170   0.85970   0.69310   0.01267  Uiso   1.00
O2     O     0.13730   0.78160   0.66980   0.01267  Uiso   1.00
O3     O     0.35160   0.80440   0.65190   0.01267  Uiso   1.00
O4     O     0.85170   0.64030   0.80690   0.01267  Uiso   1.00
O5     O     0.13730   0.71840   0.83020   0.01267  Uiso   1.00
O6     O     0.35160   0.69560   0.84810   0.01267  Uiso   1.00
O7     O     0.64830   0.14030   0.19310   0.01267  Uiso   1.00
O8     O     0.36270   0.21840   0.16980   0.01267  Uiso   1.00
O9     O     0.14840   0.19560   0.15190   0.01267  Uiso   1.00
O10    O     0.64830   0.35970   0.30690   0.01267  Uiso   1.00
O11    O     0.36270   0.28160   0.33020   0.01267  Uiso   1.00
O12    O     0.14840   0.30440   0.34810   0.01267  Uiso   1.00
O13    O     0.14830   0.14030   0.30690   0.01267  Uiso   1.00
O14    O     0.86270   0.21840   0.33020   0.01267  Uiso   1.00
O15    O     0.64840   0.19560   0.34810   0.01267  Uiso   1.00
O16    O     0.14830   0.35970   0.19310   0.01267  Uiso   1.00
O17    O     0.86270   0.28160   0.16980   0.01267  Uiso   1.00
O18    O     0.64840   0.30440   0.15190   0.01267  Uiso   1.00
O19    O     0.35170   0.85970   0.80690   0.01267  Uiso   1.00
O20    O     0.63730   0.78160   0.83020   0.01267  Uiso   1.00
O21    O     0.85160   0.80440   0.84810   0.01267  Uiso   1.00
O22    O     0.35170   0.64030   0.69310   0.01267  Uiso   1.00
O23    O     0.63730   0.71840   0.66980   0.01267  Uiso   1.00
O24    O     0.85160   0.69560   0.65190   0.01267  Uiso   1.00
