data_image0
_cell_length_a       28.6626
_cell_length_b       10.6905
_cell_length_c       28.2321
_cell_angle_alpha    90
_cell_angle_beta     111.522
_cell_angle_gamma    90

_symmetry_space_group_name_H-M    "P 1"
_symmetry_int_tables_number       1

loop_
  _symmetry_equiv_pos_as_xyz
  'x, y, z'

loop_
  _atom_site_label
  _atom_site_occupancy
  _atom_site_fract_x
  _atom_site_fract_y
  _atom_site_fract_z
  _atom_site_thermal_displace_type
  _atom_site_B_iso_or_equiv
  _atom_site_type_symbol
  Zn1      1.0000 0.10915  0.22393  0.48011  Biso   1.000  Zn
  O1       1.0000 0.15929  0.21220  0.55316  Biso   1.000  O
  N1       1.0000 0.27907  0.37380  0.80858  Biso   1.000  N
  N2       1.0000 0.14711  0.66470  0.94628  Biso   1.000  N
  C1       1.0000 0.19971  0.53960  0.89500  Biso   1.000  C
  C2       1.0000 0.22714  0.48000  0.86550  Biso   1.000  C
  C3       1.0000 0.30255  0.39770  0.85838  Biso   1.000  C
  O2       1.0000 0.10797  0.37150  0.54225  Biso   1.000  O
  C4       1.0000 0.23025  0.40370  0.78658  Biso   1.000  C
  C5       1.0000 0.27821  0.44980  0.88801  Biso   1.000  C
  H1       1.0000 0.29560  0.46450  0.92250  Biso   1.000  H
  C6       1.0000 0.35681  0.36810  0.87985  Biso   1.000  C
  C7       1.0000 0.20703  0.37710  0.73111  Biso   1.000  C
  O3       1.0000 0.54234  0.34890  0.97732  Biso   1.000  O
  C8       1.0000 0.20321  0.45430  0.81363  Biso   1.000  C
  H2       1.0000 0.16920  0.47110  0.79740  Biso   1.000  H
  C9       1.0000 0.14293  0.30190  0.57033  Biso   1.000  C
  C10      1.0000 0.16487  0.32910  0.62664  Biso   1.000  C
  C11      1.0000 0.44062  0.40660  0.94103  Biso   1.000  C
  H3       1.0000 0.46200  0.44960  0.96930  Biso   1.000  H
  C12      1.0000 0.38926  0.43310  0.92172  Biso   1.000  C
  H4       1.0000 0.37670  0.49470  0.93700  Biso   1.000  H
  C13      1.0000 0.45948  0.31680  0.91812  Biso   1.000  C
  O4       1.0000 0.53319  0.21670  0.91720  Biso   1.000  O
  C14      1.0000 0.37605  0.27630  0.85731  Biso   1.000  C
  H5       1.0000 0.35480  0.23200  0.82940  Biso   1.000  H
  C15      1.0000 0.20576  0.26120  0.65752  Biso   1.000  C
  H6       1.0000 0.21920  0.19890  0.64340  Biso   1.000  H
  C16      1.0000 0.16541  0.44360  0.70025  Biso   1.000  C
  H7       1.0000 0.15090  0.50360  0.71440  Biso   1.000  H
  C17      1.0000 0.14520  0.42040  0.64778  Biso   1.000  C
  H8       1.0000 0.11810  0.46750  0.62710  Biso   1.000  H
  C18      1.0000 0.22687  0.28490  0.70924  Biso   1.000  C
  H9       1.0000 0.25450  0.23880  0.72950  Biso   1.000  H
  C19      1.0000 0.42688  0.25090  0.87660  Biso   1.000  C
  H10      1.0000 0.43950  0.18870  0.86150  Biso   1.000  H
  C20      1.0000 0.51501  0.29100  0.93820  Biso   1.000  C
  C21      1.0000 0.22217  0.59650  0.93880  Biso   1.000  C
  H11      1.0000 0.25700  0.59970  0.95290  Biso   1.000  H
  C22      1.0000 0.19347  0.65270  0.96420  Biso   1.000  C
  H12      1.0000 0.21050  0.68310  0.99690  Biso   1.000  H
  C23      1.0000 0.12359  0.58920  0.90660  Biso   1.000  C
  H13      1.0000 0.08890  0.58200  0.89590  Biso   1.000  H
  C24      1.0000 0.14758  0.52220  0.88090  Biso   1.000  C
  H14      1.0000 0.13010  0.46700  0.85500  Biso   1.000  H
  Zn2      1.0000 0.60915  0.72393  0.48011  Biso   1.000  Zn
  O5       1.0000 0.65929  0.71220  0.55316  Biso   1.000  O
  N3       1.0000 0.77907  0.87380  0.80858  Biso   1.000  N
  N4       1.0000 0.64711  0.16470  0.94628  Biso   1.000  N
  C25      1.0000 0.69971  0.03960  0.89500  Biso   1.000  C
  C26      1.0000 0.72714  0.98000  0.86550  Biso   1.000  C
  C27      1.0000 0.80255  0.89770  0.85838  Biso   1.000  C
  O6       1.0000 0.60797  0.87150  0.54225  Biso   1.000  O
  C28      1.0000 0.73025  0.90370  0.78658  Biso   1.000  C
  C29      1.0000 0.77821  0.94980  0.88801  Biso   1.000  C
  H15      1.0000 0.79560  0.96450  0.92250  Biso   1.000  H
  C30      1.0000 0.85681  0.86810  0.87985  Biso   1.000  C
  C31      1.0000 0.70703  0.87710  0.73111  Biso   1.000  C
  O7       1.0000 0.04234  0.84890  0.97732  Biso   1.000  O
  C32      1.0000 0.70321  0.95430  0.81363  Biso   1.000  C
  H16      1.0000 0.66920  0.97110  0.79740  Biso   1.000  H
  C33      1.0000 0.64293  0.80190  0.57033  Biso   1.000  C
  C34      1.0000 0.66487  0.82910  0.62664  Biso   1.000  C
  C35      1.0000 0.94062  0.90660  0.94103  Biso   1.000  C
  H17      1.0000 0.96200  0.94960  0.96930  Biso   1.000  H
  C36      1.0000 0.88926  0.93310  0.92172  Biso   1.000  C
  H18      1.0000 0.87670  0.99470  0.93700  Biso   1.000  H
  C37      1.0000 0.95948  0.81680  0.91812  Biso   1.000  C
  O8       1.0000 0.03319  0.71670  0.91720  Biso   1.000  O
  C38      1.0000 0.87605  0.77630  0.85731  Biso   1.000  C
  H19      1.0000 0.85480  0.73200  0.82940  Biso   1.000  H
  C39      1.0000 0.70576  0.76120  0.65752  Biso   1.000  C
  H20      1.0000 0.71920  0.69890  0.64340  Biso   1.000  H
  C40      1.0000 0.66541  0.94360  0.70025  Biso   1.000  C
  H21      1.0000 0.65090  0.00360  0.71440  Biso   1.000  H
  C41      1.0000 0.64520  0.92040  0.64778  Biso   1.000  C
  H22      1.0000 0.61810  0.96750  0.62710  Biso   1.000  H
  C42      1.0000 0.72687  0.78490  0.70924  Biso   1.000  C
  H23      1.0000 0.75450  0.73880  0.72950  Biso   1.000  H
  C43      1.0000 0.92688  0.75090  0.87660  Biso   1.000  C
  H24      1.0000 0.93950  0.68870  0.86150  Biso   1.000  H
  C44      1.0000 0.01501  0.79100  0.93820  Biso   1.000  C
  C45      1.0000 0.72217  0.09650  0.93880  Biso   1.000  C
  H25      1.0000 0.75700  0.09970  0.95290  Biso   1.000  H
  C46      1.0000 0.69347  0.15270  0.96420  Biso   1.000  C
  H26      1.0000 0.71050  0.18310  0.99690  Biso   1.000  H
  C47      1.0000 0.62359  0.08920  0.90660  Biso   1.000  C
  H27      1.0000 0.58890  0.08200  0.89590  Biso   1.000  H
  C48      1.0000 0.64758  0.02220  0.88090  Biso   1.000  C
  H28      1.0000 0.63010  0.96700  0.85500  Biso   1.000  H
  Zn3      1.0000 0.10915  0.77607  0.98011  Biso   1.000  Zn
  O9       1.0000 0.15929  0.78780  0.05316  Biso   1.000  O
  N5       1.0000 0.27907  0.62620  0.30858  Biso   1.000  N
  N6       1.0000 0.14711  0.33530  0.44628  Biso   1.000  N
  C49      1.0000 0.19971  0.46040  0.39500  Biso   1.000  C
  C50      1.0000 0.22714  0.52000  0.36550  Biso   1.000  C
  C51      1.0000 0.30255  0.60230  0.35838  Biso   1.000  C
  O10      1.0000 0.10797  0.62850  0.04225  Biso   1.000  O
  C52      1.0000 0.23025  0.59630  0.28658  Biso   1.000  C
  C53      1.0000 0.27821  0.55020  0.38801  Biso   1.000  C
  H29      1.0000 0.29560  0.53550  0.42250  Biso   1.000  H
  C54      1.0000 0.35681  0.63190  0.37985  Biso   1.000  C
  C55      1.0000 0.20703  0.62290  0.23111  Biso   1.000  C
  O11      1.0000 0.54234  0.65110  0.47732  Biso   1.000  O
  C56      1.0000 0.20321  0.54570  0.31363  Biso   1.000  C
  H30      1.0000 0.16920  0.52890  0.29740  Biso   1.000  H
  C57      1.0000 0.14293  0.69810  0.07033  Biso   1.000  C
  C58      1.0000 0.16487  0.67090  0.12664  Biso   1.000  C
  C59      1.0000 0.44062  0.59340  0.44103  Biso   1.000  C
  H31      1.0000 0.46200  0.55040  0.46930  Biso   1.000  H
  C60      1.0000 0.38926  0.56690  0.42172  Biso   1.000  C
  H32      1.0000 0.37670  0.50530  0.43700  Biso   1.000  H
  C61      1.0000 0.45948  0.68320  0.41812  Biso   1.000  C
  O12      1.0000 0.53319  0.78330  0.41720  Biso   1.000  O
  C62      1.0000 0.37605  0.72370  0.35731  Biso   1.000  C
  H33      1.0000 0.35480  0.76800  0.32940  Biso   1.000  H
  C63      1.0000 0.20576  0.73880  0.15752  Biso   1.000  C
  H34      1.0000 0.21920  0.80110  0.14340  Biso   1.000  H
  C64      1.0000 0.16541  0.55640  0.20025  Biso   1.000  C
  H35      1.0000 0.15090  0.49640  0.21440  Biso   1.000  H
  C65      1.0000 0.14520  0.57960  0.14778  Biso   1.000  C
  H36      1.0000 0.11810  0.53250  0.12710  Biso   1.000  H
  C66      1.0000 0.22687  0.71510  0.20924  Biso   1.000  C
  H37      1.0000 0.25450  0.76120  0.22950  Biso   1.000  H
  C67      1.0000 0.42688  0.74910  0.37660  Biso   1.000  C
  H38      1.0000 0.43950  0.81130  0.36150  Biso   1.000  H
  C68      1.0000 0.51501  0.70900  0.43820  Biso   1.000  C
  C69      1.0000 0.22217  0.40350  0.43880  Biso   1.000  C
  H39      1.0000 0.25700  0.40030  0.45290  Biso   1.000  H
  C70      1.0000 0.19347  0.34730  0.46420  Biso   1.000  C
  H40      1.0000 0.21050  0.31690  0.49690  Biso   1.000  H
  C71      1.0000 0.12359  0.41080  0.40660  Biso   1.000  C
  H41      1.0000 0.08890  0.41800  0.39590  Biso   1.000  H
  C72      1.0000 0.14758  0.47780  0.38090  Biso   1.000  C
  H42      1.0000 0.13010  0.53300  0.35500  Biso   1.000  H
  Zn4      1.0000 0.60915  0.27607  0.98011  Biso   1.000  Zn
  O13      1.0000 0.65929  0.28780  0.05316  Biso   1.000  O
  N7       1.0000 0.77907  0.12620  0.30858  Biso   1.000  N
  N8       1.0000 0.64711  0.83530  0.44628  Biso   1.000  N
  C73      1.0000 0.69971  0.96040  0.39500  Biso   1.000  C
  C74      1.0000 0.72714  0.02000  0.36550  Biso   1.000  C
  C75      1.0000 0.80255  0.10230  0.35838  Biso   1.000  C
  O14      1.0000 0.60797  0.12850  0.04225  Biso   1.000  O
  C76      1.0000 0.73025  0.09630  0.28658  Biso   1.000  C
  C77      1.0000 0.77821  0.05020  0.38801  Biso   1.000  C
  H43      1.0000 0.79560  0.03550  0.42250  Biso   1.000  H
  C78      1.0000 0.85681  0.13190  0.37985  Biso   1.000  C
  C79      1.0000 0.70703  0.12290  0.23111  Biso   1.000  C
  O15      1.0000 0.04234  0.15110  0.47732  Biso   1.000  O
  C80      1.0000 0.70321  0.04570  0.31363  Biso   1.000  C
  H44      1.0000 0.66920  0.02890  0.29740  Biso   1.000  H
  C81      1.0000 0.64293  0.19810  0.07033  Biso   1.000  C
  C82      1.0000 0.66487  0.17090  0.12664  Biso   1.000  C
  C83      1.0000 0.94062  0.09340  0.44103  Biso   1.000  C
  H45      1.0000 0.96200  0.05040  0.46930  Biso   1.000  H
  C84      1.0000 0.88926  0.06690  0.42172  Biso   1.000  C
  H46      1.0000 0.87670  0.00530  0.43700  Biso   1.000  H
  C85      1.0000 0.95948  0.18320  0.41812  Biso   1.000  C
  O16      1.0000 0.03319  0.28330  0.41720  Biso   1.000  O
  C86      1.0000 0.87605  0.22370  0.35731  Biso   1.000  C
  H47      1.0000 0.85480  0.26800  0.32940  Biso   1.000  H
  C87      1.0000 0.70576  0.23880  0.15752  Biso   1.000  C
  H48      1.0000 0.71920  0.30110  0.14340  Biso   1.000  H
  C88      1.0000 0.66541  0.05640  0.20025  Biso   1.000  C
  H49      1.0000 0.65090  0.99640  0.21440  Biso   1.000  H
  C89      1.0000 0.64520  0.07960  0.14778  Biso   1.000  C
  H50      1.0000 0.61810  0.03250  0.12710  Biso   1.000  H
  C90      1.0000 0.72687  0.21510  0.20924  Biso   1.000  C
  H51      1.0000 0.75450  0.26120  0.22950  Biso   1.000  H
  C91      1.0000 0.92688  0.24910  0.37660  Biso   1.000  C
  H52      1.0000 0.93950  0.31130  0.36150  Biso   1.000  H
  C92      1.0000 0.01501  0.20900  0.43820  Biso   1.000  C
  C93      1.0000 0.72217  0.90350  0.43880  Biso   1.000  C
  H53      1.0000 0.75700  0.90030  0.45290  Biso   1.000  H
  C94      1.0000 0.69347  0.84730  0.46420  Biso   1.000  C
  H54      1.0000 0.71050  0.81690  0.49690  Biso   1.000  H
  C95      1.0000 0.62359  0.91080  0.40660  Biso   1.000  C
  H55      1.0000 0.58890  0.91800  0.39590  Biso   1.000  H
  C96      1.0000 0.64758  0.97780  0.38090  Biso   1.000  C
  H56      1.0000 0.63010  0.03300  0.35500  Biso   1.000  H
  Zn5      1.0000 0.89085  0.22393  0.01989  Biso   1.000  Zn
  O17      1.0000 0.84071  0.21220  0.94684  Biso   1.000  O
  N9       1.0000 0.72093  0.37380  0.69142  Biso   1.000  N
  N10      1.0000 0.85289  0.66470  0.55372  Biso   1.000  N
  C97      1.0000 0.80029  0.53960  0.60500  Biso   1.000  C
  C98      1.0000 0.77286  0.48000  0.63450  Biso   1.000  C
  C99      1.0000 0.69745  0.39770  0.64162  Biso   1.000  C
  O18      1.0000 0.89203  0.37150  0.95775  Biso   1.000  O
  C100     1.0000 0.76975  0.40370  0.71342  Biso   1.000  C
  C101     1.0000 0.72179  0.44980  0.61199  Biso   1.000  C
  H57      1.0000 0.70440  0.46450  0.57750  Biso   1.000  H
  C102     1.0000 0.64319  0.36810  0.62015  Biso   1.000  C
  C103     1.0000 0.79297  0.37710  0.76889  Biso   1.000  C
  O19      1.0000 0.45766  0.34890  0.52268  Biso   1.000  O
  C104     1.0000 0.79679  0.45430  0.68637  Biso   1.000  C
  H58      1.0000 0.83080  0.47110  0.70260  Biso   1.000  H
  C105     1.0000 0.85707  0.30190  0.92967  Biso   1.000  C
  C106     1.0000 0.83513  0.32910  0.87336  Biso   1.000  C
  C107     1.0000 0.55938  0.40660  0.55897  Biso   1.000  C
  H59      1.0000 0.53800  0.44960  0.53070  Biso   1.000  H
  C108     1.0000 0.61074  0.43310  0.57828  Biso   1.000  C
  H60      1.0000 0.62330  0.49470  0.56300  Biso   1.000  H
  C109     1.0000 0.54052  0.31680  0.58188  Biso   1.000  C
  O20      1.0000 0.46681  0.21670  0.58280  Biso   1.000  O
  C110     1.0000 0.62395  0.27630  0.64269  Biso   1.000  C
  H61      1.0000 0.64520  0.23200  0.67060  Biso   1.000  H
  C111     1.0000 0.79424  0.26120  0.84248  Biso   1.000  C
  H62      1.0000 0.78080  0.19890  0.85660  Biso   1.000  H
  C112     1.0000 0.83459  0.44360  0.79975  Biso   1.000  C
  H63      1.0000 0.84910  0.50360  0.78560  Biso   1.000  H
  C113     1.0000 0.85480  0.42040  0.85222  Biso   1.000  C
  H64      1.0000 0.88190  0.46750  0.87290  Biso   1.000  H
  C114     1.0000 0.77313  0.28490  0.79076  Biso   1.000  C
  H65      1.0000 0.74550  0.23880  0.77050  Biso   1.000  H
  C115     1.0000 0.57312  0.25090  0.62340  Biso   1.000  C
  H66      1.0000 0.56050  0.18870  0.63850  Biso   1.000  H
  C116     1.0000 0.48499  0.29100  0.56180  Biso   1.000  C
  C117     1.0000 0.77783  0.59650  0.56120  Biso   1.000  C
  H67      1.0000 0.74300  0.59970  0.54710  Biso   1.000  H
  C118     1.0000 0.80653  0.65270  0.53580  Biso   1.000  C
  H68      1.0000 0.78950  0.68310  0.50310  Biso   1.000  H
  C119     1.0000 0.87641  0.58920  0.59340  Biso   1.000  C
  H69      1.0000 0.91110  0.58200  0.60410  Biso   1.000  H
  C120     1.0000 0.85242  0.52220  0.61910  Biso   1.000  C
  H70      1.0000 0.86990  0.46700  0.64500  Biso   1.000  H
  Zn6      1.0000 0.39085  0.72393  0.01989  Biso   1.000  Zn
  O21      1.0000 0.34071  0.71220  0.94684  Biso   1.000  O
  N11      1.0000 0.22093  0.87380  0.69142  Biso   1.000  N
  N12      1.0000 0.35289  0.16470  0.55372  Biso   1.000  N
  C121     1.0000 0.30029  0.03960  0.60500  Biso   1.000  C
  C122     1.0000 0.27286  0.98000  0.63450  Biso   1.000  C
  C123     1.0000 0.19745  0.89770  0.64162  Biso   1.000  C
  O22      1.0000 0.39203  0.87150  0.95775  Biso   1.000  O
  C124     1.0000 0.26975  0.90370  0.71342  Biso   1.000  C
  C125     1.0000 0.22179  0.94980  0.61199  Biso   1.000  C
  H71      1.0000 0.20440  0.96450  0.57750  Biso   1.000  H
  C126     1.0000 0.14319  0.86810  0.62015  Biso   1.000  C
  C127     1.0000 0.29297  0.87710  0.76889  Biso   1.000  C
  O23      1.0000 0.95766  0.84890  0.52268  Biso   1.000  O
  C128     1.0000 0.29679  0.95430  0.68637  Biso   1.000  C
  H72      1.0000 0.33080  0.97110  0.70260  Biso   1.000  H
  C129     1.0000 0.35707  0.80190  0.92967  Biso   1.000  C
  C130     1.0000 0.33513  0.82910  0.87336  Biso   1.000  C
  C131     1.0000 0.05938  0.90660  0.55897  Biso   1.000  C
  H73      1.0000 0.03800  0.94960  0.53070  Biso   1.000  H
  C132     1.0000 0.11074  0.93310  0.57828  Biso   1.000  C
  H74      1.0000 0.12330  0.99470  0.56300  Biso   1.000  H
  C133     1.0000 0.04052  0.81680  0.58188  Biso   1.000  C
  O24      1.0000 0.96681  0.71670  0.58280  Biso   1.000  O
  C134     1.0000 0.12395  0.77630  0.64269  Biso   1.000  C
  H75      1.0000 0.14520  0.73200  0.67060  Biso   1.000  H
  C135     1.0000 0.29424  0.76120  0.84248  Biso   1.000  C
  H76      1.0000 0.28080  0.69890  0.85660  Biso   1.000  H
  C136     1.0000 0.33459  0.94360  0.79975  Biso   1.000  C
  H77      1.0000 0.34910  0.00360  0.78560  Biso   1.000  H
  C137     1.0000 0.35480  0.92040  0.85222  Biso   1.000  C
  H78      1.0000 0.38190  0.96750  0.87290  Biso   1.000  H
  C138     1.0000 0.27313  0.78490  0.79076  Biso   1.000  C
  H79      1.0000 0.24550  0.73880  0.77050  Biso   1.000  H
  C139     1.0000 0.07312  0.75090  0.62340  Biso   1.000  C
  H80      1.0000 0.06050  0.68870  0.63850  Biso   1.000  H
  C140     1.0000 0.98499  0.79100  0.56180  Biso   1.000  C
  C141     1.0000 0.27783  0.09650  0.56120  Biso   1.000  C
  H81      1.0000 0.24300  0.09970  0.54710  Biso   1.000  H
  C142     1.0000 0.30653  0.15270  0.53580  Biso   1.000  C
  H82      1.0000 0.28950  0.18310  0.50310  Biso   1.000  H
  C143     1.0000 0.37641  0.08920  0.59340  Biso   1.000  C
  H83      1.0000 0.41110  0.08200  0.60410  Biso   1.000  H
  C144     1.0000 0.35242  0.02220  0.61910  Biso   1.000  C
  H84      1.0000 0.36990  0.96700  0.64500  Biso   1.000  H
  Zn7      1.0000 0.89085  0.77607  0.51989  Biso   1.000  Zn
  O25      1.0000 0.84071  0.78780  0.44684  Biso   1.000  O
  N13      1.0000 0.72093  0.62620  0.19142  Biso   1.000  N
  N14      1.0000 0.85289  0.33530  0.05372  Biso   1.000  N
  C145     1.0000 0.80029  0.46040  0.10500  Biso   1.000  C
  C146     1.0000 0.77286  0.52000  0.13450  Biso   1.000  C
  C147     1.0000 0.69745  0.60230  0.14162  Biso   1.000  C
  O26      1.0000 0.89203  0.62850  0.45775  Biso   1.000  O
  C148     1.0000 0.76975  0.59630  0.21342  Biso   1.000  C
  C149     1.0000 0.72179  0.55020  0.11199  Biso   1.000  C
  H85      1.0000 0.70440  0.53550  0.07750  Biso   1.000  H
  C150     1.0000 0.64319  0.63190  0.12015  Biso   1.000  C
  C151     1.0000 0.79297  0.62290  0.26889  Biso   1.000  C
  O27      1.0000 0.45766  0.65110  0.02268  Biso   1.000  O
  C152     1.0000 0.79679  0.54570  0.18637  Biso   1.000  C
  H86      1.0000 0.83080  0.52890  0.20260  Biso   1.000  H
  C153     1.0000 0.85707  0.69810  0.42967  Biso   1.000  C
  C154     1.0000 0.83513  0.67090  0.37336  Biso   1.000  C
  C155     1.0000 0.55938  0.59340  0.05897  Biso   1.000  C
  H87      1.0000 0.53800  0.55040  0.03070  Biso   1.000  H
  C156     1.0000 0.61074  0.56690  0.07828  Biso   1.000  C
  H88      1.0000 0.62330  0.50530  0.06300  Biso   1.000  H
  C157     1.0000 0.54052  0.68320  0.08188  Biso   1.000  C
  O28      1.0000 0.46681  0.78330  0.08280  Biso   1.000  O
  C158     1.0000 0.62395  0.72370  0.14269  Biso   1.000  C
  H89      1.0000 0.64520  0.76800  0.17060  Biso   1.000  H
  C159     1.0000 0.79424  0.73880  0.34248  Biso   1.000  C
  H90      1.0000 0.78080  0.80110  0.35660  Biso   1.000  H
  C160     1.0000 0.83459  0.55640  0.29975  Biso   1.000  C
  H91      1.0000 0.84910  0.49640  0.28560  Biso   1.000  H
  C161     1.0000 0.85480  0.57960  0.35222  Biso   1.000  C
  H92      1.0000 0.88190  0.53250  0.37290  Biso   1.000  H
  C162     1.0000 0.77313  0.71510  0.29076  Biso   1.000  C
  H93      1.0000 0.74550  0.76120  0.27050  Biso   1.000  H
  C163     1.0000 0.57312  0.74910  0.12340  Biso   1.000  C
  H94      1.0000 0.56050  0.81130  0.13850  Biso   1.000  H
  C164     1.0000 0.48499  0.70900  0.06180  Biso   1.000  C
  C165     1.0000 0.77783  0.40350  0.06120  Biso   1.000  C
  H95      1.0000 0.74300  0.40030  0.04710  Biso   1.000  H
  C166     1.0000 0.80653  0.34730  0.03580  Biso   1.000  C
  H96      1.0000 0.78950  0.31690  0.00310  Biso   1.000  H
  C167     1.0000 0.87641  0.41080  0.09340  Biso   1.000  C
  H97      1.0000 0.91110  0.41800  0.10410  Biso   1.000  H
  C168     1.0000 0.85242  0.47780  0.11910  Biso   1.000  C
  H98      1.0000 0.86990  0.53300  0.14500  Biso   1.000  H
  Zn8      1.0000 0.39085  0.27607  0.51989  Biso   1.000  Zn
  O29      1.0000 0.34071  0.28780  0.44684  Biso   1.000  O
  N15      1.0000 0.22093  0.12620  0.19142  Biso   1.000  N
  N16      1.0000 0.35289  0.83530  0.05372  Biso   1.000  N
  C169     1.0000 0.30029  0.96040  0.10500  Biso   1.000  C
  C170     1.0000 0.27286  0.02000  0.13450  Biso   1.000  C
  C171     1.0000 0.19745  0.10230  0.14162  Biso   1.000  C
  O30      1.0000 0.39203  0.12850  0.45775  Biso   1.000  O
  C172     1.0000 0.26975  0.09630  0.21342  Biso   1.000  C
  C173     1.0000 0.22179  0.05020  0.11199  Biso   1.000  C
  H99      1.0000 0.20440  0.03550  0.07750  Biso   1.000  H
  C174     1.0000 0.14319  0.13190  0.12015  Biso   1.000  C
  C175     1.0000 0.29297  0.12290  0.26889  Biso   1.000  C
  O31      1.0000 0.95766  0.15110  0.02268  Biso   1.000  O
  C176     1.0000 0.29679  0.04570  0.18637  Biso   1.000  C
  H100     1.0000 0.33080  0.02890  0.20260  Biso   1.000  H
  C177     1.0000 0.35707  0.19810  0.42967  Biso   1.000  C
  C178     1.0000 0.33513  0.17090  0.37336  Biso   1.000  C
  C179     1.0000 0.05938  0.09340  0.05897  Biso   1.000  C
  H101     1.0000 0.03800  0.05040  0.03070  Biso   1.000  H
  C180     1.0000 0.11074  0.06690  0.07828  Biso   1.000  C
  H102     1.0000 0.12330  0.00530  0.06300  Biso   1.000  H
  C181     1.0000 0.04052  0.18320  0.08188  Biso   1.000  C
  O32      1.0000 0.96681  0.28330  0.08280  Biso   1.000  O
  C182     1.0000 0.12395  0.22370  0.14269  Biso   1.000  C
  H103     1.0000 0.14520  0.26800  0.17060  Biso   1.000  H
  C183     1.0000 0.29424  0.23880  0.34248  Biso   1.000  C
  H104     1.0000 0.28080  0.30110  0.35660  Biso   1.000  H
  C184     1.0000 0.33459  0.05640  0.29975  Biso   1.000  C
  H105     1.0000 0.34910  0.99640  0.28560  Biso   1.000  H
  C185     1.0000 0.35480  0.07960  0.35222  Biso   1.000  C
  H106     1.0000 0.38190  0.03250  0.37290  Biso   1.000  H
  C186     1.0000 0.27313  0.21510  0.29076  Biso   1.000  C
  H107     1.0000 0.24550  0.26120  0.27050  Biso   1.000  H
  C187     1.0000 0.07312  0.24910  0.12340  Biso   1.000  C
  H108     1.0000 0.06050  0.31130  0.13850  Biso   1.000  H
  C188     1.0000 0.98499  0.20900  0.06180  Biso   1.000  C
  C189     1.0000 0.27783  0.90350  0.06120  Biso   1.000  C
  H109     1.0000 0.24300  0.90030  0.04710  Biso   1.000  H
  C190     1.0000 0.30653  0.84730  0.03580  Biso   1.000  C
  H110     1.0000 0.28950  0.81690  0.00310  Biso   1.000  H
  C191     1.0000 0.37641  0.91080  0.09340  Biso   1.000  C
  H111     1.0000 0.41110  0.91800  0.10410  Biso   1.000  H
  C192     1.0000 0.35242  0.97780  0.11910  Biso   1.000  C
  H112     1.0000 0.36990  0.03300  0.14500  Biso   1.000  H
