data_image0
_cell_length_a       15.5097
_cell_length_b       15.5097
_cell_length_c       12.3197
_cell_angle_alpha    90
_cell_angle_beta     90
_cell_angle_gamma    90

_symmetry_space_group_name_H-M    "P 1"
_symmetry_int_tables_number       1

loop_
  _symmetry_equiv_pos_as_xyz
  'x, y, z'

loop_
  _atom_site_label
  _atom_site_occupancy
  _atom_site_fract_x
  _atom_site_fract_y
  _atom_site_fract_z
  _atom_site_thermal_displace_type
  _atom_site_B_iso_or_equiv
  _atom_site_type_symbol
  O1       1.0000 0.61266  0.38321  0.61447  Biso   1.000  O
  O2       1.0000 0.59174  0.29299  0.75728  Biso   1.000  O
  C1       1.0000 0.58679  0.36123  0.70627  Biso   1.000  C
  C2       1.0000 0.53618  0.43098  0.76877  Biso   1.000  C
  C3       1.0000 0.52791  0.42723  0.88193  Biso   1.000  C
  H1       1.0000 0.54118  0.37258  0.91603  Biso   1.000  H
  O3       1.0000 0.11266  0.88321  0.11447  Biso   1.000  O
  O4       1.0000 0.09174  0.79299  0.25728  Biso   1.000  O
  C4       1.0000 0.08679  0.86123  0.20627  Biso   1.000  C
  C5       1.0000 0.03618  0.93098  0.26877  Biso   1.000  C
  C6       1.0000 0.02791  0.92723  0.38193  Biso   1.000  C
  H2       1.0000 0.04118  0.87258  0.41603  Biso   1.000  H
  O5       1.0000 0.88734  0.11679  0.11447  Biso   1.000  O
  O6       1.0000 0.90826  0.20701  0.25728  Biso   1.000  O
  C7       1.0000 0.91321  0.13877  0.20627  Biso   1.000  C
  C8       1.0000 0.96382  0.06902  0.26877  Biso   1.000  C
  C9       1.0000 0.97209  0.07277  0.38193  Biso   1.000  C
  H3       1.0000 0.95882  0.12742  0.41603  Biso   1.000  H
  O7       1.0000 0.38734  0.61679  0.61447  Biso   1.000  O
  O8       1.0000 0.40826  0.70701  0.75728  Biso   1.000  O
  C10      1.0000 0.41321  0.63877  0.70627  Biso   1.000  C
  C11      1.0000 0.46382  0.56902  0.76877  Biso   1.000  C
  C12      1.0000 0.47209  0.57277  0.88193  Biso   1.000  C
  H4       1.0000 0.45882  0.62742  0.91603  Biso   1.000  H
  O9       1.0000 0.61679  0.11266  0.86447  Biso   1.000  O
  O10      1.0000 0.70701  0.09174  0.00728  Biso   1.000  O
  C13      1.0000 0.63877  0.08679  0.95627  Biso   1.000  C
  C14      1.0000 0.56902  0.03618  0.01877  Biso   1.000  C
  C15      1.0000 0.57277  0.02791  0.13193  Biso   1.000  C
  H5       1.0000 0.62742  0.04118  0.16603  Biso   1.000  H
  O11      1.0000 0.11679  0.61266  0.36447  Biso   1.000  O
  O12      1.0000 0.20701  0.59174  0.50728  Biso   1.000  O
  C16      1.0000 0.13877  0.58679  0.45627  Biso   1.000  C
  C17      1.0000 0.06902  0.53618  0.51877  Biso   1.000  C
  C18      1.0000 0.07277  0.52791  0.63193  Biso   1.000  C
  H6       1.0000 0.12742  0.54118  0.66603  Biso   1.000  H
  O13      1.0000 0.88321  0.38734  0.36447  Biso   1.000  O
  O14      1.0000 0.79299  0.40826  0.50728  Biso   1.000  O
  C19      1.0000 0.86123  0.41321  0.45627  Biso   1.000  C
  C20      1.0000 0.93098  0.46382  0.51877  Biso   1.000  C
  C21      1.0000 0.92723  0.47209  0.63193  Biso   1.000  C
  H7       1.0000 0.87258  0.45882  0.66603  Biso   1.000  H
  O15      1.0000 0.38321  0.88734  0.86447  Biso   1.000  O
  O16      1.0000 0.29299  0.90826  0.00728  Biso   1.000  O
  C22      1.0000 0.36123  0.91321  0.95627  Biso   1.000  C
  C23      1.0000 0.43098  0.96382  0.01877  Biso   1.000  C
  C24      1.0000 0.42723  0.97209  0.13193  Biso   1.000  C
  H8       1.0000 0.37258  0.95882  0.16603  Biso   1.000  H
  O17      1.0000 0.88734  0.38321  0.13553  Biso   1.000  O
  O18      1.0000 0.90826  0.29299  0.99272  Biso   1.000  O
  C25      1.0000 0.91321  0.36123  0.04373  Biso   1.000  C
  C26      1.0000 0.96382  0.43098  0.98123  Biso   1.000  C
  C27      1.0000 0.97209  0.42723  0.86807  Biso   1.000  C
  H9       1.0000 0.95882  0.37258  0.83397  Biso   1.000  H
  O19      1.0000 0.38734  0.88321  0.63553  Biso   1.000  O
  O20      1.0000 0.40826  0.79299  0.49272  Biso   1.000  O
  C28      1.0000 0.41321  0.86123  0.54373  Biso   1.000  C
  C29      1.0000 0.46382  0.93098  0.48123  Biso   1.000  C
  C30      1.0000 0.47209  0.92723  0.36807  Biso   1.000  C
  H10      1.0000 0.45882  0.87258  0.33397  Biso   1.000  H
  O21      1.0000 0.61266  0.11679  0.63553  Biso   1.000  O
  O22      1.0000 0.59174  0.20701  0.49272  Biso   1.000  O
  C31      1.0000 0.58679  0.13877  0.54373  Biso   1.000  C
  C32      1.0000 0.53618  0.06902  0.48123  Biso   1.000  C
  C33      1.0000 0.52791  0.07277  0.36807  Biso   1.000  C
  H11      1.0000 0.54118  0.12742  0.33397  Biso   1.000  H
  O23      1.0000 0.11266  0.61679  0.13553  Biso   1.000  O
  O24      1.0000 0.09174  0.70701  0.99272  Biso   1.000  O
  C34      1.0000 0.08679  0.63877  0.04373  Biso   1.000  C
  C35      1.0000 0.03618  0.56902  0.98123  Biso   1.000  C
  C36      1.0000 0.02791  0.57277  0.86807  Biso   1.000  C
  H12      1.0000 0.04118  0.62742  0.83397  Biso   1.000  H
  O25      1.0000 0.88321  0.11266  0.88553  Biso   1.000  O
  O26      1.0000 0.79299  0.09174  0.74272  Biso   1.000  O
  C37      1.0000 0.86123  0.08679  0.79373  Biso   1.000  C
  C38      1.0000 0.93098  0.03618  0.73123  Biso   1.000  C
  C39      1.0000 0.92723  0.02791  0.61807  Biso   1.000  C
  H13      1.0000 0.87258  0.04118  0.58397  Biso   1.000  H
  O27      1.0000 0.38321  0.61266  0.38553  Biso   1.000  O
  O28      1.0000 0.29299  0.59174  0.24272  Biso   1.000  O
  C40      1.0000 0.36123  0.58679  0.29373  Biso   1.000  C
  C41      1.0000 0.43098  0.53618  0.23123  Biso   1.000  C
  C42      1.0000 0.42723  0.52791  0.11807  Biso   1.000  C
  H14      1.0000 0.37258  0.54118  0.08397  Biso   1.000  H
  O29      1.0000 0.61679  0.38734  0.38553  Biso   1.000  O
  O30      1.0000 0.70701  0.40826  0.24272  Biso   1.000  O
  C43      1.0000 0.63877  0.41321  0.29373  Biso   1.000  C
  C44      1.0000 0.56902  0.46382  0.23123  Biso   1.000  C
  C45      1.0000 0.57277  0.47209  0.11807  Biso   1.000  C
  H15      1.0000 0.62742  0.45882  0.08397  Biso   1.000  H
  O31      1.0000 0.11679  0.88734  0.88553  Biso   1.000  O
  O32      1.0000 0.20701  0.90826  0.74272  Biso   1.000  O
  C46      1.0000 0.13877  0.91321  0.79373  Biso   1.000  C
  C47      1.0000 0.06902  0.96382  0.73123  Biso   1.000  C
  C48      1.0000 0.07277  0.97209  0.61807  Biso   1.000  C
  H16      1.0000 0.12742  0.95882  0.58397  Biso   1.000  H
  In1      1.0000 0.68809  0.31191  0.50000  Biso   1.000  In
  In2      1.0000 0.18809  0.81191  0.00000  Biso   1.000  In
  In3      1.0000 0.81191  0.18809  0.00000  Biso   1.000  In
  In4      1.0000 0.31191  0.68809  0.50000  Biso   1.000  In
  In5      1.0000 0.68809  0.18809  0.75000  Biso   1.000  In
  In6      1.0000 0.18809  0.68809  0.25000  Biso   1.000  In
  In7      1.0000 0.81191  0.31191  0.25000  Biso   1.000  In
  In8      1.0000 0.31191  0.81191  0.75000  Biso   1.000  In
  O33      1.0000 0.75815  0.25000  0.62500  Biso   1.000  O
  H17      1.0000 0.81264  0.25000  0.62500  Biso   1.000  H
  O34      1.0000 0.25815  0.75000  0.12500  Biso   1.000  O
  H18      1.0000 0.31264  0.75000  0.12500  Biso   1.000  H
  O35      1.0000 0.74185  0.25000  0.12500  Biso   1.000  O
  H19      1.0000 0.68736  0.25000  0.12500  Biso   1.000  H
  O36      1.0000 0.24185  0.75000  0.62500  Biso   1.000  O
  H20      1.0000 0.18736  0.75000  0.62500  Biso   1.000  H
  O37      1.0000 0.75000  0.25815  0.87500  Biso   1.000  O
  H21      1.0000 0.75000  0.31264  0.87500  Biso   1.000  H
  O38      1.0000 0.25000  0.75815  0.37500  Biso   1.000  O
  H22      1.0000 0.25000  0.81264  0.37500  Biso   1.000  H
  O39      1.0000 0.75000  0.24185  0.37500  Biso   1.000  O
  H23      1.0000 0.75000  0.18736  0.37500  Biso   1.000  H
  O40      1.0000 0.25000  0.74185  0.87500  Biso   1.000  O
  H24      1.0000 0.25000  0.68736  0.87500  Biso   1.000  H
  C49      1.0000 0.50000  0.50000  0.71164  Biso   1.000  C
  C50      1.0000 0.50000  0.50000  0.93959  Biso   1.000  C
  H25      1.0000 0.50000  0.50000  0.63078  Biso   1.000  H
  C51      1.0000 0.00000  0.00000  0.21164  Biso   1.000  C
  C52      1.0000 0.00000  0.00000  0.43959  Biso   1.000  C
  H26      1.0000 0.00000  0.00000  0.13078  Biso   1.000  H
  C53      1.0000 0.50000  0.00000  0.96164  Biso   1.000  C
  C54      1.0000 0.50000  0.00000  0.18959  Biso   1.000  C
  H27      1.0000 0.50000  0.00000  0.88078  Biso   1.000  H
  C55      1.0000 0.00000  0.50000  0.46164  Biso   1.000  C
  C56      1.0000 0.00000  0.50000  0.68959  Biso   1.000  C
  H28      1.0000 0.00000  0.50000  0.38078  Biso   1.000  H
  C57      1.0000 0.00000  0.50000  0.03836  Biso   1.000  C
  C58      1.0000 0.00000  0.50000  0.81041  Biso   1.000  C
  H29      1.0000 0.00000  0.50000  0.11922  Biso   1.000  H
  C59      1.0000 0.50000  0.00000  0.53836  Biso   1.000  C
  C60      1.0000 0.50000  0.00000  0.31041  Biso   1.000  C
  H30      1.0000 0.50000  0.00000  0.61922  Biso   1.000  H
  C61      1.0000 0.00000  0.00000  0.78836  Biso   1.000  C
  C62      1.0000 0.00000  0.00000  0.56041  Biso   1.000  C
  H31      1.0000 0.00000  0.00000  0.86922  Biso   1.000  H
  C63      1.0000 0.50000  0.50000  0.28836  Biso   1.000  C
  C64      1.0000 0.50000  0.50000  0.06041  Biso   1.000  C
  H32      1.0000 0.50000  0.50000  0.36922  Biso   1.000  H
