data_image0
_cell_length_a       26.3296
_cell_length_b       26.3296
_cell_length_c       23.314
_cell_angle_alpha    90
_cell_angle_beta     90
_cell_angle_gamma    120

_symmetry_space_group_name_H-M    "P 1"
_symmetry_int_tables_number       1

loop_
  _symmetry_equiv_pos_as_xyz
  'x, y, z'

loop_
  _atom_site_label
  _atom_site_occupancy
  _atom_site_fract_x
  _atom_site_fract_y
  _atom_site_fract_z
  _atom_site_thermal_displace_type
  _atom_site_B_iso_or_equiv
  _atom_site_type_symbol
  Cr1      1.0000 0.35819  0.00745  0.33737  Biso   1.000  Cr
  Mn1      1.0000 0.59854  0.09557  0.32759  Biso   1.000  Mn
  O1       1.0000 0.67420  0.27334  0.26663  Biso   1.000  O
  O2       1.0000 0.61543  0.26560  0.36023  Biso   1.000  O
  O3       1.0000 0.65160  0.17993  0.27460  Biso   1.000  O
  O4       1.0000 0.59160  0.17260  0.37304  Biso   1.000  O
  C1       1.0000 0.64960  0.22320  0.29150  Biso   1.000  C
  C2       1.0000 0.61620  0.21860  0.34640  Biso   1.000  C
  O5       1.0000 0.51960  0.09960  0.27920  Biso   1.000  O
  O6       1.0000 0.51768  0.04805  0.38222  Biso   1.000  O
  O7       1.0000 0.42268  0.05660  0.28422  Biso   1.000  O
  O8       1.0000 0.42380  0.02106  0.38842  Biso   1.000  O
  C3       1.0000 0.47250  0.06910  0.30320  Biso   1.000  C
  C4       1.0000 0.47300  0.04410  0.36350  Biso   1.000  C
  O9       1.0000 0.29964  0.98900  0.27680  Biso   1.000  O
  O10      1.0000 0.35420  0.93533  0.30910  Biso   1.000  O
  O11      1.0000 0.31750  0.87080  0.23850  Biso   1.000  O
  O12      1.0000 0.26100  0.92850  0.20180  Biso   1.000  O
  C5       1.0000 0.32370  0.91420  0.26530  Biso   1.000  C
  C6       1.0000 0.29110  0.94620  0.24490  Biso   1.000  C
  O13      1.0000 0.35381  0.07648  0.36480  Biso   1.000  O
  O14      1.0000 0.29729  0.96700  0.39600  Biso   1.000  O
  O15      1.0000 0.30390  0.10006  0.42360  Biso   1.000  O
  O16      1.0000 0.24260  0.98510  0.45710  Biso   1.000  O
  C7       1.0000 0.31500  0.06460  0.40180  Biso   1.000  C
  C8       1.0000 0.28190  0.00040  0.42160  Biso   1.000  C
  Cr2      1.0000 0.02486  0.34078  0.67070  Biso   1.000  Cr
  Mn2      1.0000 0.26521  0.42890  0.66092  Biso   1.000  Mn
  O17      1.0000 0.34087  0.60667  0.59996  Biso   1.000  O
  O18      1.0000 0.28210  0.59893  0.69356  Biso   1.000  O
  O19      1.0000 0.31827  0.51326  0.60793  Biso   1.000  O
  O20      1.0000 0.25827  0.50593  0.70637  Biso   1.000  O
  C9       1.0000 0.31627  0.55653  0.62483  Biso   1.000  C
  C10      1.0000 0.28287  0.55193  0.67973  Biso   1.000  C
  O21      1.0000 0.18627  0.43293  0.61253  Biso   1.000  O
  O22      1.0000 0.18435  0.38138  0.71555  Biso   1.000  O
  O23      1.0000 0.08935  0.38993  0.61755  Biso   1.000  O
  O24      1.0000 0.09047  0.35439  0.72175  Biso   1.000  O
  C11      1.0000 0.13917  0.40243  0.63653  Biso   1.000  C
  C12      1.0000 0.13967  0.37743  0.69683  Biso   1.000  C
  O25      1.0000 0.96631  0.32233  0.61013  Biso   1.000  O
  O26      1.0000 0.02087  0.26866  0.64243  Biso   1.000  O
  O27      1.0000 0.98417  0.20413  0.57183  Biso   1.000  O
  O28      1.0000 0.92767  0.26183  0.53513  Biso   1.000  O
  C13      1.0000 0.99037  0.24753  0.59863  Biso   1.000  C
  C14      1.0000 0.95777  0.27953  0.57823  Biso   1.000  C
  O29      1.0000 0.02048  0.40981  0.69813  Biso   1.000  O
  O30      1.0000 0.96396  0.30033  0.72933  Biso   1.000  O
  O31      1.0000 0.97057  0.43339  0.75693  Biso   1.000  O
  O32      1.0000 0.90927  0.31843  0.79043  Biso   1.000  O
  C15      1.0000 0.98167  0.39793  0.73513  Biso   1.000  C
  C16      1.0000 0.94857  0.33373  0.75493  Biso   1.000  C
  Cr3      1.0000 0.69152  0.67412  0.00404  Biso   1.000  Cr
  Mn3      1.0000 0.93187  0.76224  0.99426  Biso   1.000  Mn
  O33      1.0000 0.00753  0.94001  0.93330  Biso   1.000  O
  O34      1.0000 0.94876  0.93227  0.02690  Biso   1.000  O
  O35      1.0000 0.98493  0.84660  0.94127  Biso   1.000  O
  O36      1.0000 0.92493  0.83927  0.03971  Biso   1.000  O
  C17      1.0000 0.98293  0.88987  0.95817  Biso   1.000  C
  C18      1.0000 0.94953  0.88527  0.01307  Biso   1.000  C
  O37      1.0000 0.85293  0.76627  0.94587  Biso   1.000  O
  O38      1.0000 0.85101  0.71472  0.04889  Biso   1.000  O
  O39      1.0000 0.75601  0.72327  0.95089  Biso   1.000  O
  O40      1.0000 0.75713  0.68773  0.05509  Biso   1.000  O
  C19      1.0000 0.80583  0.73577  0.96987  Biso   1.000  C
  C20      1.0000 0.80633  0.71077  0.03017  Biso   1.000  C
  O41      1.0000 0.63297  0.65567  0.94347  Biso   1.000  O
  O42      1.0000 0.68753  0.60200  0.97577  Biso   1.000  O
  O43      1.0000 0.65083  0.53747  0.90517  Biso   1.000  O
  O44      1.0000 0.59433  0.59517  0.86847  Biso   1.000  O
  C21      1.0000 0.65703  0.58087  0.93197  Biso   1.000  C
  C22      1.0000 0.62443  0.61287  0.91157  Biso   1.000  C
  O45      1.0000 0.68714  0.74315  0.03147  Biso   1.000  O
  O46      1.0000 0.63062  0.63367  0.06267  Biso   1.000  O
  O47      1.0000 0.63723  0.76673  0.09027  Biso   1.000  O
  O48      1.0000 0.57593  0.65177  0.12377  Biso   1.000  O
  C23      1.0000 0.64833  0.73127  0.06847  Biso   1.000  C
  C24      1.0000 0.61523  0.66707  0.08827  Biso   1.000  C
  Cr4      1.0000 0.99255  0.35074  0.33737  Biso   1.000  Cr
  Mn4      1.0000 0.90443  0.50297  0.32759  Biso   1.000  Mn
  O49      1.0000 0.72666  0.40086  0.26663  Biso   1.000  O
  O50      1.0000 0.73440  0.34983  0.36023  Biso   1.000  O
  O51      1.0000 0.82007  0.47167  0.27460  Biso   1.000  O
  O52      1.0000 0.82740  0.41900  0.37304  Biso   1.000  O
  C25      1.0000 0.77680  0.42640  0.29150  Biso   1.000  C
  C26      1.0000 0.78140  0.39760  0.34640  Biso   1.000  C
  O53      1.0000 0.90040  0.42000  0.27920  Biso   1.000  O
  O54      1.0000 0.95195  0.46963  0.38222  Biso   1.000  O
  O55      1.0000 0.94340  0.36608  0.28422  Biso   1.000  O
  O56      1.0000 0.97894  0.40274  0.38842  Biso   1.000  O
  C27      1.0000 0.93090  0.40340  0.30320  Biso   1.000  C
  C28      1.0000 0.95590  0.42890  0.36350  Biso   1.000  C
  O57      1.0000 0.01100  0.31064  0.27680  Biso   1.000  O
  O58      1.0000 0.06467  0.41887  0.30910  Biso   1.000  O
  O59      1.0000 0.12920  0.44670  0.23850  Biso   1.000  O
  O60      1.0000 0.07150  0.33250  0.20180  Biso   1.000  O
  C29      1.0000 0.08580  0.40950  0.26530  Biso   1.000  C
  C30      1.0000 0.05380  0.34490  0.24490  Biso   1.000  C
  O61      1.0000 0.92352  0.27733  0.36480  Biso   1.000  O
  O62      1.0000 0.03300  0.33029  0.39600  Biso   1.000  O
  O63      1.0000 0.89994  0.20384  0.42360  Biso   1.000  O
  O64      1.0000 0.01490  0.25750  0.45710  Biso   1.000  O
  C31      1.0000 0.93540  0.25040  0.40180  Biso   1.000  C
  C32      1.0000 0.99960  0.28150  0.42160  Biso   1.000  C
  Cr5      1.0000 0.65922  0.68407  0.67070  Biso   1.000  Cr
  Mn5      1.0000 0.57110  0.83630  0.66092  Biso   1.000  Mn
  O65      1.0000 0.39333  0.73419  0.59996  Biso   1.000  O
  O66      1.0000 0.40107  0.68316  0.69356  Biso   1.000  O
  O67      1.0000 0.48674  0.80500  0.60793  Biso   1.000  O
  O68      1.0000 0.49407  0.75233  0.70637  Biso   1.000  O
  C33      1.0000 0.44347  0.75973  0.62483  Biso   1.000  C
  C34      1.0000 0.44807  0.73093  0.67973  Biso   1.000  C
  O69      1.0000 0.56707  0.75333  0.61253  Biso   1.000  O
  O70      1.0000 0.61862  0.80296  0.71555  Biso   1.000  O
  O71      1.0000 0.61007  0.69941  0.61755  Biso   1.000  O
  O72      1.0000 0.64561  0.73607  0.72175  Biso   1.000  O
  C35      1.0000 0.59757  0.73673  0.63653  Biso   1.000  C
  C36      1.0000 0.62257  0.76223  0.69683  Biso   1.000  C
  O73      1.0000 0.67767  0.64397  0.61013  Biso   1.000  O
  O74      1.0000 0.73134  0.75220  0.64243  Biso   1.000  O
  O75      1.0000 0.79587  0.78003  0.57183  Biso   1.000  O
  O76      1.0000 0.73817  0.66583  0.53513  Biso   1.000  O
  C37      1.0000 0.75247  0.74283  0.59863  Biso   1.000  C
  C38      1.0000 0.72047  0.67823  0.57823  Biso   1.000  C
  O77      1.0000 0.59019  0.61066  0.69813  Biso   1.000  O
  O78      1.0000 0.69967  0.66362  0.72933  Biso   1.000  O
  O79      1.0000 0.56661  0.53717  0.75693  Biso   1.000  O
  O80      1.0000 0.68157  0.59083  0.79043  Biso   1.000  O
  C39      1.0000 0.60207  0.58373  0.73513  Biso   1.000  C
  C40      1.0000 0.66627  0.61483  0.75493  Biso   1.000  C
  Cr6      1.0000 0.32588  0.01741  0.00404  Biso   1.000  Cr
  Mn6      1.0000 0.23776  0.16964  0.99426  Biso   1.000  Mn
  O81      1.0000 0.05999  0.06753  0.93330  Biso   1.000  O
  O82      1.0000 0.06773  0.01650  0.02690  Biso   1.000  O
  O83      1.0000 0.15340  0.13834  0.94127  Biso   1.000  O
  O84      1.0000 0.16073  0.08567  0.03971  Biso   1.000  O
  C41      1.0000 0.11013  0.09307  0.95817  Biso   1.000  C
  C42      1.0000 0.11473  0.06427  0.01307  Biso   1.000  C
  O85      1.0000 0.23373  0.08667  0.94587  Biso   1.000  O
  O86      1.0000 0.28528  0.13630  0.04889  Biso   1.000  O
  O87      1.0000 0.27673  0.03275  0.95089  Biso   1.000  O
  O88      1.0000 0.31227  0.06941  0.05509  Biso   1.000  O
  C43      1.0000 0.26423  0.07007  0.96987  Biso   1.000  C
  C44      1.0000 0.28923  0.09557  0.03017  Biso   1.000  C
  O89      1.0000 0.34433  0.97731  0.94347  Biso   1.000  O
  O90      1.0000 0.39800  0.08554  0.97577  Biso   1.000  O
  O91      1.0000 0.46253  0.11337  0.90517  Biso   1.000  O
  O92      1.0000 0.40483  0.99917  0.86847  Biso   1.000  O
  C45      1.0000 0.41913  0.07617  0.93197  Biso   1.000  C
  C46      1.0000 0.38713  0.01157  0.91157  Biso   1.000  C
  O93      1.0000 0.25685  0.94400  0.03147  Biso   1.000  O
  O94      1.0000 0.36633  0.99696  0.06267  Biso   1.000  O
  O95      1.0000 0.23327  0.87051  0.09027  Biso   1.000  O
  O96      1.0000 0.34823  0.92417  0.12377  Biso   1.000  O
  C47      1.0000 0.26873  0.91707  0.06847  Biso   1.000  C
  C48      1.0000 0.33293  0.94817  0.08827  Biso   1.000  C
  Cr7      1.0000 0.64926  0.64181  0.33737  Biso   1.000  Cr
  Mn7      1.0000 0.49703  0.40146  0.32759  Biso   1.000  Mn
  O97      1.0000 0.59914  0.32580  0.26663  Biso   1.000  O
  O98      1.0000 0.65017  0.38457  0.36023  Biso   1.000  O
  O99      1.0000 0.52833  0.34840  0.27460  Biso   1.000  O
  O100     1.0000 0.58100  0.40840  0.37304  Biso   1.000  O
  C49      1.0000 0.57360  0.35040  0.29150  Biso   1.000  C
  C50      1.0000 0.60240  0.38380  0.34640  Biso   1.000  C
  O101     1.0000 0.58000  0.48040  0.27920  Biso   1.000  O
  O102     1.0000 0.53037  0.48232  0.38222  Biso   1.000  O
  O103     1.0000 0.63392  0.57732  0.28422  Biso   1.000  O
  O104     1.0000 0.59726  0.57620  0.38842  Biso   1.000  O
  C51      1.0000 0.59660  0.52750  0.30320  Biso   1.000  C
  C52      1.0000 0.57110  0.52700  0.36350  Biso   1.000  C
  O105     1.0000 0.68936  0.70036  0.27680  Biso   1.000  O
  O106     1.0000 0.58113  0.64580  0.30910  Biso   1.000  O
  O107     1.0000 0.55330  0.68250  0.23850  Biso   1.000  O
  O108     1.0000 0.66750  0.73900  0.20180  Biso   1.000  O
  C53      1.0000 0.59050  0.67630  0.26530  Biso   1.000  C
  C54      1.0000 0.65510  0.70890  0.24490  Biso   1.000  C
  O109     1.0000 0.72267  0.64619  0.36480  Biso   1.000  O
  O110     1.0000 0.66971  0.70271  0.39600  Biso   1.000  O
  O111     1.0000 0.79616  0.69610  0.42360  Biso   1.000  O
  O112     1.0000 0.74250  0.75740  0.45710  Biso   1.000  O
  C55      1.0000 0.74960  0.68500  0.40180  Biso   1.000  C
  C56      1.0000 0.71850  0.71810  0.42160  Biso   1.000  C
  Cr8      1.0000 0.31593  0.97514  0.67070  Biso   1.000  Cr
  Mn8      1.0000 0.16370  0.73479  0.66092  Biso   1.000  Mn
  O113     1.0000 0.26581  0.65913  0.59996  Biso   1.000  O
  O114     1.0000 0.31684  0.71790  0.69356  Biso   1.000  O
  O115     1.0000 0.19500  0.68173  0.60793  Biso   1.000  O
  O116     1.0000 0.24767  0.74173  0.70637  Biso   1.000  O
  C57      1.0000 0.24027  0.68373  0.62483  Biso   1.000  C
  C58      1.0000 0.26907  0.71713  0.67973  Biso   1.000  C
  O117     1.0000 0.24667  0.81373  0.61253  Biso   1.000  O
  O118     1.0000 0.19704  0.81565  0.71555  Biso   1.000  O
  O119     1.0000 0.30059  0.91065  0.61755  Biso   1.000  O
  O120     1.0000 0.26393  0.90953  0.72175  Biso   1.000  O
  C59      1.0000 0.26327  0.86083  0.63653  Biso   1.000  C
  C60      1.0000 0.23777  0.86033  0.69683  Biso   1.000  C
  O121     1.0000 0.35603  0.03369  0.61013  Biso   1.000  O
  O122     1.0000 0.24780  0.97913  0.64243  Biso   1.000  O
  O123     1.0000 0.21997  0.01583  0.57183  Biso   1.000  O
  O124     1.0000 0.33417  0.07233  0.53513  Biso   1.000  O
  C61      1.0000 0.25717  0.00963  0.59863  Biso   1.000  C
  C62      1.0000 0.32177  0.04223  0.57823  Biso   1.000  C
  O125     1.0000 0.38934  0.97952  0.69813  Biso   1.000  O
  O126     1.0000 0.33638  0.03604  0.72933  Biso   1.000  O
  O127     1.0000 0.46283  0.02943  0.75693  Biso   1.000  O
  O128     1.0000 0.40917  0.09073  0.79043  Biso   1.000  O
  C63      1.0000 0.41627  0.01833  0.73513  Biso   1.000  C
  C64      1.0000 0.38517  0.05143  0.75493  Biso   1.000  C
  Cr9      1.0000 0.98259  0.30848  0.00404  Biso   1.000  Cr
  Mn9      1.0000 0.83036  0.06813  0.99426  Biso   1.000  Mn
  O129     1.0000 0.93247  0.99247  0.93330  Biso   1.000  O
  O130     1.0000 0.98350  0.05124  0.02690  Biso   1.000  O
  O131     1.0000 0.86166  0.01507  0.94127  Biso   1.000  O
  O132     1.0000 0.91433  0.07507  0.03971  Biso   1.000  O
  C65      1.0000 0.90693  0.01707  0.95817  Biso   1.000  C
  C66      1.0000 0.93573  0.05047  0.01307  Biso   1.000  C
  O133     1.0000 0.91333  0.14707  0.94587  Biso   1.000  O
  O134     1.0000 0.86370  0.14899  0.04889  Biso   1.000  O
  O135     1.0000 0.96725  0.24399  0.95089  Biso   1.000  O
  O136     1.0000 0.93059  0.24287  0.05509  Biso   1.000  O
  C67      1.0000 0.92993  0.19417  0.96987  Biso   1.000  C
  C68      1.0000 0.90443  0.19367  0.03017  Biso   1.000  C
  O137     1.0000 0.02269  0.36703  0.94347  Biso   1.000  O
  O138     1.0000 0.91446  0.31247  0.97577  Biso   1.000  O
  O139     1.0000 0.88663  0.34917  0.90517  Biso   1.000  O
  O140     1.0000 0.00083  0.40567  0.86847  Biso   1.000  O
  C69      1.0000 0.92383  0.34297  0.93197  Biso   1.000  C
  C70      1.0000 0.98843  0.37557  0.91157  Biso   1.000  C
  O141     1.0000 0.05600  0.31286  0.03147  Biso   1.000  O
  O142     1.0000 0.00304  0.36938  0.06267  Biso   1.000  O
  O143     1.0000 0.12949  0.36277  0.09027  Biso   1.000  O
  O144     1.0000 0.07583  0.42407  0.12377  Biso   1.000  O
  C71      1.0000 0.08293  0.35167  0.06847  Biso   1.000  C
  C72      1.0000 0.05183  0.38477  0.08827  Biso   1.000  C
  Cr10     1.0000 0.99255  0.64181  0.83737  Biso   1.000  Cr
  Mn10     1.0000 0.90443  0.40146  0.82759  Biso   1.000  Mn
  O145     1.0000 0.72666  0.32580  0.76663  Biso   1.000  O
  O146     1.0000 0.73440  0.38457  0.86023  Biso   1.000  O
  O147     1.0000 0.82007  0.34840  0.77460  Biso   1.000  O
  O148     1.0000 0.82740  0.40840  0.87304  Biso   1.000  O
  C73      1.0000 0.77680  0.35040  0.79150  Biso   1.000  C
  C74      1.0000 0.78140  0.38380  0.84640  Biso   1.000  C
  O149     1.0000 0.90040  0.48040  0.77920  Biso   1.000  O
  O150     1.0000 0.95195  0.48232  0.88222  Biso   1.000  O
  O151     1.0000 0.94340  0.57732  0.78422  Biso   1.000  O
  O152     1.0000 0.97894  0.57620  0.88842  Biso   1.000  O
  C75      1.0000 0.93090  0.52750  0.80320  Biso   1.000  C
  C76      1.0000 0.95590  0.52700  0.86350  Biso   1.000  C
  O153     1.0000 0.01100  0.70036  0.77680  Biso   1.000  O
  O154     1.0000 0.06467  0.64580  0.80910  Biso   1.000  O
  O155     1.0000 0.12920  0.68250  0.73850  Biso   1.000  O
  O156     1.0000 0.07150  0.73900  0.70180  Biso   1.000  O
  C77      1.0000 0.08580  0.67630  0.76530  Biso   1.000  C
  C78      1.0000 0.05380  0.70890  0.74490  Biso   1.000  C
  O157     1.0000 0.92352  0.64619  0.86480  Biso   1.000  O
  O158     1.0000 0.03300  0.70271  0.89600  Biso   1.000  O
  O159     1.0000 0.89994  0.69610  0.92360  Biso   1.000  O
  O160     1.0000 0.01490  0.75740  0.95710  Biso   1.000  O
  C79      1.0000 0.93540  0.68500  0.90180  Biso   1.000  C
  C80      1.0000 0.99960  0.71810  0.92160  Biso   1.000  C
  Cr11     1.0000 0.65922  0.97514  0.17070  Biso   1.000  Cr
  Mn11     1.0000 0.57110  0.73479  0.16092  Biso   1.000  Mn
  O161     1.0000 0.39333  0.65913  0.09996  Biso   1.000  O
  O162     1.0000 0.40107  0.71790  0.19356  Biso   1.000  O
  O163     1.0000 0.48674  0.68173  0.10793  Biso   1.000  O
  O164     1.0000 0.49407  0.74173  0.20637  Biso   1.000  O
  C81      1.0000 0.44347  0.68373  0.12483  Biso   1.000  C
  C82      1.0000 0.44807  0.71713  0.17973  Biso   1.000  C
  O165     1.0000 0.56707  0.81373  0.11253  Biso   1.000  O
  O166     1.0000 0.61862  0.81565  0.21555  Biso   1.000  O
  O167     1.0000 0.61007  0.91065  0.11755  Biso   1.000  O
  O168     1.0000 0.64561  0.90953  0.22175  Biso   1.000  O
  C83      1.0000 0.59757  0.86083  0.13653  Biso   1.000  C
  C84      1.0000 0.62257  0.86033  0.19683  Biso   1.000  C
  O169     1.0000 0.67767  0.03369  0.11013  Biso   1.000  O
  O170     1.0000 0.73134  0.97913  0.14243  Biso   1.000  O
  O171     1.0000 0.79587  0.01583  0.07183  Biso   1.000  O
  O172     1.0000 0.73817  0.07233  0.03513  Biso   1.000  O
  C85      1.0000 0.75247  0.00963  0.09863  Biso   1.000  C
  C86      1.0000 0.72047  0.04223  0.07823  Biso   1.000  C
  O173     1.0000 0.59019  0.97952  0.19813  Biso   1.000  O
  O174     1.0000 0.69967  0.03604  0.22933  Biso   1.000  O
  O175     1.0000 0.56661  0.02943  0.25693  Biso   1.000  O
  O176     1.0000 0.68157  0.09073  0.29043  Biso   1.000  O
  C87      1.0000 0.60207  0.01833  0.23513  Biso   1.000  C
  C88      1.0000 0.66627  0.05143  0.25493  Biso   1.000  C
  Cr12     1.0000 0.32588  0.30848  0.50404  Biso   1.000  Cr
  Mn12     1.0000 0.23776  0.06813  0.49426  Biso   1.000  Mn
  O177     1.0000 0.05999  0.99247  0.43330  Biso   1.000  O
  O178     1.0000 0.06773  0.05124  0.52690  Biso   1.000  O
  O179     1.0000 0.15340  0.01507  0.44127  Biso   1.000  O
  O180     1.0000 0.16073  0.07507  0.53971  Biso   1.000  O
  C89      1.0000 0.11013  0.01707  0.45817  Biso   1.000  C
  C90      1.0000 0.11473  0.05047  0.51307  Biso   1.000  C
  O181     1.0000 0.23373  0.14707  0.44587  Biso   1.000  O
  O182     1.0000 0.28528  0.14899  0.54889  Biso   1.000  O
  O183     1.0000 0.27673  0.24399  0.45089  Biso   1.000  O
  O184     1.0000 0.31227  0.24287  0.55509  Biso   1.000  O
  C91      1.0000 0.26423  0.19417  0.46987  Biso   1.000  C
  C92      1.0000 0.28923  0.19367  0.53017  Biso   1.000  C
  O185     1.0000 0.34433  0.36703  0.44347  Biso   1.000  O
  O186     1.0000 0.39800  0.31247  0.47577  Biso   1.000  O
  O187     1.0000 0.46253  0.34917  0.40517  Biso   1.000  O
  O188     1.0000 0.40483  0.40567  0.36847  Biso   1.000  O
  C93      1.0000 0.41913  0.34297  0.43197  Biso   1.000  C
  C94      1.0000 0.38713  0.37557  0.41157  Biso   1.000  C
  O189     1.0000 0.25685  0.31286  0.53147  Biso   1.000  O
  O190     1.0000 0.36633  0.36938  0.56267  Biso   1.000  O
  O191     1.0000 0.23327  0.36277  0.59027  Biso   1.000  O
  O192     1.0000 0.34823  0.42407  0.62377  Biso   1.000  O
  C95      1.0000 0.26873  0.35167  0.56847  Biso   1.000  C
  C96      1.0000 0.33293  0.38477  0.58827  Biso   1.000  C
  Cr13     1.0000 0.64926  0.00745  0.83737  Biso   1.000  Cr
  Mn13     1.0000 0.49703  0.09557  0.82759  Biso   1.000  Mn
  O193     1.0000 0.59914  0.27334  0.76663  Biso   1.000  O
  O194     1.0000 0.65017  0.26560  0.86023  Biso   1.000  O
  O195     1.0000 0.52833  0.17993  0.77460  Biso   1.000  O
  O196     1.0000 0.58100  0.17260  0.87304  Biso   1.000  O
  C97      1.0000 0.57360  0.22320  0.79150  Biso   1.000  C
  C98      1.0000 0.60240  0.21860  0.84640  Biso   1.000  C
  O197     1.0000 0.58000  0.09960  0.77920  Biso   1.000  O
  O198     1.0000 0.53037  0.04805  0.88222  Biso   1.000  O
  O199     1.0000 0.63392  0.05660  0.78422  Biso   1.000  O
  O200     1.0000 0.59726  0.02106  0.88842  Biso   1.000  O
  C99      1.0000 0.59660  0.06910  0.80320  Biso   1.000  C
  C100     1.0000 0.57110  0.04410  0.86350  Biso   1.000  C
  O201     1.0000 0.68936  0.98900  0.77680  Biso   1.000  O
  O202     1.0000 0.58113  0.93533  0.80910  Biso   1.000  O
  O203     1.0000 0.55330  0.87080  0.73850  Biso   1.000  O
  O204     1.0000 0.66750  0.92850  0.70180  Biso   1.000  O
  C101     1.0000 0.59050  0.91420  0.76530  Biso   1.000  C
  C102     1.0000 0.65510  0.94620  0.74490  Biso   1.000  C
  O205     1.0000 0.72267  0.07648  0.86480  Biso   1.000  O
  O206     1.0000 0.66971  0.96700  0.89600  Biso   1.000  O
  O207     1.0000 0.79616  0.10006  0.92360  Biso   1.000  O
  O208     1.0000 0.74250  0.98510  0.95710  Biso   1.000  O
  C103     1.0000 0.74960  0.06460  0.90180  Biso   1.000  C
  C104     1.0000 0.71850  0.00040  0.92160  Biso   1.000  C
  Cr14     1.0000 0.31593  0.34078  0.17070  Biso   1.000  Cr
  Mn14     1.0000 0.16370  0.42890  0.16092  Biso   1.000  Mn
  O209     1.0000 0.26581  0.60667  0.09996  Biso   1.000  O
  O210     1.0000 0.31684  0.59893  0.19356  Biso   1.000  O
  O211     1.0000 0.19500  0.51326  0.10793  Biso   1.000  O
  O212     1.0000 0.24767  0.50593  0.20637  Biso   1.000  O
  C105     1.0000 0.24027  0.55653  0.12483  Biso   1.000  C
  C106     1.0000 0.26907  0.55193  0.17973  Biso   1.000  C
  O213     1.0000 0.24667  0.43293  0.11253  Biso   1.000  O
  O214     1.0000 0.19704  0.38138  0.21555  Biso   1.000  O
  O215     1.0000 0.30059  0.38993  0.11755  Biso   1.000  O
  O216     1.0000 0.26393  0.35439  0.22175  Biso   1.000  O
  C107     1.0000 0.26327  0.40243  0.13653  Biso   1.000  C
  C108     1.0000 0.23777  0.37743  0.19683  Biso   1.000  C
  O217     1.0000 0.35603  0.32233  0.11013  Biso   1.000  O
  O218     1.0000 0.24780  0.26866  0.14243  Biso   1.000  O
  O219     1.0000 0.21997  0.20413  0.07183  Biso   1.000  O
  O220     1.0000 0.33417  0.26183  0.03513  Biso   1.000  O
  C109     1.0000 0.25717  0.24753  0.09863  Biso   1.000  C
  C110     1.0000 0.32177  0.27953  0.07823  Biso   1.000  C
  O221     1.0000 0.38934  0.40981  0.19813  Biso   1.000  O
  O222     1.0000 0.33638  0.30033  0.22933  Biso   1.000  O
  O223     1.0000 0.46283  0.43339  0.25693  Biso   1.000  O
  O224     1.0000 0.40917  0.31843  0.29043  Biso   1.000  O
  C111     1.0000 0.41627  0.39793  0.23513  Biso   1.000  C
  C112     1.0000 0.38517  0.33373  0.25493  Biso   1.000  C
  Cr15     1.0000 0.98259  0.67412  0.50404  Biso   1.000  Cr
  Mn15     1.0000 0.83036  0.76224  0.49426  Biso   1.000  Mn
  O225     1.0000 0.93247  0.94001  0.43330  Biso   1.000  O
  O226     1.0000 0.98350  0.93227  0.52690  Biso   1.000  O
  O227     1.0000 0.86166  0.84660  0.44127  Biso   1.000  O
  O228     1.0000 0.91433  0.83927  0.53971  Biso   1.000  O
  C113     1.0000 0.90693  0.88987  0.45817  Biso   1.000  C
  C114     1.0000 0.93573  0.88527  0.51307  Biso   1.000  C
  O229     1.0000 0.91333  0.76627  0.44587  Biso   1.000  O
  O230     1.0000 0.86370  0.71472  0.54889  Biso   1.000  O
  O231     1.0000 0.96725  0.72327  0.45089  Biso   1.000  O
  O232     1.0000 0.93059  0.68773  0.55509  Biso   1.000  O
  C115     1.0000 0.92993  0.73577  0.46987  Biso   1.000  C
  C116     1.0000 0.90443  0.71077  0.53017  Biso   1.000  C
  O233     1.0000 0.02269  0.65567  0.44347  Biso   1.000  O
  O234     1.0000 0.91446  0.60200  0.47577  Biso   1.000  O
  O235     1.0000 0.88663  0.53747  0.40517  Biso   1.000  O
  O236     1.0000 0.00083  0.59517  0.36847  Biso   1.000  O
  C117     1.0000 0.92383  0.58087  0.43197  Biso   1.000  C
  C118     1.0000 0.98843  0.61287  0.41157  Biso   1.000  C
  O237     1.0000 0.05600  0.74315  0.53147  Biso   1.000  O
  O238     1.0000 0.00304  0.63367  0.56267  Biso   1.000  O
  O239     1.0000 0.12949  0.76673  0.59027  Biso   1.000  O
  O240     1.0000 0.07583  0.65177  0.62377  Biso   1.000  O
  C119     1.0000 0.08293  0.73127  0.56847  Biso   1.000  C
  C120     1.0000 0.05183  0.66707  0.58827  Biso   1.000  C
  Cr16     1.0000 0.35819  0.35074  0.83737  Biso   1.000  Cr
  Mn16     1.0000 0.59854  0.50297  0.82759  Biso   1.000  Mn
  O241     1.0000 0.67420  0.40086  0.76663  Biso   1.000  O
  O242     1.0000 0.61543  0.34983  0.86023  Biso   1.000  O
  O243     1.0000 0.65160  0.47167  0.77460  Biso   1.000  O
  O244     1.0000 0.59160  0.41900  0.87304  Biso   1.000  O
  C121     1.0000 0.64960  0.42640  0.79150  Biso   1.000  C
  C122     1.0000 0.61620  0.39760  0.84640  Biso   1.000  C
  O245     1.0000 0.51960  0.42000  0.77920  Biso   1.000  O
  O246     1.0000 0.51768  0.46963  0.88222  Biso   1.000  O
  O247     1.0000 0.42268  0.36608  0.78422  Biso   1.000  O
  O248     1.0000 0.42380  0.40274  0.88842  Biso   1.000  O
  C123     1.0000 0.47250  0.40340  0.80320  Biso   1.000  C
  C124     1.0000 0.47300  0.42890  0.86350  Biso   1.000  C
  O249     1.0000 0.29964  0.31064  0.77680  Biso   1.000  O
  O250     1.0000 0.35420  0.41887  0.80910  Biso   1.000  O
  O251     1.0000 0.31750  0.44670  0.73850  Biso   1.000  O
  O252     1.0000 0.26100  0.33250  0.70180  Biso   1.000  O
  C125     1.0000 0.32370  0.40950  0.76530  Biso   1.000  C
  C126     1.0000 0.29110  0.34490  0.74490  Biso   1.000  C
  O253     1.0000 0.35381  0.27733  0.86480  Biso   1.000  O
  O254     1.0000 0.29729  0.33029  0.89600  Biso   1.000  O
  O255     1.0000 0.30390  0.20384  0.92360  Biso   1.000  O
  O256     1.0000 0.24260  0.25750  0.95710  Biso   1.000  O
  C127     1.0000 0.31500  0.25040  0.90180  Biso   1.000  C
  C128     1.0000 0.28190  0.28150  0.92160  Biso   1.000  C
  Cr17     1.0000 0.02486  0.68407  0.17070  Biso   1.000  Cr
  Mn17     1.0000 0.26521  0.83630  0.16092  Biso   1.000  Mn
  O257     1.0000 0.34087  0.73419  0.09996  Biso   1.000  O
  O258     1.0000 0.28210  0.68316  0.19356  Biso   1.000  O
  O259     1.0000 0.31827  0.80500  0.10793  Biso   1.000  O
  O260     1.0000 0.25827  0.75233  0.20637  Biso   1.000  O
  C129     1.0000 0.31627  0.75973  0.12483  Biso   1.000  C
  C130     1.0000 0.28287  0.73093  0.17973  Biso   1.000  C
  O261     1.0000 0.18627  0.75333  0.11253  Biso   1.000  O
  O262     1.0000 0.18435  0.80296  0.21555  Biso   1.000  O
  O263     1.0000 0.08935  0.69941  0.11755  Biso   1.000  O
  O264     1.0000 0.09047  0.73607  0.22175  Biso   1.000  O
  C131     1.0000 0.13917  0.73673  0.13653  Biso   1.000  C
  C132     1.0000 0.13967  0.76223  0.19683  Biso   1.000  C
  O265     1.0000 0.96631  0.64397  0.11013  Biso   1.000  O
  O266     1.0000 0.02087  0.75220  0.14243  Biso   1.000  O
  O267     1.0000 0.98417  0.78003  0.07183  Biso   1.000  O
  O268     1.0000 0.92767  0.66583  0.03513  Biso   1.000  O
  C133     1.0000 0.99037  0.74283  0.09863  Biso   1.000  C
  C134     1.0000 0.95777  0.67823  0.07823  Biso   1.000  C
  O269     1.0000 0.02048  0.61066  0.19813  Biso   1.000  O
  O270     1.0000 0.96396  0.66362  0.22933  Biso   1.000  O
  O271     1.0000 0.97057  0.53717  0.25693  Biso   1.000  O
  O272     1.0000 0.90927  0.59083  0.29043  Biso   1.000  O
  C135     1.0000 0.98167  0.58373  0.23513  Biso   1.000  C
  C136     1.0000 0.94857  0.61483  0.25493  Biso   1.000  C
  Cr18     1.0000 0.69152  0.01741  0.50404  Biso   1.000  Cr
  Mn18     1.0000 0.93187  0.16964  0.49426  Biso   1.000  Mn
  O273     1.0000 0.00753  0.06753  0.43330  Biso   1.000  O
  O274     1.0000 0.94876  0.01650  0.52690  Biso   1.000  O
  O275     1.0000 0.98493  0.13834  0.44127  Biso   1.000  O
  O276     1.0000 0.92493  0.08567  0.53971  Biso   1.000  O
  C137     1.0000 0.98293  0.09307  0.45817  Biso   1.000  C
  C138     1.0000 0.94953  0.06427  0.51307  Biso   1.000  C
  O277     1.0000 0.85293  0.08667  0.44587  Biso   1.000  O
  O278     1.0000 0.85101  0.13630  0.54889  Biso   1.000  O
  O279     1.0000 0.75601  0.03275  0.45089  Biso   1.000  O
  O280     1.0000 0.75713  0.06941  0.55509  Biso   1.000  O
  C139     1.0000 0.80583  0.07007  0.46987  Biso   1.000  C
  C140     1.0000 0.80633  0.09557  0.53017  Biso   1.000  C
  O281     1.0000 0.63297  0.97731  0.44347  Biso   1.000  O
  O282     1.0000 0.68753  0.08554  0.47577  Biso   1.000  O
  O283     1.0000 0.65083  0.11337  0.40517  Biso   1.000  O
  O284     1.0000 0.59433  0.99917  0.36847  Biso   1.000  O
  C141     1.0000 0.65703  0.07617  0.43197  Biso   1.000  C
  C142     1.0000 0.62443  0.01157  0.41157  Biso   1.000  C
  O285     1.0000 0.68714  0.94400  0.53147  Biso   1.000  O
  O286     1.0000 0.63062  0.99696  0.56267  Biso   1.000  O
  O287     1.0000 0.63723  0.87051  0.59027  Biso   1.000  O
  O288     1.0000 0.57593  0.92417  0.62377  Biso   1.000  O
  C143     1.0000 0.64833  0.91707  0.56847  Biso   1.000  C
  C144     1.0000 0.61523  0.94817  0.58827  Biso   1.000  C
  Cr19     1.0000 0.66667  0.33333  0.31186  Biso   1.000  Cr
  Cr20     1.0000 0.33333  0.66667  0.64519  Biso   1.000  Cr
  Cr21     1.0000 0.00000  0.00000  0.97853  Biso   1.000  Cr
  Cr22     1.0000 0.66667  0.33333  0.81186  Biso   1.000  Cr
  Cr23     1.0000 0.33333  0.66667  0.14519  Biso   1.000  Cr
  Cr24     1.0000 0.00000  0.00000  0.47853  Biso   1.000  Cr
