data_image0
_cell_length_a       10.8336
_cell_length_b       18.2867
_cell_length_c       15.1258
_cell_angle_alpha    90
_cell_angle_beta     111.208
_cell_angle_gamma    90

_symmetry_space_group_name_H-M    "P 1"
_symmetry_int_tables_number       1

loop_
  _symmetry_equiv_pos_as_xyz
  'x, y, z'

loop_
  _atom_site_label
  _atom_site_occupancy
  _atom_site_fract_x
  _atom_site_fract_y
  _atom_site_fract_z
  _atom_site_thermal_displace_type
  _atom_site_B_iso_or_equiv
  _atom_site_type_symbol
  Mn1      1.0000 0.17170  0.01142  0.16771  Biso   1.000  Mn
  O1       1.0000 0.16510  0.02534  0.02401  Biso   1.000  O
  O2       1.0000 0.48190  0.01778  0.35589  Biso   1.000  O
  O3       1.0000 0.18040  0.00278  0.31144  Biso   1.000  O
  O4       1.0000 0.01080  0.04998  0.88258  Biso   1.000  O
  O5       1.0000 0.35490  0.07248  0.22139  Biso   1.000  O
  O6       1.0000 0.30160  0.95136  0.45013  Biso   1.000  O
  F1       1.0000 0.54350  0.20697  0.09785  Biso   1.000  F
  C1       1.0000 0.20790  0.95146  0.37130  Biso   1.000  C
  N1       1.0000 0.71930  0.40126  0.32496  Biso   1.000  N
  N2       1.0000 0.93840  0.62040  0.34799  Biso   1.000  N
  C2       1.0000 0.10840  0.06669  0.95450  Biso   1.000  C
  N3       1.0000 0.42030  0.38400  0.00865  Biso   1.000  N
  C3       1.0000 0.45000  0.07114  0.29890  Biso   1.000  C
  C4       1.0000 0.57690  0.26917  0.30280  Biso   1.000  C
  C5       1.0000 0.06850  0.75718  0.37820  Biso   1.000  C
  C6       1.0000 0.11870  0.88607  0.34470  Biso   1.000  C
  H1       1.0000 0.04470  0.88740  0.28900  Biso   1.000  H
  C7       1.0000 0.05920  0.62851  0.41310  Biso   1.000  C
  H2       1.0000 0.10000  0.58820  0.44930  Biso   1.000  H
  C8       1.0000 0.94300  0.74654  0.31100  Biso   1.000  C
  C9       1.0000 0.14190  0.82617  0.39810  Biso   1.000  C
  H3       1.0000 0.21360  0.82840  0.45520  Biso   1.000  H
  F2       1.0000 0.87760  0.80109  0.25570  Biso   1.000  F
  C10      1.0000 0.32230  0.24136  0.01310  Biso   1.000  C
  C11      1.0000 0.24000  0.29953  0.96830  Biso   1.000  C
  H4       1.0000 0.14940  0.29190  0.93900  Biso   1.000  H
  C12      1.0000 0.45370  0.25947  0.05430  Biso   1.000  C
  C13      1.0000 0.77690  0.33622  0.33090  Biso   1.000  C
  H5       1.0000 0.86740  0.33510  0.34310  Biso   1.000  H
  C14      1.0000 0.49770  0.20167  0.28510  Biso   1.000  C
  H6       1.0000 0.41180  0.20440  0.24090  Biso   1.000  H
  C15      1.0000 0.71070  0.27035  0.32000  Biso   1.000  C
  H7       1.0000 0.75650  0.22670  0.32430  Biso   1.000  H
  C16      1.0000 0.53690  0.13794  0.32570  Biso   1.000  C
  H8       1.0000 0.62070  0.13400  0.37240  Biso   1.000  H
  C17      1.0000 0.88140  0.67927  0.29690  Biso   1.000  C
  H9       1.0000 0.79750  0.67470  0.25050  Biso   1.000  H
  C18      1.0000 0.12690  0.69457  0.42930  Biso   1.000  C
  C19      1.0000 0.16140  0.14205  0.95360  Biso   1.000  C
  H10      1.0000 0.11220  0.17360  0.90550  Biso   1.000  H
  F3       1.0000 0.38930  0.34100  0.28260  Biso   1.000  F
  C20      1.0000 0.50010  0.32927  0.05350  Biso   1.000  C
  H11      1.0000 0.58970  0.33870  0.08510  Biso   1.000  H
  C21      1.0000 0.27250  0.16692  0.01580  Biso   1.000  C
  H12      1.0000 0.32230  0.13580  0.06420  Biso   1.000  H
  C22      1.0000 0.29220  0.36825  0.96730  Biso   1.000  C
  H13      1.0000 0.23470  0.40560  0.93590  Biso   1.000  H
  C23      1.0000 0.59020  0.40089  0.30920  Biso   1.000  C
  H14      1.0000 0.54650  0.44520  0.30550  Biso   1.000  H
  C24      1.0000 0.51940  0.33694  0.29820  Biso   1.000  C
  F4       1.0000 0.25130  0.69500  0.48270  Biso   1.000  F
  Mn2      1.0000 0.82830  0.51142  0.33229  Biso   1.000  Mn
  O7       1.0000 0.83490  0.52534  0.47599  Biso   1.000  O
  O8       1.0000 0.51810  0.51778  0.14411  Biso   1.000  O
  O9       1.0000 0.81960  0.50278  0.18856  Biso   1.000  O
  O10      1.0000 0.98920  0.54998  0.61742  Biso   1.000  O
  O11      1.0000 0.64510  0.57248  0.27861  Biso   1.000  O
  O12      1.0000 0.69840  0.45136  0.04987  Biso   1.000  O
  F5       1.0000 0.45650  0.70697  0.40215  Biso   1.000  F
  C25      1.0000 0.79210  0.45146  0.12870  Biso   1.000  C
  N4       1.0000 0.28070  0.90126  0.17504  Biso   1.000  N
  N5       1.0000 0.06160  0.12040  0.15201  Biso   1.000  N
  C26      1.0000 0.89160  0.56669  0.54550  Biso   1.000  C
  N6       1.0000 0.57970  0.88400  0.49135  Biso   1.000  N
  C27      1.0000 0.55000  0.57114  0.20110  Biso   1.000  C
  C28      1.0000 0.42310  0.76917  0.19720  Biso   1.000  C
  C29      1.0000 0.93150  0.25718  0.12180  Biso   1.000  C
  C30      1.0000 0.88130  0.38607  0.15530  Biso   1.000  C
  H15      1.0000 0.95530  0.38740  0.21100  Biso   1.000  H
  C31      1.0000 0.94080  0.12851  0.08690  Biso   1.000  C
  H16      1.0000 0.90000  0.08820  0.05070  Biso   1.000  H
  C32      1.0000 0.05700  0.24654  0.18900  Biso   1.000  C
  C33      1.0000 0.85810  0.32617  0.10190  Biso   1.000  C
  H17      1.0000 0.78640  0.32840  0.04480  Biso   1.000  H
  F6       1.0000 0.12240  0.30109  0.24430  Biso   1.000  F
  C34      1.0000 0.67770  0.74136  0.48690  Biso   1.000  C
  C35      1.0000 0.76000  0.79953  0.53170  Biso   1.000  C
  H18      1.0000 0.85060  0.79190  0.56100  Biso   1.000  H
  C36      1.0000 0.54630  0.75947  0.44570  Biso   1.000  C
  C37      1.0000 0.22310  0.83622  0.16910  Biso   1.000  C
  H19      1.0000 0.13260  0.83510  0.15690  Biso   1.000  H
  C38      1.0000 0.50230  0.70167  0.21490  Biso   1.000  C
  H20      1.0000 0.58820  0.70440  0.25910  Biso   1.000  H
  C39      1.0000 0.28930  0.77035  0.18000  Biso   1.000  C
  H21      1.0000 0.24350  0.72670  0.17570  Biso   1.000  H
  C40      1.0000 0.46310  0.63794  0.17430  Biso   1.000  C
  H22      1.0000 0.37930  0.63400  0.12760  Biso   1.000  H
  C41      1.0000 0.11860  0.17927  0.20310  Biso   1.000  C
  H23      1.0000 0.20250  0.17470  0.24950  Biso   1.000  H
  C42      1.0000 0.87310  0.19457  0.07070  Biso   1.000  C
  C43      1.0000 0.83860  0.64205  0.54640  Biso   1.000  C
  H24      1.0000 0.88780  0.67360  0.59450  Biso   1.000  H
  F7       1.0000 0.61070  0.84100  0.21740  Biso   1.000  F
  C44      1.0000 0.49990  0.82927  0.44650  Biso   1.000  C
  H25      1.0000 0.41030  0.83870  0.41490  Biso   1.000  H
  C45      1.0000 0.72750  0.66692  0.48420  Biso   1.000  C
  H26      1.0000 0.67770  0.63580  0.43580  Biso   1.000  H
  C46      1.0000 0.70780  0.86825  0.53270  Biso   1.000  C
  H27      1.0000 0.76530  0.90560  0.56410  Biso   1.000  H
  C47      1.0000 0.40980  0.90089  0.19080  Biso   1.000  C
  H28      1.0000 0.45350  0.94520  0.19450  Biso   1.000  H
  C48      1.0000 0.48060  0.83694  0.20180  Biso   1.000  C
  F8       1.0000 0.74870  0.19500  0.01730  Biso   1.000  F
  Mn3      1.0000 0.82830  0.98858  0.83229  Biso   1.000  Mn
  O13      1.0000 0.83490  0.97466  0.97599  Biso   1.000  O
  O14      1.0000 0.51810  0.98222  0.64411  Biso   1.000  O
  O15      1.0000 0.81960  0.99722  0.68856  Biso   1.000  O
  O16      1.0000 0.98920  0.95002  0.11742  Biso   1.000  O
  O17      1.0000 0.64510  0.92752  0.77861  Biso   1.000  O
  O18      1.0000 0.69840  0.04864  0.54987  Biso   1.000  O
  F9       1.0000 0.45650  0.79303  0.90215  Biso   1.000  F
  C49      1.0000 0.79210  0.04854  0.62870  Biso   1.000  C
  N7       1.0000 0.28070  0.59874  0.67504  Biso   1.000  N
  N8       1.0000 0.06160  0.37960  0.65201  Biso   1.000  N
  C50      1.0000 0.89160  0.93331  0.04550  Biso   1.000  C
  N9       1.0000 0.57970  0.61600  0.99135  Biso   1.000  N
  C51      1.0000 0.55000  0.92886  0.70110  Biso   1.000  C
  C52      1.0000 0.42310  0.73083  0.69720  Biso   1.000  C
  C53      1.0000 0.93150  0.24282  0.62180  Biso   1.000  C
  C54      1.0000 0.88130  0.11393  0.65530  Biso   1.000  C
  H29      1.0000 0.95530  0.11260  0.71100  Biso   1.000  H
  C55      1.0000 0.94080  0.37149  0.58690  Biso   1.000  C
  H30      1.0000 0.90000  0.41180  0.55070  Biso   1.000  H
  C56      1.0000 0.05700  0.25346  0.68900  Biso   1.000  C
  C57      1.0000 0.85810  0.17383  0.60190  Biso   1.000  C
  H31      1.0000 0.78640  0.17160  0.54480  Biso   1.000  H
  F10      1.0000 0.12240  0.19891  0.74430  Biso   1.000  F
  C58      1.0000 0.67770  0.75864  0.98690  Biso   1.000  C
  C59      1.0000 0.76000  0.70047  0.03170  Biso   1.000  C
  H32      1.0000 0.85060  0.70810  0.06100  Biso   1.000  H
  C60      1.0000 0.54630  0.74053  0.94570  Biso   1.000  C
  C61      1.0000 0.22310  0.66378  0.66910  Biso   1.000  C
  H33      1.0000 0.13260  0.66490  0.65690  Biso   1.000  H
  C62      1.0000 0.50230  0.79833  0.71490  Biso   1.000  C
  H34      1.0000 0.58820  0.79560  0.75910  Biso   1.000  H
  C63      1.0000 0.28930  0.72965  0.68000  Biso   1.000  C
  H35      1.0000 0.24350  0.77330  0.67570  Biso   1.000  H
  C64      1.0000 0.46310  0.86206  0.67430  Biso   1.000  C
  H36      1.0000 0.37930  0.86600  0.62760  Biso   1.000  H
  C65      1.0000 0.11860  0.32073  0.70310  Biso   1.000  C
  H37      1.0000 0.20250  0.32530  0.74950  Biso   1.000  H
  C66      1.0000 0.87310  0.30543  0.57070  Biso   1.000  C
  C67      1.0000 0.83860  0.85795  0.04640  Biso   1.000  C
  H38      1.0000 0.88780  0.82640  0.09450  Biso   1.000  H
  F11      1.0000 0.61070  0.65900  0.71740  Biso   1.000  F
  C68      1.0000 0.49990  0.67073  0.94650  Biso   1.000  C
  H39      1.0000 0.41030  0.66130  0.91490  Biso   1.000  H
  C69      1.0000 0.72750  0.83308  0.98420  Biso   1.000  C
  H40      1.0000 0.67770  0.86420  0.93580  Biso   1.000  H
  C70      1.0000 0.70780  0.63175  0.03270  Biso   1.000  C
  H41      1.0000 0.76530  0.59440  0.06410  Biso   1.000  H
  C71      1.0000 0.40980  0.59911  0.69080  Biso   1.000  C
  H42      1.0000 0.45350  0.55480  0.69450  Biso   1.000  H
  C72      1.0000 0.48060  0.66306  0.70180  Biso   1.000  C
  F12      1.0000 0.74870  0.30500  0.51730  Biso   1.000  F
  Mn4      1.0000 0.17170  0.48858  0.66771  Biso   1.000  Mn
  O19      1.0000 0.16510  0.47466  0.52401  Biso   1.000  O
  O20      1.0000 0.48190  0.48222  0.85589  Biso   1.000  O
  O21      1.0000 0.18040  0.49722  0.81144  Biso   1.000  O
  O22      1.0000 0.01080  0.45002  0.38258  Biso   1.000  O
  O23      1.0000 0.35490  0.42752  0.72139  Biso   1.000  O
  O24      1.0000 0.30160  0.54864  0.95013  Biso   1.000  O
  F13      1.0000 0.54350  0.29303  0.59785  Biso   1.000  F
  C73      1.0000 0.20790  0.54854  0.87130  Biso   1.000  C
  N10      1.0000 0.71930  0.09874  0.82496  Biso   1.000  N
  N11      1.0000 0.93840  0.87960  0.84799  Biso   1.000  N
  C74      1.0000 0.10840  0.43331  0.45450  Biso   1.000  C
  N12      1.0000 0.42030  0.11600  0.50865  Biso   1.000  N
  C75      1.0000 0.45000  0.42886  0.79890  Biso   1.000  C
  C76      1.0000 0.57690  0.23083  0.80280  Biso   1.000  C
  C77      1.0000 0.06850  0.74282  0.87820  Biso   1.000  C
  C78      1.0000 0.11870  0.61393  0.84470  Biso   1.000  C
  H43      1.0000 0.04470  0.61260  0.78900  Biso   1.000  H
  C79      1.0000 0.05920  0.87149  0.91310  Biso   1.000  C
  H44      1.0000 0.10000  0.91180  0.94930  Biso   1.000  H
  C80      1.0000 0.94300  0.75346  0.81100  Biso   1.000  C
  C81      1.0000 0.14190  0.67383  0.89810  Biso   1.000  C
  H45      1.0000 0.21360  0.67160  0.95520  Biso   1.000  H
  F14      1.0000 0.87760  0.69891  0.75570  Biso   1.000  F
  C82      1.0000 0.32230  0.25864  0.51310  Biso   1.000  C
  C83      1.0000 0.24000  0.20047  0.46830  Biso   1.000  C
  H46      1.0000 0.14940  0.20810  0.43900  Biso   1.000  H
  C84      1.0000 0.45370  0.24053  0.55430  Biso   1.000  C
  C85      1.0000 0.77690  0.16378  0.83090  Biso   1.000  C
  H47      1.0000 0.86740  0.16490  0.84310  Biso   1.000  H
  C86      1.0000 0.49770  0.29833  0.78510  Biso   1.000  C
  H48      1.0000 0.41180  0.29560  0.74090  Biso   1.000  H
  C87      1.0000 0.71070  0.22965  0.82000  Biso   1.000  C
  H49      1.0000 0.75650  0.27330  0.82430  Biso   1.000  H
  C88      1.0000 0.53690  0.36206  0.82570  Biso   1.000  C
  H50      1.0000 0.62070  0.36600  0.87240  Biso   1.000  H
  C89      1.0000 0.88140  0.82073  0.79690  Biso   1.000  C
  H51      1.0000 0.79750  0.82530  0.75050  Biso   1.000  H
  C90      1.0000 0.12690  0.80543  0.92930  Biso   1.000  C
  C91      1.0000 0.16140  0.35795  0.45360  Biso   1.000  C
  H52      1.0000 0.11220  0.32640  0.40550  Biso   1.000  H
  F15      1.0000 0.38930  0.15900  0.78260  Biso   1.000  F
  C92      1.0000 0.50010  0.17073  0.55350  Biso   1.000  C
  H53      1.0000 0.58970  0.16130  0.58510  Biso   1.000  H
  C93      1.0000 0.27250  0.33308  0.51580  Biso   1.000  C
  H54      1.0000 0.32230  0.36420  0.56420  Biso   1.000  H
  C94      1.0000 0.29220  0.13175  0.46730  Biso   1.000  C
  H55      1.0000 0.23470  0.09440  0.43590  Biso   1.000  H
  C95      1.0000 0.59020  0.09911  0.80920  Biso   1.000  C
  H56      1.0000 0.54650  0.05480  0.80550  Biso   1.000  H
  C96      1.0000 0.51940  0.16306  0.79820  Biso   1.000  C
  F16      1.0000 0.25130  0.80500  0.98270  Biso   1.000  F
  Mn5      1.0000 0.50000  0.50000  0.00000  Biso   1.000  Mn
  Mn6      1.0000 0.50000  0.00000  0.50000  Biso   1.000  Mn
