data_image0
_cell_length_a       12.3156
_cell_length_b       15.5113
_cell_length_c       18.9521
_cell_angle_alpha    90
_cell_angle_beta     90
_cell_angle_gamma    90

_symmetry_space_group_name_H-M    "P 1"
_symmetry_int_tables_number       1

loop_
  _symmetry_equiv_pos_as_xyz
  'x, y, z'

loop_
  _atom_site_label
  _atom_site_occupancy
  _atom_site_fract_x
  _atom_site_fract_y
  _atom_site_fract_z
  _atom_site_thermal_displace_type
  _atom_site_B_iso_or_equiv
  _atom_site_type_symbol
  C1       1.0000 0.50710  0.66496  0.93787  Biso   1.000  C
  H1       1.0000 0.49810  0.61900  0.90690  Biso   1.000  H
  C2       1.0000 0.43760  0.67141  0.99363  Biso   1.000  C
  H2       1.0000 0.38460  0.62950  0.00040  Biso   1.000  H
  C3       1.0000 0.44539  0.73917  0.03972  Biso   1.000  C
  C4       1.0000 0.52996  0.79594  0.02858  Biso   1.000  C
  H3       1.0000 0.54090  0.84200  0.05910  Biso   1.000  H
  C5       1.0000 0.59746  0.78377  0.97222  Biso   1.000  C
  H4       1.0000 0.65460  0.82230  0.96630  Biso   1.000  H
  C6       1.0000 0.56106  0.57884  0.77416  Biso   1.000  C
  C7       1.0000 0.49908  0.49774  0.75491  Biso   1.000  C
  C8       1.0000 0.52561  0.42024  0.78646  Biso   1.000  C
  H5       1.0000 0.58080  0.41750  0.81990  Biso   1.000  H
  C9       1.0000 0.46888  0.34655  0.76764  Biso   1.000  C
  H6       1.0000 0.48730  0.29490  0.78940  Biso   1.000  H
  C10      1.0000 0.36345  0.42157  0.69067  Biso   1.000  C
  H7       1.0000 0.30720  0.42280  0.65790  Biso   1.000  H
  C11      1.0000 0.41615  0.49830  0.70663  Biso   1.000  C
  H8       1.0000 0.39540  0.54940  0.68480  Biso   1.000  H
  C12      1.0000 0.36229  0.75298  0.09572  Biso   1.000  C
  Cd1      1.0000 0.68820  0.71601  0.81799  Biso   1.000  Cd
  N1       1.0000 0.58699  0.72046  0.92525  Biso   1.000  N
  N2       1.0000 0.38980  0.34592  0.72019  Biso   1.000  N
  O1       1.0000 0.64825  0.57056  0.80599  Biso   1.000  O
  O2       1.0000 0.52076  0.64998  0.75884  Biso   1.000  O
  O3       1.0000 0.34507  0.82863  0.11646  Biso   1.000  O
  O4       1.0000 0.30927  0.68915  0.11708  Biso   1.000  O
  C13      1.0000 0.99290  0.33504  0.43787  Biso   1.000  C
  H9       1.0000 0.00190  0.38100  0.40690  Biso   1.000  H
  C14      1.0000 0.06240  0.32859  0.49363  Biso   1.000  C
  H10      1.0000 0.11540  0.37050  0.50040  Biso   1.000  H
  C15      1.0000 0.05461  0.26083  0.53972  Biso   1.000  C
  C16      1.0000 0.97004  0.20406  0.52858  Biso   1.000  C
  H11      1.0000 0.95910  0.15800  0.55910  Biso   1.000  H
  C17      1.0000 0.90254  0.21623  0.47222  Biso   1.000  C
  H12      1.0000 0.84540  0.17770  0.46630  Biso   1.000  H
  C18      1.0000 0.93894  0.42116  0.27416  Biso   1.000  C
  C19      1.0000 0.00092  0.50226  0.25491  Biso   1.000  C
  C20      1.0000 0.97439  0.57976  0.28646  Biso   1.000  C
  H13      1.0000 0.91920  0.58250  0.31990  Biso   1.000  H
  C21      1.0000 0.03112  0.65345  0.26764  Biso   1.000  C
  H14      1.0000 0.01270  0.70510  0.28940  Biso   1.000  H
  C22      1.0000 0.13655  0.57843  0.19067  Biso   1.000  C
  H15      1.0000 0.19280  0.57720  0.15790  Biso   1.000  H
  C23      1.0000 0.08385  0.50170  0.20663  Biso   1.000  C
  H16      1.0000 0.10460  0.45060  0.18480  Biso   1.000  H
  C24      1.0000 0.13771  0.24702  0.59572  Biso   1.000  C
  Cd2      1.0000 0.81180  0.28399  0.31799  Biso   1.000  Cd
  N3       1.0000 0.91301  0.27954  0.42525  Biso   1.000  N
  N4       1.0000 0.11020  0.65408  0.22019  Biso   1.000  N
  O5       1.0000 0.85175  0.42944  0.30599  Biso   1.000  O
  O6       1.0000 0.97924  0.35002  0.25884  Biso   1.000  O
  O7       1.0000 0.15493  0.17137  0.61646  Biso   1.000  O
  O8       1.0000 0.19073  0.31085  0.61708  Biso   1.000  O
  C25      1.0000 0.49290  0.16496  0.56213  Biso   1.000  C
  H17      1.0000 0.50190  0.11900  0.59310  Biso   1.000  H
  C26      1.0000 0.56240  0.17141  0.50637  Biso   1.000  C
  H18      1.0000 0.61540  0.12950  0.49960  Biso   1.000  H
  C27      1.0000 0.55461  0.23917  0.46028  Biso   1.000  C
  C28      1.0000 0.47004  0.29594  0.47142  Biso   1.000  C
  H19      1.0000 0.45910  0.34200  0.44090  Biso   1.000  H
  C29      1.0000 0.40254  0.28377  0.52778  Biso   1.000  C
  H20      1.0000 0.34540  0.32230  0.53370  Biso   1.000  H
  C30      1.0000 0.43894  0.07884  0.72584  Biso   1.000  C
  C31      1.0000 0.50092  0.99774  0.74509  Biso   1.000  C
  C32      1.0000 0.47439  0.92024  0.71354  Biso   1.000  C
  H21      1.0000 0.41920  0.91750  0.68010  Biso   1.000  H
  C33      1.0000 0.53112  0.84655  0.73236  Biso   1.000  C
  H22      1.0000 0.51270  0.79490  0.71060  Biso   1.000  H
  C34      1.0000 0.63655  0.92157  0.80933  Biso   1.000  C
  H23      1.0000 0.69280  0.92280  0.84210  Biso   1.000  H
  C35      1.0000 0.58385  0.99830  0.79337  Biso   1.000  C
  H24      1.0000 0.60460  0.04940  0.81520  Biso   1.000  H
  C36      1.0000 0.63771  0.25298  0.40428  Biso   1.000  C
  Cd3      1.0000 0.31180  0.21601  0.68201  Biso   1.000  Cd
  N5       1.0000 0.41301  0.22046  0.57475  Biso   1.000  N
  N6       1.0000 0.61020  0.84592  0.77981  Biso   1.000  N
  O9       1.0000 0.35175  0.07056  0.69401  Biso   1.000  O
  O10      1.0000 0.47924  0.14998  0.74116  Biso   1.000  O
  O11      1.0000 0.65493  0.32863  0.38354  Biso   1.000  O
  O12      1.0000 0.69073  0.18915  0.38292  Biso   1.000  O
  C37      1.0000 0.00710  0.83504  0.06213  Biso   1.000  C
  H25      1.0000 0.99810  0.88100  0.09310  Biso   1.000  H
  C38      1.0000 0.93760  0.82859  0.00637  Biso   1.000  C
  H26      1.0000 0.88460  0.87050  0.99960  Biso   1.000  H
  C39      1.0000 0.94539  0.76083  0.96028  Biso   1.000  C
  C40      1.0000 0.02996  0.70406  0.97142  Biso   1.000  C
  H27      1.0000 0.04090  0.65800  0.94090  Biso   1.000  H
  C41      1.0000 0.09746  0.71623  0.02778  Biso   1.000  C
  H28      1.0000 0.15460  0.67770  0.03370  Biso   1.000  H
  C42      1.0000 0.06106  0.92116  0.22584  Biso   1.000  C
  C43      1.0000 0.99908  0.00226  0.24509  Biso   1.000  C
  C44      1.0000 0.02561  0.07976  0.21354  Biso   1.000  C
  H29      1.0000 0.08080  0.08250  0.18010  Biso   1.000  H
  C45      1.0000 0.96888  0.15345  0.23236  Biso   1.000  C
  H30      1.0000 0.98730  0.20510  0.21060  Biso   1.000  H
  C46      1.0000 0.86345  0.07843  0.30933  Biso   1.000  C
  H31      1.0000 0.80720  0.07720  0.34210  Biso   1.000  H
  C47      1.0000 0.91615  0.00170  0.29337  Biso   1.000  C
  H32      1.0000 0.89540  0.95060  0.31520  Biso   1.000  H
  C48      1.0000 0.86229  0.74702  0.90428  Biso   1.000  C
  Cd4      1.0000 0.18820  0.78399  0.18201  Biso   1.000  Cd
  N7       1.0000 0.08699  0.77954  0.07475  Biso   1.000  N
  N8       1.0000 0.88980  0.15408  0.27981  Biso   1.000  N
  O13      1.0000 0.14825  0.92944  0.19401  Biso   1.000  O
  O14      1.0000 0.02076  0.85002  0.24116  Biso   1.000  O
  O15      1.0000 0.84507  0.67137  0.88354  Biso   1.000  O
  O16      1.0000 0.80927  0.81085  0.88292  Biso   1.000  O
  C49      1.0000 0.49290  0.33504  0.06213  Biso   1.000  C
  H33      1.0000 0.50190  0.38100  0.09310  Biso   1.000  H
  C50      1.0000 0.56240  0.32859  0.00637  Biso   1.000  C
  H34      1.0000 0.61540  0.37050  0.99960  Biso   1.000  H
  C51      1.0000 0.55461  0.26083  0.96028  Biso   1.000  C
  C52      1.0000 0.47004  0.20406  0.97142  Biso   1.000  C
  H35      1.0000 0.45910  0.15800  0.94090  Biso   1.000  H
  C53      1.0000 0.40254  0.21623  0.02778  Biso   1.000  C
  H36      1.0000 0.34540  0.17770  0.03370  Biso   1.000  H
  C54      1.0000 0.43894  0.42116  0.22584  Biso   1.000  C
  C55      1.0000 0.50092  0.50226  0.24509  Biso   1.000  C
  C56      1.0000 0.47439  0.57976  0.21354  Biso   1.000  C
  H37      1.0000 0.41920  0.58250  0.18010  Biso   1.000  H
  C57      1.0000 0.53112  0.65345  0.23236  Biso   1.000  C
  H38      1.0000 0.51270  0.70510  0.21060  Biso   1.000  H
  C58      1.0000 0.63655  0.57843  0.30933  Biso   1.000  C
  H39      1.0000 0.69280  0.57720  0.34210  Biso   1.000  H
  C59      1.0000 0.58385  0.50170  0.29337  Biso   1.000  C
  H40      1.0000 0.60460  0.45060  0.31520  Biso   1.000  H
  C60      1.0000 0.63771  0.24702  0.90428  Biso   1.000  C
  Cd5      1.0000 0.31180  0.28399  0.18201  Biso   1.000  Cd
  N9       1.0000 0.41301  0.27954  0.07475  Biso   1.000  N
  N10      1.0000 0.61020  0.65408  0.27981  Biso   1.000  N
  O17      1.0000 0.35175  0.42944  0.19401  Biso   1.000  O
  O18      1.0000 0.47924  0.35002  0.24116  Biso   1.000  O
  O19      1.0000 0.65493  0.17137  0.88354  Biso   1.000  O
  O20      1.0000 0.69073  0.31085  0.88292  Biso   1.000  O
  C61      1.0000 0.00710  0.66496  0.56213  Biso   1.000  C
  H41      1.0000 0.99810  0.61900  0.59310  Biso   1.000  H
  C62      1.0000 0.93760  0.67141  0.50637  Biso   1.000  C
  H42      1.0000 0.88460  0.62950  0.49960  Biso   1.000  H
  C63      1.0000 0.94539  0.73917  0.46028  Biso   1.000  C
  C64      1.0000 0.02996  0.79594  0.47142  Biso   1.000  C
  H43      1.0000 0.04090  0.84200  0.44090  Biso   1.000  H
  C65      1.0000 0.09746  0.78377  0.52778  Biso   1.000  C
  H44      1.0000 0.15460  0.82230  0.53370  Biso   1.000  H
  C66      1.0000 0.06106  0.57884  0.72584  Biso   1.000  C
  C67      1.0000 0.99908  0.49774  0.74509  Biso   1.000  C
  C68      1.0000 0.02561  0.42024  0.71354  Biso   1.000  C
  H45      1.0000 0.08080  0.41750  0.68010  Biso   1.000  H
  C69      1.0000 0.96888  0.34655  0.73236  Biso   1.000  C
  H46      1.0000 0.98730  0.29490  0.71060  Biso   1.000  H
  C70      1.0000 0.86345  0.42157  0.80933  Biso   1.000  C
  H47      1.0000 0.80720  0.42280  0.84210  Biso   1.000  H
  C71      1.0000 0.91615  0.49830  0.79337  Biso   1.000  C
  H48      1.0000 0.89540  0.54940  0.81520  Biso   1.000  H
  C72      1.0000 0.86229  0.75298  0.40428  Biso   1.000  C
  Cd6      1.0000 0.18820  0.71601  0.68201  Biso   1.000  Cd
  N11      1.0000 0.08699  0.72046  0.57475  Biso   1.000  N
  N12      1.0000 0.88980  0.34592  0.77981  Biso   1.000  N
  O21      1.0000 0.14825  0.57056  0.69401  Biso   1.000  O
  O22      1.0000 0.02076  0.64998  0.74116  Biso   1.000  O
  O23      1.0000 0.84507  0.82863  0.38354  Biso   1.000  O
  O24      1.0000 0.80927  0.68915  0.38292  Biso   1.000  O
  C73      1.0000 0.50710  0.83504  0.43787  Biso   1.000  C
  H49      1.0000 0.49810  0.88100  0.40690  Biso   1.000  H
  C74      1.0000 0.43760  0.82859  0.49363  Biso   1.000  C
  H50      1.0000 0.38460  0.87050  0.50040  Biso   1.000  H
  C75      1.0000 0.44539  0.76083  0.53972  Biso   1.000  C
  C76      1.0000 0.52996  0.70406  0.52858  Biso   1.000  C
  H51      1.0000 0.54090  0.65800  0.55910  Biso   1.000  H
  C77      1.0000 0.59746  0.71623  0.47222  Biso   1.000  C
  H52      1.0000 0.65460  0.67770  0.46630  Biso   1.000  H
  C78      1.0000 0.56106  0.92116  0.27416  Biso   1.000  C
  C79      1.0000 0.49908  0.00226  0.25491  Biso   1.000  C
  C80      1.0000 0.52561  0.07976  0.28646  Biso   1.000  C
  H53      1.0000 0.58080  0.08250  0.31990  Biso   1.000  H
  C81      1.0000 0.46888  0.15345  0.26764  Biso   1.000  C
  H54      1.0000 0.48730  0.20510  0.28940  Biso   1.000  H
  C82      1.0000 0.36345  0.07843  0.19067  Biso   1.000  C
  H55      1.0000 0.30720  0.07720  0.15790  Biso   1.000  H
  C83      1.0000 0.41615  0.00170  0.20663  Biso   1.000  C
  H56      1.0000 0.39540  0.95060  0.18480  Biso   1.000  H
  C84      1.0000 0.36229  0.74702  0.59572  Biso   1.000  C
  Cd7      1.0000 0.68820  0.78399  0.31799  Biso   1.000  Cd
  N13      1.0000 0.58699  0.77954  0.42525  Biso   1.000  N
  N14      1.0000 0.38980  0.15408  0.22019  Biso   1.000  N
  O25      1.0000 0.64825  0.92944  0.30599  Biso   1.000  O
  O26      1.0000 0.52076  0.85002  0.25884  Biso   1.000  O
  O27      1.0000 0.34507  0.67137  0.61646  Biso   1.000  O
  O28      1.0000 0.30927  0.81085  0.61708  Biso   1.000  O
  C85      1.0000 0.99290  0.16496  0.93787  Biso   1.000  C
  H57      1.0000 0.00190  0.11900  0.90690  Biso   1.000  H
  C86      1.0000 0.06240  0.17141  0.99363  Biso   1.000  C
  H58      1.0000 0.11540  0.12950  0.00040  Biso   1.000  H
  C87      1.0000 0.05461  0.23917  0.03972  Biso   1.000  C
  C88      1.0000 0.97004  0.29594  0.02858  Biso   1.000  C
  H59      1.0000 0.95910  0.34200  0.05910  Biso   1.000  H
  C89      1.0000 0.90254  0.28377  0.97222  Biso   1.000  C
  H60      1.0000 0.84540  0.32230  0.96630  Biso   1.000  H
  C90      1.0000 0.93894  0.07884  0.77416  Biso   1.000  C
  C91      1.0000 0.00092  0.99774  0.75491  Biso   1.000  C
  C92      1.0000 0.97439  0.92024  0.78646  Biso   1.000  C
  H61      1.0000 0.91920  0.91750  0.81990  Biso   1.000  H
  C93      1.0000 0.03112  0.84655  0.76764  Biso   1.000  C
  H62      1.0000 0.01270  0.79490  0.78940  Biso   1.000  H
  C94      1.0000 0.13655  0.92157  0.69067  Biso   1.000  C
  H63      1.0000 0.19280  0.92280  0.65790  Biso   1.000  H
  C95      1.0000 0.08385  0.99830  0.70663  Biso   1.000  C
  H64      1.0000 0.10460  0.04940  0.68480  Biso   1.000  H
  C96      1.0000 0.13771  0.25298  0.09572  Biso   1.000  C
  Cd8      1.0000 0.81180  0.21601  0.81799  Biso   1.000  Cd
  N15      1.0000 0.91301  0.22046  0.92525  Biso   1.000  N
  N16      1.0000 0.11020  0.84592  0.72019  Biso   1.000  N
  O29      1.0000 0.85175  0.07056  0.80599  Biso   1.000  O
  O30      1.0000 0.97924  0.14998  0.75884  Biso   1.000  O
  O31      1.0000 0.15493  0.32863  0.11646  Biso   1.000  O
  O32      1.0000 0.19073  0.18915  0.11708  Biso   1.000  O
