data_image0
_cell_length_a       12.282
_cell_length_b       22.79
_cell_length_c       13.58
_cell_angle_alpha    90
_cell_angle_beta     91.87
_cell_angle_gamma    90

_symmetry_space_group_name_H-M    "P 1"
_symmetry_int_tables_number       1

loop_
  _symmetry_equiv_pos_as_xyz
  'x, y, z'

loop_
  _atom_site_label
  _atom_site_occupancy
  _atom_site_fract_x
  _atom_site_fract_y
  _atom_site_fract_z
  _atom_site_thermal_displace_type
  _atom_site_B_iso_or_equiv
  _atom_site_type_symbol
  N1       1.0000 0.41920  0.26468  0.48130  Biso   1.000  N
  C1       1.0000 0.46990  0.23500  0.41020  Biso   1.000  C
  H1       1.0000 0.43100  0.20500  0.37570  Biso   1.000  H
  C2       1.0000 0.57430  0.24629  0.38600  Biso   1.000  C
  H2       1.0000 0.60650  0.22420  0.33530  Biso   1.000  H
  C3       1.0000 0.63490  0.29009  0.43470  Biso   1.000  C
  C4       1.0000 0.58300  0.31899  0.51060  Biso   1.000  C
  H3       1.0000 0.62070  0.34830  0.54790  Biso   1.000  H
  C5       1.0000 0.47750  0.30520  0.53150  Biso   1.000  C
  H4       1.0000 0.44420  0.32520  0.58400  Biso   1.000  H
  C6       1.0000 0.74680  0.30556  0.40300  Biso   1.000  C
  H5       1.0000 0.79150  0.31710  0.46180  Biso   1.000  H
  H6       1.0000 0.78060  0.27020  0.37450  Biso   1.000  H
  N2       1.0000 0.74920  0.35347  0.33000  Biso   1.000  N
  C7       1.0000 0.72800  0.41168  0.37130  Biso   1.000  C
  H7       1.0000 0.77660  0.41850  0.42980  Biso   1.000  H
  H8       1.0000 0.65170  0.41390  0.39240  Biso   1.000  H
  C8       1.0000 0.74750  0.45815  0.29460  Biso   1.000  C
  H9       1.0000 0.73480  0.49750  0.32270  Biso   1.000  H
  H10      1.0000 0.82400  0.45620  0.27400  Biso   1.000  H
  N3       1.0000 0.67270  0.44851  0.20800  Biso   1.000  N
  C9       1.0000 0.69670  0.38963  0.16690  Biso   1.000  C
  H11      1.0000 0.77290  0.38850  0.14530  Biso   1.000  H
  H12      1.0000 0.64810  0.38210  0.10870  Biso   1.000  H
  C10      1.0000 0.68030  0.34255  0.24350  Biso   1.000  C
  H13      1.0000 0.60300  0.34200  0.26220  Biso   1.000  H
  H14      1.0000 0.69790  0.30370  0.21560  Biso   1.000  H
  C11      1.0000 0.69030  0.49452  0.13230  Biso   1.000  C
  H15      1.0000 0.75650  0.48510  0.09570  Biso   1.000  H
  H16      1.0000 0.70180  0.53290  0.16510  Biso   1.000  H
  C12      1.0000 0.59380  0.49830  0.06150  Biso   1.000  C
  C13      1.0000 0.50550  0.53396  0.08480  Biso   1.000  C
  H17      1.0000 0.50930  0.55730  0.14270  Biso   1.000  H
  C14      1.0000 0.58730  0.46449  0.97560  Biso   1.000  C
  H18      1.0000 0.64700  0.44040  0.95860  Biso   1.000  H
  N4       1.0000 0.91920  0.76468  0.48130  Biso   1.000  N
  C15      1.0000 0.96990  0.73500  0.41020  Biso   1.000  C
  H19      1.0000 0.93100  0.70500  0.37570  Biso   1.000  H
  C16      1.0000 0.07430  0.74629  0.38600  Biso   1.000  C
  H20      1.0000 0.10650  0.72420  0.33530  Biso   1.000  H
  C17      1.0000 0.13490  0.79009  0.43470  Biso   1.000  C
  C18      1.0000 0.08300  0.81899  0.51060  Biso   1.000  C
  H21      1.0000 0.12070  0.84830  0.54790  Biso   1.000  H
  C19      1.0000 0.97750  0.80520  0.53150  Biso   1.000  C
  H22      1.0000 0.94420  0.82520  0.58400  Biso   1.000  H
  C20      1.0000 0.24680  0.80556  0.40300  Biso   1.000  C
  H23      1.0000 0.29150  0.81710  0.46180  Biso   1.000  H
  H24      1.0000 0.28060  0.77020  0.37450  Biso   1.000  H
  N5       1.0000 0.24920  0.85347  0.33000  Biso   1.000  N
  C21      1.0000 0.22800  0.91168  0.37130  Biso   1.000  C
  H25      1.0000 0.27660  0.91850  0.42980  Biso   1.000  H
  H26      1.0000 0.15170  0.91390  0.39240  Biso   1.000  H
  C22      1.0000 0.24750  0.95815  0.29460  Biso   1.000  C
  H27      1.0000 0.23480  0.99750  0.32270  Biso   1.000  H
  H28      1.0000 0.32400  0.95620  0.27400  Biso   1.000  H
  N6       1.0000 0.17270  0.94851  0.20800  Biso   1.000  N
  C23      1.0000 0.19670  0.88963  0.16690  Biso   1.000  C
  H29      1.0000 0.27290  0.88850  0.14530  Biso   1.000  H
  H30      1.0000 0.14810  0.88210  0.10870  Biso   1.000  H
  C24      1.0000 0.18030  0.84255  0.24350  Biso   1.000  C
  H31      1.0000 0.10300  0.84200  0.26220  Biso   1.000  H
  H32      1.0000 0.19790  0.80370  0.21560  Biso   1.000  H
  C25      1.0000 0.19030  0.99452  0.13230  Biso   1.000  C
  H33      1.0000 0.25650  0.98510  0.09570  Biso   1.000  H
  H34      1.0000 0.20180  0.03290  0.16510  Biso   1.000  H
  C26      1.0000 0.09380  0.99830  0.06150  Biso   1.000  C
  C27      1.0000 0.00550  0.03396  0.08480  Biso   1.000  C
  H35      1.0000 0.00930  0.05730  0.14270  Biso   1.000  H
  C28      1.0000 0.08730  0.96449  0.97560  Biso   1.000  C
  H36      1.0000 0.14700  0.94040  0.95860  Biso   1.000  H
  N7       1.0000 0.58080  0.26468  0.01870  Biso   1.000  N
  C29      1.0000 0.53010  0.23500  0.08980  Biso   1.000  C
  H37      1.0000 0.56900  0.20500  0.12430  Biso   1.000  H
  C30      1.0000 0.42570  0.24629  0.11400  Biso   1.000  C
  H38      1.0000 0.39350  0.22420  0.16470  Biso   1.000  H
  C31      1.0000 0.36510  0.29009  0.06530  Biso   1.000  C
  C32      1.0000 0.41700  0.31899  0.98940  Biso   1.000  C
  H39      1.0000 0.37930  0.34830  0.95210  Biso   1.000  H
  C33      1.0000 0.52250  0.30520  0.96850  Biso   1.000  C
  H40      1.0000 0.55580  0.32520  0.91600  Biso   1.000  H
  C34      1.0000 0.25320  0.30556  0.09700  Biso   1.000  C
  H41      1.0000 0.20850  0.31710  0.03820  Biso   1.000  H
  H42      1.0000 0.21940  0.27020  0.12550  Biso   1.000  H
  N8       1.0000 0.25080  0.35347  0.17000  Biso   1.000  N
  C35      1.0000 0.27200  0.41168  0.12870  Biso   1.000  C
  H43      1.0000 0.22340  0.41850  0.07020  Biso   1.000  H
  H44      1.0000 0.34830  0.41390  0.10760  Biso   1.000  H
  C36      1.0000 0.25250  0.45815  0.20540  Biso   1.000  C
  H45      1.0000 0.26520  0.49750  0.17730  Biso   1.000  H
  H46      1.0000 0.17600  0.45620  0.22600  Biso   1.000  H
  N9       1.0000 0.32730  0.44851  0.29200  Biso   1.000  N
  C37      1.0000 0.30330  0.38963  0.33310  Biso   1.000  C
  H47      1.0000 0.22710  0.38850  0.35470  Biso   1.000  H
  H48      1.0000 0.35190  0.38210  0.39130  Biso   1.000  H
  C38      1.0000 0.31970  0.34255  0.25650  Biso   1.000  C
  H49      1.0000 0.39700  0.34200  0.23780  Biso   1.000  H
  H50      1.0000 0.30210  0.30370  0.28440  Biso   1.000  H
  C39      1.0000 0.30970  0.49452  0.36770  Biso   1.000  C
  H51      1.0000 0.24350  0.48510  0.40430  Biso   1.000  H
  H52      1.0000 0.29820  0.53290  0.33490  Biso   1.000  H
  C40      1.0000 0.40620  0.49830  0.43850  Biso   1.000  C
  C41      1.0000 0.49450  0.53396  0.41520  Biso   1.000  C
  H53      1.0000 0.49070  0.55730  0.35730  Biso   1.000  H
  C42      1.0000 0.41270  0.46449  0.52440  Biso   1.000  C
  H54      1.0000 0.35300  0.44040  0.54140  Biso   1.000  H
  N10      1.0000 0.08080  0.76468  0.01870  Biso   1.000  N
  C43      1.0000 0.03010  0.73500  0.08980  Biso   1.000  C
  H55      1.0000 0.06900  0.70500  0.12430  Biso   1.000  H
  C44      1.0000 0.92570  0.74629  0.11400  Biso   1.000  C
  H56      1.0000 0.89350  0.72420  0.16470  Biso   1.000  H
  C45      1.0000 0.86510  0.79009  0.06530  Biso   1.000  C
  C46      1.0000 0.91700  0.81899  0.98940  Biso   1.000  C
  H57      1.0000 0.87930  0.84830  0.95210  Biso   1.000  H
  C47      1.0000 0.02250  0.80520  0.96850  Biso   1.000  C
  H58      1.0000 0.05580  0.82520  0.91600  Biso   1.000  H
  C48      1.0000 0.75320  0.80556  0.09700  Biso   1.000  C
  H59      1.0000 0.70850  0.81710  0.03820  Biso   1.000  H
  H60      1.0000 0.71940  0.77020  0.12550  Biso   1.000  H
  N11      1.0000 0.75080  0.85347  0.17000  Biso   1.000  N
  C49      1.0000 0.77200  0.91168  0.12870  Biso   1.000  C
  H61      1.0000 0.72340  0.91850  0.07020  Biso   1.000  H
  H62      1.0000 0.84830  0.91390  0.10760  Biso   1.000  H
  C50      1.0000 0.75250  0.95815  0.20540  Biso   1.000  C
  H63      1.0000 0.76520  0.99750  0.17730  Biso   1.000  H
  H64      1.0000 0.67600  0.95620  0.22600  Biso   1.000  H
  N12      1.0000 0.82730  0.94851  0.29200  Biso   1.000  N
  C51      1.0000 0.80330  0.88963  0.33310  Biso   1.000  C
  H65      1.0000 0.72710  0.88850  0.35470  Biso   1.000  H
  H66      1.0000 0.85190  0.88210  0.39130  Biso   1.000  H
  C52      1.0000 0.81970  0.84255  0.25650  Biso   1.000  C
  H67      1.0000 0.89700  0.84200  0.23780  Biso   1.000  H
  H68      1.0000 0.80210  0.80370  0.28440  Biso   1.000  H
  C53      1.0000 0.80970  0.99452  0.36770  Biso   1.000  C
  H69      1.0000 0.74350  0.98510  0.40430  Biso   1.000  H
  H70      1.0000 0.79820  0.03290  0.33490  Biso   1.000  H
  C54      1.0000 0.90620  0.99830  0.43850  Biso   1.000  C
  C55      1.0000 0.99450  0.03396  0.41520  Biso   1.000  C
  H71      1.0000 0.99070  0.05730  0.35730  Biso   1.000  H
  C56      1.0000 0.91270  0.96449  0.52440  Biso   1.000  C
  H72      1.0000 0.85300  0.94040  0.54140  Biso   1.000  H
  N13      1.0000 0.58080  0.73532  0.51870  Biso   1.000  N
  C57      1.0000 0.53010  0.76500  0.58980  Biso   1.000  C
  H73      1.0000 0.56900  0.79500  0.62430  Biso   1.000  H
  C58      1.0000 0.42570  0.75371  0.61400  Biso   1.000  C
  H74      1.0000 0.39350  0.77580  0.66470  Biso   1.000  H
  C59      1.0000 0.36510  0.70991  0.56530  Biso   1.000  C
  C60      1.0000 0.41700  0.68101  0.48940  Biso   1.000  C
  H75      1.0000 0.37930  0.65170  0.45210  Biso   1.000  H
  C61      1.0000 0.52250  0.69480  0.46850  Biso   1.000  C
  H76      1.0000 0.55580  0.67480  0.41600  Biso   1.000  H
  C62      1.0000 0.25320  0.69444  0.59700  Biso   1.000  C
  H77      1.0000 0.20850  0.68290  0.53820  Biso   1.000  H
  H78      1.0000 0.21940  0.72980  0.62550  Biso   1.000  H
  N14      1.0000 0.25080  0.64653  0.67000  Biso   1.000  N
  C63      1.0000 0.27200  0.58832  0.62870  Biso   1.000  C
  H79      1.0000 0.22340  0.58150  0.57020  Biso   1.000  H
  H80      1.0000 0.34830  0.58610  0.60760  Biso   1.000  H
  C64      1.0000 0.25250  0.54185  0.70540  Biso   1.000  C
  H81      1.0000 0.26520  0.50250  0.67730  Biso   1.000  H
  H82      1.0000 0.17600  0.54380  0.72600  Biso   1.000  H
  N15      1.0000 0.32730  0.55149  0.79200  Biso   1.000  N
  C65      1.0000 0.30330  0.61037  0.83310  Biso   1.000  C
  H83      1.0000 0.22710  0.61150  0.85470  Biso   1.000  H
  H84      1.0000 0.35190  0.61790  0.89130  Biso   1.000  H
  C66      1.0000 0.31970  0.65745  0.75650  Biso   1.000  C
  H85      1.0000 0.39700  0.65800  0.73780  Biso   1.000  H
  H86      1.0000 0.30210  0.69630  0.78440  Biso   1.000  H
  C67      1.0000 0.30970  0.50548  0.86770  Biso   1.000  C
  H87      1.0000 0.24350  0.51490  0.90430  Biso   1.000  H
  H88      1.0000 0.29820  0.46710  0.83490  Biso   1.000  H
  C68      1.0000 0.40620  0.50170  0.93850  Biso   1.000  C
  C69      1.0000 0.49450  0.46604  0.91520  Biso   1.000  C
  H89      1.0000 0.49070  0.44270  0.85730  Biso   1.000  H
  C70      1.0000 0.41270  0.53551  0.02440  Biso   1.000  C
  H90      1.0000 0.35300  0.55960  0.04140  Biso   1.000  H
  N16      1.0000 0.08080  0.23532  0.51870  Biso   1.000  N
  C71      1.0000 0.03010  0.26500  0.58980  Biso   1.000  C
  H91      1.0000 0.06900  0.29500  0.62430  Biso   1.000  H
  C72      1.0000 0.92570  0.25371  0.61400  Biso   1.000  C
  H92      1.0000 0.89350  0.27580  0.66470  Biso   1.000  H
  C73      1.0000 0.86510  0.20991  0.56530  Biso   1.000  C
  C74      1.0000 0.91700  0.18101  0.48940  Biso   1.000  C
  H93      1.0000 0.87930  0.15170  0.45210  Biso   1.000  H
  C75      1.0000 0.02250  0.19480  0.46850  Biso   1.000  C
  H94      1.0000 0.05580  0.17480  0.41600  Biso   1.000  H
  C76      1.0000 0.75320  0.19444  0.59700  Biso   1.000  C
  H95      1.0000 0.70850  0.18290  0.53820  Biso   1.000  H
  H96      1.0000 0.71940  0.22980  0.62550  Biso   1.000  H
  N17      1.0000 0.75080  0.14653  0.67000  Biso   1.000  N
  C77      1.0000 0.77200  0.08832  0.62870  Biso   1.000  C
  H97      1.0000 0.72340  0.08150  0.57020  Biso   1.000  H
  H98      1.0000 0.84830  0.08610  0.60760  Biso   1.000  H
  C78      1.0000 0.75250  0.04185  0.70540  Biso   1.000  C
  H99      1.0000 0.76520  0.00250  0.67730  Biso   1.000  H
  H100     1.0000 0.67600  0.04380  0.72600  Biso   1.000  H
  N18      1.0000 0.82730  0.05149  0.79200  Biso   1.000  N
  C79      1.0000 0.80330  0.11037  0.83310  Biso   1.000  C
  H101     1.0000 0.72710  0.11150  0.85470  Biso   1.000  H
  H102     1.0000 0.85190  0.11790  0.89130  Biso   1.000  H
  C80      1.0000 0.81970  0.15745  0.75650  Biso   1.000  C
  H103     1.0000 0.89700  0.15800  0.73780  Biso   1.000  H
  H104     1.0000 0.80210  0.19630  0.78440  Biso   1.000  H
  C81      1.0000 0.80970  0.00548  0.86770  Biso   1.000  C
  H105     1.0000 0.74350  0.01490  0.90430  Biso   1.000  H
  H106     1.0000 0.79820  0.96710  0.83490  Biso   1.000  H
  C82      1.0000 0.90620  0.00170  0.93850  Biso   1.000  C
  C83      1.0000 0.99450  0.96604  0.91520  Biso   1.000  C
  H107     1.0000 0.99070  0.94270  0.85730  Biso   1.000  H
  C84      1.0000 0.91270  0.03551  0.02440  Biso   1.000  C
  H108     1.0000 0.85300  0.05960  0.04140  Biso   1.000  H
  N19      1.0000 0.41920  0.73532  0.98130  Biso   1.000  N
  C85      1.0000 0.46990  0.76500  0.91020  Biso   1.000  C
  H109     1.0000 0.43100  0.79500  0.87570  Biso   1.000  H
  C86      1.0000 0.57430  0.75371  0.88600  Biso   1.000  C
  H110     1.0000 0.60650  0.77580  0.83530  Biso   1.000  H
  C87      1.0000 0.63490  0.70991  0.93470  Biso   1.000  C
  C88      1.0000 0.58300  0.68101  0.01060  Biso   1.000  C
  H111     1.0000 0.62070  0.65170  0.04790  Biso   1.000  H
  C89      1.0000 0.47750  0.69480  0.03150  Biso   1.000  C
  H112     1.0000 0.44420  0.67480  0.08400  Biso   1.000  H
  C90      1.0000 0.74680  0.69444  0.90300  Biso   1.000  C
  H113     1.0000 0.79150  0.68290  0.96180  Biso   1.000  H
  H114     1.0000 0.78060  0.72980  0.87450  Biso   1.000  H
  N20      1.0000 0.74920  0.64653  0.83000  Biso   1.000  N
  C91      1.0000 0.72800  0.58832  0.87130  Biso   1.000  C
  H115     1.0000 0.77660  0.58150  0.92980  Biso   1.000  H
  H116     1.0000 0.65170  0.58610  0.89240  Biso   1.000  H
  C92      1.0000 0.74750  0.54185  0.79460  Biso   1.000  C
  H117     1.0000 0.73480  0.50250  0.82270  Biso   1.000  H
  H118     1.0000 0.82400  0.54380  0.77400  Biso   1.000  H
  N21      1.0000 0.67270  0.55149  0.70800  Biso   1.000  N
  C93      1.0000 0.69670  0.61037  0.66690  Biso   1.000  C
  H119     1.0000 0.77290  0.61150  0.64530  Biso   1.000  H
  H120     1.0000 0.64810  0.61790  0.60870  Biso   1.000  H
  C94      1.0000 0.68030  0.65745  0.74350  Biso   1.000  C
  H121     1.0000 0.60300  0.65800  0.76220  Biso   1.000  H
  H122     1.0000 0.69790  0.69630  0.71560  Biso   1.000  H
  C95      1.0000 0.69030  0.50548  0.63230  Biso   1.000  C
  H123     1.0000 0.75650  0.51490  0.59570  Biso   1.000  H
  H124     1.0000 0.70180  0.46710  0.66510  Biso   1.000  H
  C96      1.0000 0.59380  0.50170  0.56150  Biso   1.000  C
  C97      1.0000 0.50550  0.46604  0.58480  Biso   1.000  C
  H125     1.0000 0.50930  0.44270  0.64270  Biso   1.000  H
  C98      1.0000 0.58730  0.53551  0.47560  Biso   1.000  C
  H126     1.0000 0.64700  0.55960  0.45860  Biso   1.000  H
  N22      1.0000 0.91920  0.23532  0.98130  Biso   1.000  N
  C99      1.0000 0.96990  0.26500  0.91020  Biso   1.000  C
  H127     1.0000 0.93100  0.29500  0.87570  Biso   1.000  H
  C100     1.0000 0.07430  0.25371  0.88600  Biso   1.000  C
  H128     1.0000 0.10650  0.27580  0.83530  Biso   1.000  H
  C101     1.0000 0.13490  0.20991  0.93470  Biso   1.000  C
  C102     1.0000 0.08300  0.18101  0.01060  Biso   1.000  C
  H129     1.0000 0.12070  0.15170  0.04790  Biso   1.000  H
  C103     1.0000 0.97750  0.19480  0.03150  Biso   1.000  C
  H130     1.0000 0.94420  0.17480  0.08400  Biso   1.000  H
  C104     1.0000 0.24680  0.19444  0.90300  Biso   1.000  C
  H131     1.0000 0.29150  0.18290  0.96180  Biso   1.000  H
  H132     1.0000 0.28060  0.22980  0.87450  Biso   1.000  H
  N23      1.0000 0.24920  0.14653  0.83000  Biso   1.000  N
  C105     1.0000 0.22800  0.08832  0.87130  Biso   1.000  C
  H133     1.0000 0.27660  0.08150  0.92980  Biso   1.000  H
  H134     1.0000 0.15170  0.08610  0.89240  Biso   1.000  H
  C106     1.0000 0.24750  0.04185  0.79460  Biso   1.000  C
  H135     1.0000 0.23480  0.00250  0.82270  Biso   1.000  H
  H136     1.0000 0.32400  0.04380  0.77400  Biso   1.000  H
  N24      1.0000 0.17270  0.05149  0.70800  Biso   1.000  N
  C107     1.0000 0.19670  0.11037  0.66690  Biso   1.000  C
  H137     1.0000 0.27290  0.11150  0.64530  Biso   1.000  H
  H138     1.0000 0.14810  0.11790  0.60870  Biso   1.000  H
  C108     1.0000 0.18030  0.15745  0.74350  Biso   1.000  C
  H139     1.0000 0.10300  0.15800  0.76220  Biso   1.000  H
  H140     1.0000 0.19790  0.19630  0.71560  Biso   1.000  H
  C109     1.0000 0.19030  0.00548  0.63230  Biso   1.000  C
  H141     1.0000 0.25650  0.01490  0.59570  Biso   1.000  H
  H142     1.0000 0.20180  0.96710  0.66510  Biso   1.000  H
  C110     1.0000 0.09380  0.00170  0.56150  Biso   1.000  C
  C111     1.0000 0.00550  0.96604  0.58480  Biso   1.000  C
  H143     1.0000 0.00930  0.94270  0.64270  Biso   1.000  H
  C112     1.0000 0.08730  0.03551  0.47560  Biso   1.000  C
  H144     1.0000 0.14700  0.05960  0.45860  Biso   1.000  H
  Ag1      1.0000 0.25000  0.25000  0.50000  Biso   1.000  Ag
  Ag2      1.0000 0.75000  0.25000  0.00000  Biso   1.000  Ag
  Ag3      1.0000 0.75000  0.75000  0.50000  Biso   1.000  Ag
  Ag4      1.0000 0.25000  0.75000  0.00000  Biso   1.000  Ag
  Ag5      1.0000 0.50000  0.45117  0.25000  Biso   1.000  Ag
  Ag6      1.0000 0.00000  0.95117  0.25000  Biso   1.000  Ag
  Ag7      1.0000 0.50000  0.54883  0.75000  Biso   1.000  Ag
  Ag8      1.0000 0.00000  0.04883  0.75000  Biso   1.000  Ag
