data_image0
_cell_length_a       12.975
_cell_length_b       23.05
_cell_length_c       13.155
_cell_angle_alpha    90
_cell_angle_beta     91.819
_cell_angle_gamma    90

_symmetry_space_group_name_H-M    "P 1"
_symmetry_int_tables_number       1

loop_
  _symmetry_equiv_pos_as_xyz
  'x, y, z'

loop_
  _atom_site_label
  _atom_site_occupancy
  _atom_site_fract_x
  _atom_site_fract_y
  _atom_site_fract_z
  _atom_site_thermal_displace_type
  _atom_site_B_iso_or_equiv
  _atom_site_type_symbol
  N1       1.0000 0.91010  0.26440  0.48110  Biso   1.000  N
  C1       1.0000 0.96530  0.30410  0.53620  Biso   1.000  C
  H1       1.0000 0.93190  0.32400  0.58920  Biso   1.000  H
  C2       1.0000 0.06510  0.31680  0.51990  Biso   1.000  C
  H2       1.0000 0.09970  0.34520  0.56080  Biso   1.000  H
  C3       1.0000 0.11780  0.28850  0.44270  Biso   1.000  C
  C4       1.0000 0.06270  0.24550  0.38920  Biso   1.000  C
  H3       1.0000 0.09580  0.22350  0.33860  Biso   1.000  H
  C5       1.0000 0.96080  0.23470  0.40920  Biso   1.000  C
  H4       1.0000 0.92500  0.20550  0.37130  Biso   1.000  H
  C6       1.0000 0.22530  0.30400  0.41600  Biso   1.000  C
  H5       1.0000 0.26400  0.31520  0.47900  Biso   1.000  H
  H6       1.0000 0.25900  0.26920  0.38820  Biso   1.000  H
  N2       1.0000 0.23290  0.35166  0.34160  Biso   1.000  N
  C7       1.0000 0.17480  0.34020  0.24810  Biso   1.000  C
  H7       1.0000 0.10040  0.33840  0.26220  Biso   1.000  H
  H8       1.0000 0.19560  0.30220  0.22030  Biso   1.000  H
  C8       1.0000 0.19340  0.38750  0.16990  Biso   1.000  C
  H9       1.0000 0.26710  0.38790  0.15260  Biso   1.000  H
  H10      1.0000 0.15200  0.37950  0.10700  Biso   1.000  H
  N3       1.0000 0.16420  0.44502  0.21160  Biso   1.000  N
  C9       1.0000 0.23010  0.45530  0.30530  Biso   1.000  C
  H11      1.0000 0.21480  0.49400  0.33390  Biso   1.000  H
  H12      1.0000 0.30380  0.45430  0.28820  Biso   1.000  H
  C10      1.0000 0.20790  0.40850  0.38280  Biso   1.000  C
  H13      1.0000 0.24960  0.41550  0.44590  Biso   1.000  H
  H14      1.0000 0.13420  0.40970  0.39980  Biso   1.000  H
  C11      1.0000 0.18130  0.49200  0.13540  Biso   1.000  C
  H15      1.0000 0.24370  0.48320  0.09680  Biso   1.000  H
  H16      1.0000 0.19230  0.52940  0.17100  Biso   1.000  H
  C12      1.0000 0.08930  0.49662  0.06340  Biso   1.000  C
  C13      1.0000 0.00770  0.53338  0.08710  Biso   1.000  C
  H17      1.0000 0.01280  0.55650  0.14680  Biso   1.000  H
  C14      1.0000 0.91990  0.53674  0.02530  Biso   1.000  C
  H18      1.0000 0.86530  0.56190  0.04320  Biso   1.000  H
  N4       1.0000 0.41010  0.76440  0.48110  Biso   1.000  N
  C15      1.0000 0.46530  0.80410  0.53620  Biso   1.000  C
  H19      1.0000 0.43190  0.82400  0.58920  Biso   1.000  H
  C16      1.0000 0.56510  0.81680  0.51990  Biso   1.000  C
  H20      1.0000 0.59970  0.84520  0.56080  Biso   1.000  H
  C17      1.0000 0.61780  0.78850  0.44270  Biso   1.000  C
  C18      1.0000 0.56270  0.74550  0.38920  Biso   1.000  C
  H21      1.0000 0.59580  0.72350  0.33860  Biso   1.000  H
  C19      1.0000 0.46080  0.73470  0.40920  Biso   1.000  C
  H22      1.0000 0.42500  0.70550  0.37130  Biso   1.000  H
  C20      1.0000 0.72530  0.80400  0.41600  Biso   1.000  C
  H23      1.0000 0.76400  0.81520  0.47900  Biso   1.000  H
  H24      1.0000 0.75900  0.76920  0.38820  Biso   1.000  H
  N5       1.0000 0.73290  0.85166  0.34160  Biso   1.000  N
  C21      1.0000 0.67480  0.84020  0.24810  Biso   1.000  C
  H25      1.0000 0.60040  0.83840  0.26220  Biso   1.000  H
  H26      1.0000 0.69560  0.80220  0.22030  Biso   1.000  H
  C22      1.0000 0.69340  0.88750  0.16990  Biso   1.000  C
  H27      1.0000 0.76710  0.88790  0.15260  Biso   1.000  H
  H28      1.0000 0.65200  0.87950  0.10700  Biso   1.000  H
  N6       1.0000 0.66420  0.94502  0.21160  Biso   1.000  N
  C23      1.0000 0.73010  0.95530  0.30530  Biso   1.000  C
  H29      1.0000 0.71480  0.99400  0.33390  Biso   1.000  H
  H30      1.0000 0.80380  0.95430  0.28820  Biso   1.000  H
  C24      1.0000 0.70790  0.90850  0.38280  Biso   1.000  C
  H31      1.0000 0.74960  0.91550  0.44590  Biso   1.000  H
  H32      1.0000 0.63420  0.90970  0.39980  Biso   1.000  H
  C25      1.0000 0.68130  0.99200  0.13540  Biso   1.000  C
  H33      1.0000 0.74370  0.98320  0.09680  Biso   1.000  H
  H34      1.0000 0.69230  0.02940  0.17100  Biso   1.000  H
  C26      1.0000 0.58930  0.99662  0.06340  Biso   1.000  C
  C27      1.0000 0.50770  0.03338  0.08710  Biso   1.000  C
  H35      1.0000 0.51280  0.05650  0.14680  Biso   1.000  H
  C28      1.0000 0.41990  0.03674  0.02530  Biso   1.000  C
  H36      1.0000 0.36530  0.06190  0.04320  Biso   1.000  H
  N7       1.0000 0.08990  0.26440  0.01890  Biso   1.000  N
  C29      1.0000 0.03470  0.30410  0.96380  Biso   1.000  C
  H37      1.0000 0.06810  0.32400  0.91080  Biso   1.000  H
  C30      1.0000 0.93490  0.31680  0.98010  Biso   1.000  C
  H38      1.0000 0.90030  0.34520  0.93920  Biso   1.000  H
  C31      1.0000 0.88220  0.28850  0.05730  Biso   1.000  C
  C32      1.0000 0.93730  0.24550  0.11080  Biso   1.000  C
  H39      1.0000 0.90420  0.22350  0.16140  Biso   1.000  H
  C33      1.0000 0.03920  0.23470  0.09080  Biso   1.000  C
  H40      1.0000 0.07500  0.20550  0.12870  Biso   1.000  H
  C34      1.0000 0.77470  0.30400  0.08400  Biso   1.000  C
  H41      1.0000 0.73600  0.31520  0.02100  Biso   1.000  H
  H42      1.0000 0.74100  0.26920  0.11180  Biso   1.000  H
  N8       1.0000 0.76710  0.35166  0.15840  Biso   1.000  N
  C35      1.0000 0.82520  0.34020  0.25190  Biso   1.000  C
  H43      1.0000 0.89960  0.33840  0.23780  Biso   1.000  H
  H44      1.0000 0.80440  0.30220  0.27970  Biso   1.000  H
  C36      1.0000 0.80660  0.38750  0.33010  Biso   1.000  C
  H45      1.0000 0.73290  0.38790  0.34740  Biso   1.000  H
  H46      1.0000 0.84800  0.37950  0.39300  Biso   1.000  H
  N9       1.0000 0.83580  0.44502  0.28840  Biso   1.000  N
  C37      1.0000 0.76990  0.45530  0.19470  Biso   1.000  C
  H47      1.0000 0.78520  0.49400  0.16610  Biso   1.000  H
  H48      1.0000 0.69620  0.45430  0.21180  Biso   1.000  H
  C38      1.0000 0.79210  0.40850  0.11720  Biso   1.000  C
  H49      1.0000 0.75040  0.41550  0.05410  Biso   1.000  H
  H50      1.0000 0.86580  0.40970  0.10020  Biso   1.000  H
  C39      1.0000 0.81870  0.49200  0.36460  Biso   1.000  C
  H51      1.0000 0.75630  0.48320  0.40320  Biso   1.000  H
  H52      1.0000 0.80770  0.52940  0.32900  Biso   1.000  H
  C40      1.0000 0.91070  0.49662  0.43660  Biso   1.000  C
  C41      1.0000 0.99230  0.53338  0.41290  Biso   1.000  C
  H53      1.0000 0.98720  0.55650  0.35320  Biso   1.000  H
  C42      1.0000 0.08010  0.53674  0.47470  Biso   1.000  C
  H54      1.0000 0.13470  0.56190  0.45680  Biso   1.000  H
  N10      1.0000 0.58990  0.76440  0.01890  Biso   1.000  N
  C43      1.0000 0.53470  0.80410  0.96380  Biso   1.000  C
  H55      1.0000 0.56810  0.82400  0.91080  Biso   1.000  H
  C44      1.0000 0.43490  0.81680  0.98010  Biso   1.000  C
  H56      1.0000 0.40030  0.84520  0.93920  Biso   1.000  H
  C45      1.0000 0.38220  0.78850  0.05730  Biso   1.000  C
  C46      1.0000 0.43730  0.74550  0.11080  Biso   1.000  C
  H57      1.0000 0.40420  0.72350  0.16140  Biso   1.000  H
  C47      1.0000 0.53920  0.73470  0.09080  Biso   1.000  C
  H58      1.0000 0.57500  0.70550  0.12870  Biso   1.000  H
  C48      1.0000 0.27470  0.80400  0.08400  Biso   1.000  C
  H59      1.0000 0.23600  0.81520  0.02100  Biso   1.000  H
  H60      1.0000 0.24100  0.76920  0.11180  Biso   1.000  H
  N11      1.0000 0.26710  0.85166  0.15840  Biso   1.000  N
  C49      1.0000 0.32520  0.84020  0.25190  Biso   1.000  C
  H61      1.0000 0.39960  0.83840  0.23780  Biso   1.000  H
  H62      1.0000 0.30440  0.80220  0.27970  Biso   1.000  H
  C50      1.0000 0.30660  0.88750  0.33010  Biso   1.000  C
  H63      1.0000 0.23290  0.88790  0.34740  Biso   1.000  H
  H64      1.0000 0.34800  0.87950  0.39300  Biso   1.000  H
  N12      1.0000 0.33580  0.94502  0.28840  Biso   1.000  N
  C51      1.0000 0.26990  0.95530  0.19470  Biso   1.000  C
  H65      1.0000 0.28520  0.99400  0.16610  Biso   1.000  H
  H66      1.0000 0.19620  0.95430  0.21180  Biso   1.000  H
  C52      1.0000 0.29210  0.90850  0.11720  Biso   1.000  C
  H67      1.0000 0.25040  0.91550  0.05410  Biso   1.000  H
  H68      1.0000 0.36580  0.90970  0.10020  Biso   1.000  H
  C53      1.0000 0.31870  0.99200  0.36460  Biso   1.000  C
  H69      1.0000 0.25630  0.98320  0.40320  Biso   1.000  H
  H70      1.0000 0.30770  0.02940  0.32900  Biso   1.000  H
  C54      1.0000 0.41070  0.99662  0.43660  Biso   1.000  C
  C55      1.0000 0.49230  0.03338  0.41290  Biso   1.000  C
  H71      1.0000 0.48720  0.05650  0.35320  Biso   1.000  H
  C56      1.0000 0.58010  0.03674  0.47470  Biso   1.000  C
  H72      1.0000 0.63470  0.06190  0.45680  Biso   1.000  H
  N13      1.0000 0.08990  0.73560  0.51890  Biso   1.000  N
  C57      1.0000 0.03470  0.69590  0.46380  Biso   1.000  C
  H73      1.0000 0.06810  0.67600  0.41080  Biso   1.000  H
  C58      1.0000 0.93490  0.68320  0.48010  Biso   1.000  C
  H74      1.0000 0.90030  0.65480  0.43920  Biso   1.000  H
  C59      1.0000 0.88220  0.71150  0.55730  Biso   1.000  C
  C60      1.0000 0.93730  0.75450  0.61080  Biso   1.000  C
  H75      1.0000 0.90420  0.77650  0.66140  Biso   1.000  H
  C61      1.0000 0.03920  0.76530  0.59080  Biso   1.000  C
  H76      1.0000 0.07500  0.79450  0.62870  Biso   1.000  H
  C62      1.0000 0.77470  0.69600  0.58400  Biso   1.000  C
  H77      1.0000 0.73600  0.68480  0.52100  Biso   1.000  H
  H78      1.0000 0.74100  0.73080  0.61180  Biso   1.000  H
  N14      1.0000 0.76710  0.64834  0.65840  Biso   1.000  N
  C63      1.0000 0.82520  0.65980  0.75190  Biso   1.000  C
  H79      1.0000 0.89960  0.66160  0.73780  Biso   1.000  H
  H80      1.0000 0.80440  0.69780  0.77970  Biso   1.000  H
  C64      1.0000 0.80660  0.61250  0.83010  Biso   1.000  C
  H81      1.0000 0.73290  0.61210  0.84740  Biso   1.000  H
  H82      1.0000 0.84800  0.62050  0.89300  Biso   1.000  H
  N15      1.0000 0.83580  0.55498  0.78840  Biso   1.000  N
  C65      1.0000 0.76990  0.54470  0.69470  Biso   1.000  C
  H83      1.0000 0.78520  0.50600  0.66610  Biso   1.000  H
  H84      1.0000 0.69620  0.54570  0.71180  Biso   1.000  H
  C66      1.0000 0.79210  0.59150  0.61720  Biso   1.000  C
  H85      1.0000 0.75040  0.58450  0.55410  Biso   1.000  H
  H86      1.0000 0.86580  0.59030  0.60020  Biso   1.000  H
  C67      1.0000 0.81870  0.50800  0.86460  Biso   1.000  C
  H87      1.0000 0.75630  0.51680  0.90320  Biso   1.000  H
  H88      1.0000 0.80770  0.47060  0.82900  Biso   1.000  H
  C68      1.0000 0.91070  0.50338  0.93660  Biso   1.000  C
  C69      1.0000 0.99230  0.46662  0.91290  Biso   1.000  C
  H89      1.0000 0.98720  0.44350  0.85320  Biso   1.000  H
  C70      1.0000 0.08010  0.46326  0.97470  Biso   1.000  C
  H90      1.0000 0.13470  0.43810  0.95680  Biso   1.000  H
  N16      1.0000 0.58990  0.23560  0.51890  Biso   1.000  N
  C71      1.0000 0.53470  0.19590  0.46380  Biso   1.000  C
  H91      1.0000 0.56810  0.17600  0.41080  Biso   1.000  H
  C72      1.0000 0.43490  0.18320  0.48010  Biso   1.000  C
  H92      1.0000 0.40030  0.15480  0.43920  Biso   1.000  H
  C73      1.0000 0.38220  0.21150  0.55730  Biso   1.000  C
  C74      1.0000 0.43730  0.25450  0.61080  Biso   1.000  C
  H93      1.0000 0.40420  0.27650  0.66140  Biso   1.000  H
  C75      1.0000 0.53920  0.26530  0.59080  Biso   1.000  C
  H94      1.0000 0.57500  0.29450  0.62870  Biso   1.000  H
  C76      1.0000 0.27470  0.19600  0.58400  Biso   1.000  C
  H95      1.0000 0.23600  0.18480  0.52100  Biso   1.000  H
  H96      1.0000 0.24100  0.23080  0.61180  Biso   1.000  H
  N17      1.0000 0.26710  0.14834  0.65840  Biso   1.000  N
  C77      1.0000 0.32520  0.15980  0.75190  Biso   1.000  C
  H97      1.0000 0.39960  0.16160  0.73780  Biso   1.000  H
  H98      1.0000 0.30440  0.19780  0.77970  Biso   1.000  H
  C78      1.0000 0.30660  0.11250  0.83010  Biso   1.000  C
  H99      1.0000 0.23290  0.11210  0.84740  Biso   1.000  H
  H100     1.0000 0.34800  0.12050  0.89300  Biso   1.000  H
  N18      1.0000 0.33580  0.05498  0.78840  Biso   1.000  N
  C79      1.0000 0.26990  0.04470  0.69470  Biso   1.000  C
  H101     1.0000 0.28520  0.00600  0.66610  Biso   1.000  H
  H102     1.0000 0.19620  0.04570  0.71180  Biso   1.000  H
  C80      1.0000 0.29210  0.09150  0.61720  Biso   1.000  C
  H103     1.0000 0.25040  0.08450  0.55410  Biso   1.000  H
  H104     1.0000 0.36580  0.09030  0.60020  Biso   1.000  H
  C81      1.0000 0.31870  0.00800  0.86460  Biso   1.000  C
  H105     1.0000 0.25630  0.01680  0.90320  Biso   1.000  H
  H106     1.0000 0.30770  0.97060  0.82900  Biso   1.000  H
  C82      1.0000 0.41070  0.00338  0.93660  Biso   1.000  C
  C83      1.0000 0.49230  0.96662  0.91290  Biso   1.000  C
  H107     1.0000 0.48720  0.94350  0.85320  Biso   1.000  H
  C84      1.0000 0.58010  0.96326  0.97470  Biso   1.000  C
  H108     1.0000 0.63470  0.93810  0.95680  Biso   1.000  H
  N19      1.0000 0.91010  0.73560  0.98110  Biso   1.000  N
  C85      1.0000 0.96530  0.69590  0.03620  Biso   1.000  C
  H109     1.0000 0.93190  0.67600  0.08920  Biso   1.000  H
  C86      1.0000 0.06510  0.68320  0.01990  Biso   1.000  C
  H110     1.0000 0.09970  0.65480  0.06080  Biso   1.000  H
  C87      1.0000 0.11780  0.71150  0.94270  Biso   1.000  C
  C88      1.0000 0.06270  0.75450  0.88920  Biso   1.000  C
  H111     1.0000 0.09580  0.77650  0.83860  Biso   1.000  H
  C89      1.0000 0.96080  0.76530  0.90920  Biso   1.000  C
  H112     1.0000 0.92500  0.79450  0.87130  Biso   1.000  H
  C90      1.0000 0.22530  0.69600  0.91600  Biso   1.000  C
  H113     1.0000 0.26400  0.68480  0.97900  Biso   1.000  H
  H114     1.0000 0.25900  0.73080  0.88820  Biso   1.000  H
  N20      1.0000 0.23290  0.64834  0.84160  Biso   1.000  N
  C91      1.0000 0.17480  0.65980  0.74810  Biso   1.000  C
  H115     1.0000 0.10040  0.66160  0.76220  Biso   1.000  H
  H116     1.0000 0.19560  0.69780  0.72030  Biso   1.000  H
  C92      1.0000 0.19340  0.61250  0.66990  Biso   1.000  C
  H117     1.0000 0.26710  0.61210  0.65260  Biso   1.000  H
  H118     1.0000 0.15200  0.62050  0.60700  Biso   1.000  H
  N21      1.0000 0.16420  0.55498  0.71160  Biso   1.000  N
  C93      1.0000 0.23010  0.54470  0.80530  Biso   1.000  C
  H119     1.0000 0.21480  0.50600  0.83390  Biso   1.000  H
  H120     1.0000 0.30380  0.54570  0.78820  Biso   1.000  H
  C94      1.0000 0.20790  0.59150  0.88280  Biso   1.000  C
  H121     1.0000 0.24960  0.58450  0.94590  Biso   1.000  H
  H122     1.0000 0.13420  0.59030  0.89980  Biso   1.000  H
  C95      1.0000 0.18130  0.50800  0.63540  Biso   1.000  C
  H123     1.0000 0.24370  0.51680  0.59680  Biso   1.000  H
  H124     1.0000 0.19230  0.47060  0.67100  Biso   1.000  H
  C96      1.0000 0.08930  0.50338  0.56340  Biso   1.000  C
  C97      1.0000 0.00770  0.46662  0.58710  Biso   1.000  C
  H125     1.0000 0.01280  0.44350  0.64680  Biso   1.000  H
  C98      1.0000 0.91990  0.46326  0.52530  Biso   1.000  C
  H126     1.0000 0.86530  0.43810  0.54320  Biso   1.000  H
  N22      1.0000 0.41010  0.23560  0.98110  Biso   1.000  N
  C99      1.0000 0.46530  0.19590  0.03620  Biso   1.000  C
  H127     1.0000 0.43190  0.17600  0.08920  Biso   1.000  H
  C100     1.0000 0.56510  0.18320  0.01990  Biso   1.000  C
  H128     1.0000 0.59970  0.15480  0.06080  Biso   1.000  H
  C101     1.0000 0.61780  0.21150  0.94270  Biso   1.000  C
  C102     1.0000 0.56270  0.25450  0.88920  Biso   1.000  C
  H129     1.0000 0.59580  0.27650  0.83860  Biso   1.000  H
  C103     1.0000 0.46080  0.26530  0.90920  Biso   1.000  C
  H130     1.0000 0.42500  0.29450  0.87130  Biso   1.000  H
  C104     1.0000 0.72530  0.19600  0.91600  Biso   1.000  C
  H131     1.0000 0.76400  0.18480  0.97900  Biso   1.000  H
  H132     1.0000 0.75900  0.23080  0.88820  Biso   1.000  H
  N23      1.0000 0.73290  0.14834  0.84160  Biso   1.000  N
  C105     1.0000 0.67480  0.15980  0.74810  Biso   1.000  C
  H133     1.0000 0.60040  0.16160  0.76220  Biso   1.000  H
  H134     1.0000 0.69560  0.19780  0.72030  Biso   1.000  H
  C106     1.0000 0.69340  0.11250  0.66990  Biso   1.000  C
  H135     1.0000 0.76710  0.11210  0.65260  Biso   1.000  H
  H136     1.0000 0.65200  0.12050  0.60700  Biso   1.000  H
  N24      1.0000 0.66420  0.05498  0.71160  Biso   1.000  N
  C107     1.0000 0.73010  0.04470  0.80530  Biso   1.000  C
  H137     1.0000 0.71480  0.00600  0.83390  Biso   1.000  H
  H138     1.0000 0.80380  0.04570  0.78820  Biso   1.000  H
  C108     1.0000 0.70790  0.09150  0.88280  Biso   1.000  C
  H139     1.0000 0.74960  0.08450  0.94590  Biso   1.000  H
  H140     1.0000 0.63420  0.09030  0.89980  Biso   1.000  H
  C109     1.0000 0.68130  0.00800  0.63540  Biso   1.000  C
  H141     1.0000 0.74370  0.01680  0.59680  Biso   1.000  H
  H142     1.0000 0.69230  0.97060  0.67100  Biso   1.000  H
  C110     1.0000 0.58930  0.00338  0.56340  Biso   1.000  C
  C111     1.0000 0.50770  0.96662  0.58710  Biso   1.000  C
  H143     1.0000 0.51280  0.94350  0.64680  Biso   1.000  H
  C112     1.0000 0.41990  0.96326  0.52530  Biso   1.000  C
  H144     1.0000 0.36530  0.93810  0.54320  Biso   1.000  H
  Ag1      1.0000 0.75000  0.25000  0.50000  Biso   1.000  Ag
  Ag2      1.0000 0.25000  0.25000  0.00000  Biso   1.000  Ag
  Ag3      1.0000 0.25000  0.75000  0.50000  Biso   1.000  Ag
  Ag4      1.0000 0.75000  0.75000  0.00000  Biso   1.000  Ag
  Ag5      1.0000 0.00000  0.44523  0.25000  Biso   1.000  Ag
  Ag6      1.0000 0.50000  0.94523  0.25000  Biso   1.000  Ag
  Ag7      1.0000 0.00000  0.55477  0.75000  Biso   1.000  Ag
  Ag8      1.0000 0.50000  0.05477  0.75000  Biso   1.000  Ag
