data_image0
_cell_length_a       9.733
_cell_length_b       22.323
_cell_length_c       15.631
_cell_angle_alpha    90
_cell_angle_beta     93.89
_cell_angle_gamma    90

_symmetry_space_group_name_H-M    "P 1"
_symmetry_int_tables_number       1

loop_
  _symmetry_equiv_pos_as_xyz
  'x, y, z'

loop_
  _atom_site_label
  _atom_site_occupancy
  _atom_site_fract_x
  _atom_site_fract_y
  _atom_site_fract_z
  _atom_site_thermal_displace_type
  _atom_site_B_iso_or_equiv
  _atom_site_type_symbol
  Ag1      1.0000 0.81176  0.25249  0.07738  Biso   1.000  Ag
  Ag2      1.0000 0.61360  0.45604  0.33182  Biso   1.000  Ag
  N1       1.0000 0.61700  0.27940  0.11320  Biso   1.000  N
  C1       1.0000 0.56200  0.25230  0.18070  Biso   1.000  C
  H1       1.0000 0.61270  0.22080  0.20910  Biso   1.000  H
  C2       1.0000 0.43400  0.26900  0.21040  Biso   1.000  C
  H2       1.0000 0.40050  0.24880  0.25820  Biso   1.000  H
  C3       1.0000 0.35800  0.31400  0.17090  Biso   1.000  C
  C4       1.0000 0.41600  0.34140  0.10000  Biso   1.000  C
  H3       1.0000 0.36900  0.37320  0.07030  Biso   1.000  H
  C5       1.0000 0.54100  0.32250  0.07380  Biso   1.000  C
  H4       1.0000 0.57600  0.34100  0.02490  Biso   1.000  H
  C6       1.0000 0.22800  0.33700  0.20230  Biso   1.000  C
  H5       1.0000 0.17610  0.30330  0.22570  Biso   1.000  H
  H6       1.0000 0.17110  0.35450  0.15370  Biso   1.000  H
  N2       1.0000 0.25460  0.38450  0.27180  Biso   1.000  N
  C7       1.0000 0.30900  0.44060  0.23640  Biso   1.000  C
  H7       1.0000 0.40250  0.43330  0.21660  Biso   1.000  H
  H8       1.0000 0.24890  0.45410  0.18670  Biso   1.000  H
  C8       1.0000 0.31670  0.48750  0.30340  Biso   1.000  C
  H9       1.0000 0.22330  0.49570  0.32190  Biso   1.000  H
  H10      1.0000 0.35330  0.52500  0.28000  Biso   1.000  H
  N3       1.0000 0.41310  0.46620  0.38250  Biso   1.000  N
  C9       1.0000 0.35700  0.41180  0.41310  Biso   1.000  C
  H11      1.0000 0.26420  0.42000  0.43310  Biso   1.000  H
  H12      1.0000 0.41570  0.39720  0.46280  Biso   1.000  H
  C10      1.0000 0.34500  0.36350  0.34600  Biso   1.000  C
  H13      1.0000 0.43710  0.35370  0.32710  Biso   1.000  H
  H14      1.0000 0.30550  0.32690  0.37030  Biso   1.000  H
  C11      1.0000 0.41600  0.51580  0.44440  Biso   1.000  C
  H15      1.0000 0.32480  0.51930  0.46820  Biso   1.000  H
  H16      1.0000 0.43450  0.55370  0.41420  Biso   1.000  H
  C12      1.0000 0.52600  0.50700  0.51770  Biso   1.000  C
  C13      1.0000 0.65500  0.53240  0.50620  Biso   1.000  C
  H17      1.0000 0.67140  0.55300  0.45470  Biso   1.000  H
  C14      1.0000 0.75700  0.52680  0.57160  Biso   1.000  C
  H18      1.0000 0.84590  0.54210  0.56300  Biso   1.000  H
  C15      1.0000 0.73500  0.49990  0.64850  Biso   1.000  C
  C16      1.0000 0.60800  0.47290  0.65640  Biso   1.000  C
  H19      1.0000 0.59310  0.45170  0.70760  Biso   1.000  H
  C17      1.0000 0.50400  0.47550  0.59350  Biso   1.000  C
  H20      1.0000 0.41790  0.45640  0.60080  Biso   1.000  H
  C18      1.0000 0.84500  0.50070  0.72080  Biso   1.000  C
  H21      1.0000 0.93550  0.50760  0.69690  Biso   1.000  H
  H22      1.0000 0.84860  0.46100  0.74910  Biso   1.000  H
  N4       1.0000 0.82300  0.54830  0.78740  Biso   1.000  N
  C19      1.0000 0.84200  0.60870  0.74880  Biso   1.000  C
  H23      1.0000 0.93630  0.61160  0.72920  Biso   1.000  H
  H24      1.0000 0.77630  0.61350  0.69810  Biso   1.000  H
  C20      1.0000 0.82100  0.65720  0.80980  Biso   1.000  C
  H25      1.0000 0.72450  0.65620  0.82670  Biso   1.000  H
  H26      1.0000 0.83630  0.69630  0.78220  Biso   1.000  H
  N5       1.0000 0.91600  0.65090  0.88630  Biso   1.000  N
  C21      1.0000 0.89500  0.59060  0.92250  Biso   1.000  C
  H27      1.0000 0.79990  0.58740  0.94080  Biso   1.000  H
  H28      1.0000 0.95910  0.58510  0.97390  Biso   1.000  H
  C22      1.0000 0.91900  0.54240  0.85950  Biso   1.000  C
  H29      1.0000 0.01370  0.54540  0.84090  Biso   1.000  H
  H30      1.0000 0.90800  0.50280  0.88660  Biso   1.000  H
  C23      1.0000 0.91300  0.70030  0.94360  Biso   1.000  C
  H31      1.0000 0.94180  0.73660  0.91320  Biso   1.000  H
  H32      1.0000 0.98180  0.69320  0.99200  Biso   1.000  H
  C24      1.0000 0.77500  0.71320  0.98020  Biso   1.000  C
  C25      1.0000 0.69000  0.75530  0.94190  Biso   1.000  C
  H33      1.0000 0.72190  0.77800  0.89570  Biso   1.000  H
  C26      1.0000 0.55900  0.76620  0.96820  Biso   1.000  C
  H34      1.0000 0.50130  0.79540  0.94000  Biso   1.000  H
  N6       1.0000 0.51400  0.73330  0.03660  Biso   1.000  N
  C27      1.0000 0.59700  0.69670  0.07570  Biso   1.000  C
  H35      1.0000 0.56800  0.67690  0.12520  Biso   1.000  H
  C28      1.0000 0.72900  0.68400  0.04940  Biso   1.000  C
  H36      1.0000 0.78550  0.65520  0.07950  Biso   1.000  H
  Ag3      1.0000 0.31176  0.75249  0.07738  Biso   1.000  Ag
  Ag4      1.0000 0.11360  0.95604  0.33182  Biso   1.000  Ag
  N7       1.0000 0.11700  0.77940  0.11320  Biso   1.000  N
  C29      1.0000 0.06200  0.75230  0.18070  Biso   1.000  C
  H37      1.0000 0.11270  0.72080  0.20910  Biso   1.000  H
  C30      1.0000 0.93400  0.76900  0.21040  Biso   1.000  C
  H38      1.0000 0.90050  0.74880  0.25820  Biso   1.000  H
  C31      1.0000 0.85800  0.81400  0.17090  Biso   1.000  C
  C32      1.0000 0.91600  0.84140  0.10000  Biso   1.000  C
  H39      1.0000 0.86900  0.87320  0.07030  Biso   1.000  H
  C33      1.0000 0.04100  0.82250  0.07380  Biso   1.000  C
  H40      1.0000 0.07600  0.84100  0.02490  Biso   1.000  H
  C34      1.0000 0.72800  0.83700  0.20230  Biso   1.000  C
  H41      1.0000 0.67610  0.80330  0.22570  Biso   1.000  H
  H42      1.0000 0.67110  0.85450  0.15370  Biso   1.000  H
  N8       1.0000 0.75460  0.88450  0.27180  Biso   1.000  N
  C35      1.0000 0.80900  0.94060  0.23640  Biso   1.000  C
  H43      1.0000 0.90250  0.93330  0.21660  Biso   1.000  H
  H44      1.0000 0.74890  0.95410  0.18670  Biso   1.000  H
  C36      1.0000 0.81670  0.98750  0.30340  Biso   1.000  C
  H45      1.0000 0.72330  0.99570  0.32190  Biso   1.000  H
  H46      1.0000 0.85330  0.02500  0.28000  Biso   1.000  H
  N9       1.0000 0.91310  0.96620  0.38250  Biso   1.000  N
  C37      1.0000 0.85700  0.91180  0.41310  Biso   1.000  C
  H47      1.0000 0.76420  0.92000  0.43310  Biso   1.000  H
  H48      1.0000 0.91570  0.89720  0.46280  Biso   1.000  H
  C38      1.0000 0.84500  0.86350  0.34600  Biso   1.000  C
  H49      1.0000 0.93710  0.85370  0.32710  Biso   1.000  H
  H50      1.0000 0.80550  0.82690  0.37030  Biso   1.000  H
  C39      1.0000 0.91600  0.01580  0.44440  Biso   1.000  C
  H51      1.0000 0.82480  0.01930  0.46820  Biso   1.000  H
  H52      1.0000 0.93450  0.05370  0.41420  Biso   1.000  H
  C40      1.0000 0.02600  0.00700  0.51770  Biso   1.000  C
  C41      1.0000 0.15500  0.03240  0.50620  Biso   1.000  C
  H53      1.0000 0.17140  0.05300  0.45470  Biso   1.000  H
  C42      1.0000 0.25700  0.02680  0.57160  Biso   1.000  C
  H54      1.0000 0.34590  0.04210  0.56300  Biso   1.000  H
  C43      1.0000 0.23500  0.99990  0.64850  Biso   1.000  C
  C44      1.0000 0.10800  0.97290  0.65640  Biso   1.000  C
  H55      1.0000 0.09310  0.95170  0.70760  Biso   1.000  H
  C45      1.0000 0.00400  0.97550  0.59350  Biso   1.000  C
  H56      1.0000 0.91790  0.95640  0.60080  Biso   1.000  H
  C46      1.0000 0.34500  0.00070  0.72080  Biso   1.000  C
  H57      1.0000 0.43550  0.00760  0.69690  Biso   1.000  H
  H58      1.0000 0.34860  0.96100  0.74910  Biso   1.000  H
  N10      1.0000 0.32300  0.04830  0.78740  Biso   1.000  N
  C47      1.0000 0.34200  0.10870  0.74880  Biso   1.000  C
  H59      1.0000 0.43630  0.11160  0.72920  Biso   1.000  H
  H60      1.0000 0.27630  0.11350  0.69810  Biso   1.000  H
  C48      1.0000 0.32100  0.15720  0.80980  Biso   1.000  C
  H61      1.0000 0.22450  0.15620  0.82670  Biso   1.000  H
  H62      1.0000 0.33630  0.19630  0.78220  Biso   1.000  H
  N11      1.0000 0.41600  0.15090  0.88630  Biso   1.000  N
  C49      1.0000 0.39500  0.09060  0.92250  Biso   1.000  C
  H63      1.0000 0.29990  0.08740  0.94080  Biso   1.000  H
  H64      1.0000 0.45910  0.08510  0.97390  Biso   1.000  H
  C50      1.0000 0.41900  0.04240  0.85950  Biso   1.000  C
  H65      1.0000 0.51370  0.04540  0.84090  Biso   1.000  H
  H66      1.0000 0.40800  0.00280  0.88660  Biso   1.000  H
  C51      1.0000 0.41300  0.20030  0.94360  Biso   1.000  C
  H67      1.0000 0.44180  0.23660  0.91320  Biso   1.000  H
  H68      1.0000 0.48180  0.19320  0.99200  Biso   1.000  H
  C52      1.0000 0.27500  0.21320  0.98020  Biso   1.000  C
  C53      1.0000 0.19000  0.25530  0.94190  Biso   1.000  C
  H69      1.0000 0.22190  0.27800  0.89570  Biso   1.000  H
  C54      1.0000 0.05900  0.26620  0.96820  Biso   1.000  C
  H70      1.0000 0.00130  0.29540  0.94000  Biso   1.000  H
  N12      1.0000 0.01400  0.23330  0.03660  Biso   1.000  N
  C55      1.0000 0.09700  0.19670  0.07570  Biso   1.000  C
  H71      1.0000 0.06800  0.17690  0.12520  Biso   1.000  H
  C56      1.0000 0.22900  0.18400  0.04940  Biso   1.000  C
  H72      1.0000 0.28550  0.15520  0.07950  Biso   1.000  H
  Ag5      1.0000 0.81176  0.74751  0.57738  Biso   1.000  Ag
  Ag6      1.0000 0.61360  0.54396  0.83182  Biso   1.000  Ag
  N13      1.0000 0.61700  0.72060  0.61320  Biso   1.000  N
  C57      1.0000 0.56200  0.74770  0.68070  Biso   1.000  C
  H73      1.0000 0.61270  0.77920  0.70910  Biso   1.000  H
  C58      1.0000 0.43400  0.73100  0.71040  Biso   1.000  C
  H74      1.0000 0.40050  0.75120  0.75820  Biso   1.000  H
  C59      1.0000 0.35800  0.68600  0.67090  Biso   1.000  C
  C60      1.0000 0.41600  0.65860  0.60000  Biso   1.000  C
  H75      1.0000 0.36900  0.62680  0.57030  Biso   1.000  H
  C61      1.0000 0.54100  0.67750  0.57380  Biso   1.000  C
  H76      1.0000 0.57600  0.65900  0.52490  Biso   1.000  H
  C62      1.0000 0.22800  0.66300  0.70230  Biso   1.000  C
  H77      1.0000 0.17610  0.69670  0.72570  Biso   1.000  H
  H78      1.0000 0.17110  0.64550  0.65370  Biso   1.000  H
  N14      1.0000 0.25460  0.61550  0.77180  Biso   1.000  N
  C63      1.0000 0.30900  0.55940  0.73640  Biso   1.000  C
  H79      1.0000 0.40250  0.56670  0.71660  Biso   1.000  H
  H80      1.0000 0.24890  0.54590  0.68670  Biso   1.000  H
  C64      1.0000 0.31670  0.51250  0.80340  Biso   1.000  C
  H81      1.0000 0.22330  0.50430  0.82190  Biso   1.000  H
  H82      1.0000 0.35330  0.47500  0.78000  Biso   1.000  H
  N15      1.0000 0.41310  0.53380  0.88250  Biso   1.000  N
  C65      1.0000 0.35700  0.58820  0.91310  Biso   1.000  C
  H83      1.0000 0.26420  0.58000  0.93310  Biso   1.000  H
  H84      1.0000 0.41570  0.60280  0.96280  Biso   1.000  H
  C66      1.0000 0.34500  0.63650  0.84600  Biso   1.000  C
  H85      1.0000 0.43710  0.64630  0.82710  Biso   1.000  H
  H86      1.0000 0.30550  0.67310  0.87030  Biso   1.000  H
  C67      1.0000 0.41600  0.48420  0.94440  Biso   1.000  C
  H87      1.0000 0.32480  0.48070  0.96820  Biso   1.000  H
  H88      1.0000 0.43450  0.44630  0.91420  Biso   1.000  H
  C68      1.0000 0.52600  0.49300  0.01770  Biso   1.000  C
  C69      1.0000 0.65500  0.46760  0.00620  Biso   1.000  C
  H89      1.0000 0.67140  0.44700  0.95470  Biso   1.000  H
  C70      1.0000 0.75700  0.47320  0.07160  Biso   1.000  C
  H90      1.0000 0.84590  0.45790  0.06300  Biso   1.000  H
  C71      1.0000 0.73500  0.50010  0.14850  Biso   1.000  C
  C72      1.0000 0.60800  0.52710  0.15640  Biso   1.000  C
  H91      1.0000 0.59310  0.54830  0.20760  Biso   1.000  H
  C73      1.0000 0.50400  0.52450  0.09350  Biso   1.000  C
  H92      1.0000 0.41790  0.54360  0.10080  Biso   1.000  H
  C74      1.0000 0.84500  0.49930  0.22080  Biso   1.000  C
  H93      1.0000 0.93550  0.49240  0.19690  Biso   1.000  H
  H94      1.0000 0.84860  0.53900  0.24910  Biso   1.000  H
  N16      1.0000 0.82300  0.45170  0.28740  Biso   1.000  N
  C75      1.0000 0.84200  0.39130  0.24880  Biso   1.000  C
  H95      1.0000 0.93630  0.38840  0.22920  Biso   1.000  H
  H96      1.0000 0.77630  0.38650  0.19810  Biso   1.000  H
  C76      1.0000 0.82100  0.34280  0.30980  Biso   1.000  C
  H97      1.0000 0.72450  0.34380  0.32670  Biso   1.000  H
  H98      1.0000 0.83630  0.30370  0.28220  Biso   1.000  H
  N17      1.0000 0.91600  0.34910  0.38630  Biso   1.000  N
  C77      1.0000 0.89500  0.40940  0.42250  Biso   1.000  C
  H99      1.0000 0.79990  0.41260  0.44080  Biso   1.000  H
  H100     1.0000 0.95910  0.41490  0.47390  Biso   1.000  H
  C78      1.0000 0.91900  0.45760  0.35950  Biso   1.000  C
  H101     1.0000 0.01370  0.45460  0.34090  Biso   1.000  H
  H102     1.0000 0.90800  0.49720  0.38660  Biso   1.000  H
  C79      1.0000 0.91300  0.29970  0.44360  Biso   1.000  C
  H103     1.0000 0.94180  0.26340  0.41320  Biso   1.000  H
  H104     1.0000 0.98180  0.30680  0.49200  Biso   1.000  H
  C80      1.0000 0.77500  0.28680  0.48020  Biso   1.000  C
  C81      1.0000 0.69000  0.24470  0.44190  Biso   1.000  C
  H105     1.0000 0.72190  0.22200  0.39570  Biso   1.000  H
  C82      1.0000 0.55900  0.23380  0.46820  Biso   1.000  C
  H106     1.0000 0.50130  0.20460  0.44000  Biso   1.000  H
  N18      1.0000 0.51400  0.26670  0.53660  Biso   1.000  N
  C83      1.0000 0.59700  0.30330  0.57570  Biso   1.000  C
  H107     1.0000 0.56800  0.32310  0.62520  Biso   1.000  H
  C84      1.0000 0.72900  0.31600  0.54940  Biso   1.000  C
  H108     1.0000 0.78550  0.34480  0.57950  Biso   1.000  H
  Ag7      1.0000 0.31176  0.24751  0.57738  Biso   1.000  Ag
  Ag8      1.0000 0.11360  0.04396  0.83182  Biso   1.000  Ag
  N19      1.0000 0.11700  0.22060  0.61320  Biso   1.000  N
  C85      1.0000 0.06200  0.24770  0.68070  Biso   1.000  C
  H109     1.0000 0.11270  0.27920  0.70910  Biso   1.000  H
  C86      1.0000 0.93400  0.23100  0.71040  Biso   1.000  C
  H110     1.0000 0.90050  0.25120  0.75820  Biso   1.000  H
  C87      1.0000 0.85800  0.18600  0.67090  Biso   1.000  C
  C88      1.0000 0.91600  0.15860  0.60000  Biso   1.000  C
  H111     1.0000 0.86900  0.12680  0.57030  Biso   1.000  H
  C89      1.0000 0.04100  0.17750  0.57380  Biso   1.000  C
  H112     1.0000 0.07600  0.15900  0.52490  Biso   1.000  H
  C90      1.0000 0.72800  0.16300  0.70230  Biso   1.000  C
  H113     1.0000 0.67610  0.19670  0.72570  Biso   1.000  H
  H114     1.0000 0.67110  0.14550  0.65370  Biso   1.000  H
  N20      1.0000 0.75460  0.11550  0.77180  Biso   1.000  N
  C91      1.0000 0.80900  0.05940  0.73640  Biso   1.000  C
  H115     1.0000 0.90250  0.06670  0.71660  Biso   1.000  H
  H116     1.0000 0.74890  0.04590  0.68670  Biso   1.000  H
  C92      1.0000 0.81670  0.01250  0.80340  Biso   1.000  C
  H117     1.0000 0.72330  0.00430  0.82190  Biso   1.000  H
  H118     1.0000 0.85330  0.97500  0.78000  Biso   1.000  H
  N21      1.0000 0.91310  0.03380  0.88250  Biso   1.000  N
  C93      1.0000 0.85700  0.08820  0.91310  Biso   1.000  C
  H119     1.0000 0.76420  0.08000  0.93310  Biso   1.000  H
  H120     1.0000 0.91570  0.10280  0.96280  Biso   1.000  H
  C94      1.0000 0.84500  0.13650  0.84600  Biso   1.000  C
  H121     1.0000 0.93710  0.14630  0.82710  Biso   1.000  H
  H122     1.0000 0.80550  0.17310  0.87030  Biso   1.000  H
  C95      1.0000 0.91600  0.98420  0.94440  Biso   1.000  C
  H123     1.0000 0.82480  0.98070  0.96820  Biso   1.000  H
  H124     1.0000 0.93450  0.94630  0.91420  Biso   1.000  H
  C96      1.0000 0.02600  0.99300  0.01770  Biso   1.000  C
  C97      1.0000 0.15500  0.96760  0.00620  Biso   1.000  C
  H125     1.0000 0.17140  0.94700  0.95470  Biso   1.000  H
  C98      1.0000 0.25700  0.97320  0.07160  Biso   1.000  C
  H126     1.0000 0.34590  0.95790  0.06300  Biso   1.000  H
  C99      1.0000 0.23500  0.00010  0.14850  Biso   1.000  C
  C100     1.0000 0.10800  0.02710  0.15640  Biso   1.000  C
  H127     1.0000 0.09310  0.04830  0.20760  Biso   1.000  H
  C101     1.0000 0.00400  0.02450  0.09350  Biso   1.000  C
  H128     1.0000 0.91790  0.04360  0.10080  Biso   1.000  H
  C102     1.0000 0.34500  0.99930  0.22080  Biso   1.000  C
  H129     1.0000 0.43550  0.99240  0.19690  Biso   1.000  H
  H130     1.0000 0.34860  0.03900  0.24910  Biso   1.000  H
  N22      1.0000 0.32300  0.95170  0.28740  Biso   1.000  N
  C103     1.0000 0.34200  0.89130  0.24880  Biso   1.000  C
  H131     1.0000 0.43630  0.88840  0.22920  Biso   1.000  H
  H132     1.0000 0.27630  0.88650  0.19810  Biso   1.000  H
  C104     1.0000 0.32100  0.84280  0.30980  Biso   1.000  C
  H133     1.0000 0.22450  0.84380  0.32670  Biso   1.000  H
  H134     1.0000 0.33630  0.80370  0.28220  Biso   1.000  H
  N23      1.0000 0.41600  0.84910  0.38630  Biso   1.000  N
  C105     1.0000 0.39500  0.90940  0.42250  Biso   1.000  C
  H135     1.0000 0.29990  0.91260  0.44080  Biso   1.000  H
  H136     1.0000 0.45910  0.91490  0.47390  Biso   1.000  H
  C106     1.0000 0.41900  0.95760  0.35950  Biso   1.000  C
  H137     1.0000 0.51370  0.95460  0.34090  Biso   1.000  H
  H138     1.0000 0.40800  0.99720  0.38660  Biso   1.000  H
  C107     1.0000 0.41300  0.79970  0.44360  Biso   1.000  C
  H139     1.0000 0.44180  0.76340  0.41320  Biso   1.000  H
  H140     1.0000 0.48180  0.80680  0.49200  Biso   1.000  H
  C108     1.0000 0.27500  0.78680  0.48020  Biso   1.000  C
  C109     1.0000 0.19000  0.74470  0.44190  Biso   1.000  C
  H141     1.0000 0.22190  0.72200  0.39570  Biso   1.000  H
  C110     1.0000 0.05900  0.73380  0.46820  Biso   1.000  C
  H142     1.0000 0.00130  0.70460  0.44000  Biso   1.000  H
  N24      1.0000 0.01400  0.76670  0.53660  Biso   1.000  N
  C111     1.0000 0.09700  0.80330  0.57570  Biso   1.000  C
  H143     1.0000 0.06800  0.82310  0.62520  Biso   1.000  H
  C112     1.0000 0.22900  0.81600  0.54940  Biso   1.000  C
  H144     1.0000 0.28550  0.84480  0.57950  Biso   1.000  H
