data_image0
_cell_length_a       22.9118
_cell_length_b       22.9118
_cell_length_c       22.9118
_cell_angle_alpha    90
_cell_angle_beta     90
_cell_angle_gamma    90

_symmetry_space_group_name_H-M    "P 1"
_symmetry_int_tables_number       1

loop_
  _symmetry_equiv_pos_as_xyz
  'x, y, z'

loop_
  _atom_site_label
  _atom_site_occupancy
  _atom_site_fract_x
  _atom_site_fract_y
  _atom_site_fract_z
  _atom_site_thermal_displace_type
  _atom_site_B_iso_or_equiv
  _atom_site_type_symbol
  O1       1.0000 0.56709  0.93149  0.39170  Biso   1.000  O
  O2       1.0000 0.58638  0.02090  0.40600  Biso   1.000  O
  O3       1.0000 0.57680  0.09029  0.32368  Biso   1.000  O
  C1       1.0000 0.57680  0.99042  0.30902  Biso   1.000  C
  C2       1.0000 0.57680  0.04633  0.28780  Biso   1.000  C
  C3       1.0000 0.57680  0.05590  0.22878  Biso   1.000  C
  C4       1.0000 0.57680  0.98014  0.37241  Biso   1.000  C
  H1       1.0000 0.57680  0.09589  0.21360  Biso   1.000  H
  O4       1.0000 0.06709  0.43149  0.89170  Biso   1.000  O
  O5       1.0000 0.08638  0.52090  0.90600  Biso   1.000  O
  O6       1.0000 0.07680  0.59029  0.82368  Biso   1.000  O
  C5       1.0000 0.07680  0.49042  0.80902  Biso   1.000  C
  C6       1.0000 0.07680  0.54633  0.78780  Biso   1.000  C
  C7       1.0000 0.07680  0.55590  0.72878  Biso   1.000  C
  C8       1.0000 0.07680  0.48014  0.87241  Biso   1.000  C
  H2       1.0000 0.07680  0.59589  0.71360  Biso   1.000  H
  O7       1.0000 0.93291  0.06851  0.89170  Biso   1.000  O
  O8       1.0000 0.91362  0.97910  0.90600  Biso   1.000  O
  O9       1.0000 0.92320  0.90971  0.82368  Biso   1.000  O
  C9       1.0000 0.92320  0.00958  0.80902  Biso   1.000  C
  C10      1.0000 0.92320  0.95367  0.78780  Biso   1.000  C
  C11      1.0000 0.92320  0.94410  0.72878  Biso   1.000  C
  C12      1.0000 0.92320  0.01986  0.87241  Biso   1.000  C
  H3       1.0000 0.92320  0.90411  0.71360  Biso   1.000  H
  O10      1.0000 0.43291  0.56851  0.39170  Biso   1.000  O
  O11      1.0000 0.41362  0.47910  0.40600  Biso   1.000  O
  O12      1.0000 0.42320  0.40971  0.32368  Biso   1.000  O
  C13      1.0000 0.42320  0.50958  0.30902  Biso   1.000  C
  C14      1.0000 0.42320  0.45367  0.28780  Biso   1.000  C
  C15      1.0000 0.42320  0.44410  0.22878  Biso   1.000  C
  C16      1.0000 0.42320  0.51986  0.37241  Biso   1.000  C
  H4       1.0000 0.42320  0.40411  0.21360  Biso   1.000  H
  O13      1.0000 0.43291  0.43149  0.10830  Biso   1.000  O
  O14      1.0000 0.41362  0.52090  0.09400  Biso   1.000  O
  O15      1.0000 0.42320  0.59029  0.17632  Biso   1.000  O
  C17      1.0000 0.42320  0.49042  0.19098  Biso   1.000  C
  C18      1.0000 0.42320  0.54633  0.21220  Biso   1.000  C
  C19      1.0000 0.42320  0.55590  0.27122  Biso   1.000  C
  C20      1.0000 0.42320  0.48014  0.12759  Biso   1.000  C
  H5       1.0000 0.42320  0.59589  0.28640  Biso   1.000  H
  O16      1.0000 0.93291  0.93149  0.60830  Biso   1.000  O
  O17      1.0000 0.91362  0.02090  0.59400  Biso   1.000  O
  O18      1.0000 0.92320  0.09029  0.67632  Biso   1.000  O
  C21      1.0000 0.92320  0.99042  0.69098  Biso   1.000  C
  C22      1.0000 0.92320  0.04633  0.71220  Biso   1.000  C
  C23      1.0000 0.92320  0.05590  0.77122  Biso   1.000  C
  C24      1.0000 0.92320  0.98014  0.62759  Biso   1.000  C
  H6       1.0000 0.92320  0.09589  0.78640  Biso   1.000  H
  O19      1.0000 0.06709  0.56851  0.60830  Biso   1.000  O
  O20      1.0000 0.08638  0.47910  0.59400  Biso   1.000  O
  O21      1.0000 0.07680  0.40971  0.67632  Biso   1.000  O
  C25      1.0000 0.07680  0.50958  0.69098  Biso   1.000  C
  C26      1.0000 0.07680  0.45367  0.71220  Biso   1.000  C
  C27      1.0000 0.07680  0.44410  0.77122  Biso   1.000  C
  C28      1.0000 0.07680  0.51986  0.62759  Biso   1.000  C
  H7       1.0000 0.07680  0.40411  0.78640  Biso   1.000  H
  O22      1.0000 0.56709  0.06851  0.10830  Biso   1.000  O
  O23      1.0000 0.58638  0.97910  0.09400  Biso   1.000  O
  O24      1.0000 0.57680  0.90971  0.17632  Biso   1.000  O
  C29      1.0000 0.57680  0.00958  0.19098  Biso   1.000  C
  C30      1.0000 0.57680  0.95367  0.21220  Biso   1.000  C
  C31      1.0000 0.57680  0.94410  0.27122  Biso   1.000  C
  C32      1.0000 0.57680  0.01986  0.12759  Biso   1.000  C
  H8       1.0000 0.57680  0.90411  0.28640  Biso   1.000  H
  O25      1.0000 0.39170  0.56709  0.93149  Biso   1.000  O
  O26      1.0000 0.40600  0.58638  0.02090  Biso   1.000  O
  O27      1.0000 0.32368  0.57680  0.09029  Biso   1.000  O
  C33      1.0000 0.30902  0.57680  0.99042  Biso   1.000  C
  C34      1.0000 0.28780  0.57680  0.04633  Biso   1.000  C
  C35      1.0000 0.22878  0.57680  0.05590  Biso   1.000  C
  C36      1.0000 0.37241  0.57680  0.98014  Biso   1.000  C
  H9       1.0000 0.21360  0.57680  0.09589  Biso   1.000  H
  O28      1.0000 0.89170  0.06709  0.43149  Biso   1.000  O
  O29      1.0000 0.90600  0.08638  0.52090  Biso   1.000  O
  O30      1.0000 0.82368  0.07680  0.59029  Biso   1.000  O
  C37      1.0000 0.80902  0.07680  0.49042  Biso   1.000  C
  C38      1.0000 0.78780  0.07680  0.54633  Biso   1.000  C
  C39      1.0000 0.72878  0.07680  0.55590  Biso   1.000  C
  C40      1.0000 0.87241  0.07680  0.48014  Biso   1.000  C
  H10      1.0000 0.71360  0.07680  0.59589  Biso   1.000  H
  O31      1.0000 0.89170  0.93291  0.06851  Biso   1.000  O
  O32      1.0000 0.90600  0.91362  0.97910  Biso   1.000  O
  O33      1.0000 0.82368  0.92320  0.90971  Biso   1.000  O
  C41      1.0000 0.80902  0.92320  0.00958  Biso   1.000  C
  C42      1.0000 0.78780  0.92320  0.95367  Biso   1.000  C
  C43      1.0000 0.72878  0.92320  0.94410  Biso   1.000  C
  C44      1.0000 0.87241  0.92320  0.01986  Biso   1.000  C
  H11      1.0000 0.71360  0.92320  0.90411  Biso   1.000  H
  O34      1.0000 0.39170  0.43291  0.56851  Biso   1.000  O
  O35      1.0000 0.40600  0.41362  0.47910  Biso   1.000  O
  O36      1.0000 0.32368  0.42320  0.40971  Biso   1.000  O
  C45      1.0000 0.30902  0.42320  0.50958  Biso   1.000  C
  C46      1.0000 0.28780  0.42320  0.45367  Biso   1.000  C
  C47      1.0000 0.22878  0.42320  0.44410  Biso   1.000  C
  C48      1.0000 0.37241  0.42320  0.51986  Biso   1.000  C
  H12      1.0000 0.21360  0.42320  0.40411  Biso   1.000  H
  O37      1.0000 0.10830  0.43291  0.43149  Biso   1.000  O
  O38      1.0000 0.09400  0.41362  0.52090  Biso   1.000  O
  O39      1.0000 0.17632  0.42320  0.59029  Biso   1.000  O
  C49      1.0000 0.19098  0.42320  0.49042  Biso   1.000  C
  C50      1.0000 0.21220  0.42320  0.54633  Biso   1.000  C
  C51      1.0000 0.27122  0.42320  0.55590  Biso   1.000  C
  C52      1.0000 0.12759  0.42320  0.48014  Biso   1.000  C
  H13      1.0000 0.28640  0.42320  0.59589  Biso   1.000  H
  O40      1.0000 0.60830  0.93291  0.93149  Biso   1.000  O
  O41      1.0000 0.59400  0.91362  0.02090  Biso   1.000  O
  O42      1.0000 0.67632  0.92320  0.09029  Biso   1.000  O
  C53      1.0000 0.69098  0.92320  0.99042  Biso   1.000  C
  C54      1.0000 0.71220  0.92320  0.04633  Biso   1.000  C
  C55      1.0000 0.77122  0.92320  0.05590  Biso   1.000  C
  C56      1.0000 0.62759  0.92320  0.98014  Biso   1.000  C
  H14      1.0000 0.78640  0.92320  0.09589  Biso   1.000  H
  O43      1.0000 0.60830  0.06709  0.56851  Biso   1.000  O
  O44      1.0000 0.59400  0.08638  0.47910  Biso   1.000  O
  O45      1.0000 0.67632  0.07680  0.40971  Biso   1.000  O
  C57      1.0000 0.69098  0.07680  0.50958  Biso   1.000  C
  C58      1.0000 0.71220  0.07680  0.45367  Biso   1.000  C
  C59      1.0000 0.77122  0.07680  0.44410  Biso   1.000  C
  C60      1.0000 0.62759  0.07680  0.51986  Biso   1.000  C
  H15      1.0000 0.78640  0.07680  0.40411  Biso   1.000  H
  O46      1.0000 0.10830  0.56709  0.06851  Biso   1.000  O
  O47      1.0000 0.09400  0.58638  0.97910  Biso   1.000  O
  O48      1.0000 0.17632  0.57680  0.90971  Biso   1.000  O
  C61      1.0000 0.19098  0.57680  0.00958  Biso   1.000  C
  C62      1.0000 0.21220  0.57680  0.95367  Biso   1.000  C
  C63      1.0000 0.27122  0.57680  0.94410  Biso   1.000  C
  C64      1.0000 0.12759  0.57680  0.01986  Biso   1.000  C
  H16      1.0000 0.28640  0.57680  0.90411  Biso   1.000  H
  O49      1.0000 0.93149  0.39170  0.56709  Biso   1.000  O
  O50      1.0000 0.02090  0.40600  0.58638  Biso   1.000  O
  O51      1.0000 0.09029  0.32368  0.57680  Biso   1.000  O
  C65      1.0000 0.99042  0.30902  0.57680  Biso   1.000  C
  C66      1.0000 0.04633  0.28780  0.57680  Biso   1.000  C
  C67      1.0000 0.05590  0.22878  0.57680  Biso   1.000  C
  C68      1.0000 0.98014  0.37241  0.57680  Biso   1.000  C
  H17      1.0000 0.09589  0.21360  0.57680  Biso   1.000  H
  O52      1.0000 0.43149  0.89170  0.06709  Biso   1.000  O
  O53      1.0000 0.52090  0.90600  0.08638  Biso   1.000  O
  O54      1.0000 0.59029  0.82368  0.07680  Biso   1.000  O
  C69      1.0000 0.49042  0.80902  0.07680  Biso   1.000  C
  C70      1.0000 0.54633  0.78780  0.07680  Biso   1.000  C
  C71      1.0000 0.55590  0.72878  0.07680  Biso   1.000  C
  C72      1.0000 0.48014  0.87241  0.07680  Biso   1.000  C
  H18      1.0000 0.59589  0.71360  0.07680  Biso   1.000  H
  O55      1.0000 0.06851  0.89170  0.93291  Biso   1.000  O
  O56      1.0000 0.97910  0.90600  0.91362  Biso   1.000  O
  O57      1.0000 0.90971  0.82368  0.92320  Biso   1.000  O
  C73      1.0000 0.00958  0.80902  0.92320  Biso   1.000  C
  C74      1.0000 0.95367  0.78780  0.92320  Biso   1.000  C
  C75      1.0000 0.94410  0.72878  0.92320  Biso   1.000  C
  C76      1.0000 0.01986  0.87241  0.92320  Biso   1.000  C
  H19      1.0000 0.90411  0.71360  0.92320  Biso   1.000  H
  O58      1.0000 0.56851  0.39170  0.43291  Biso   1.000  O
  O59      1.0000 0.47910  0.40600  0.41362  Biso   1.000  O
  O60      1.0000 0.40971  0.32368  0.42320  Biso   1.000  O
  C77      1.0000 0.50958  0.30902  0.42320  Biso   1.000  C
  C78      1.0000 0.45367  0.28780  0.42320  Biso   1.000  C
  C79      1.0000 0.44410  0.22878  0.42320  Biso   1.000  C
  C80      1.0000 0.51986  0.37241  0.42320  Biso   1.000  C
  H20      1.0000 0.40411  0.21360  0.42320  Biso   1.000  H
  O61      1.0000 0.43149  0.10830  0.43291  Biso   1.000  O
  O62      1.0000 0.52090  0.09400  0.41362  Biso   1.000  O
  O63      1.0000 0.59029  0.17632  0.42320  Biso   1.000  O
  C81      1.0000 0.49042  0.19098  0.42320  Biso   1.000  C
  C82      1.0000 0.54633  0.21220  0.42320  Biso   1.000  C
  C83      1.0000 0.55590  0.27122  0.42320  Biso   1.000  C
  C84      1.0000 0.48014  0.12759  0.42320  Biso   1.000  C
  H21      1.0000 0.59589  0.28640  0.42320  Biso   1.000  H
  O64      1.0000 0.93149  0.60830  0.93291  Biso   1.000  O
  O65      1.0000 0.02090  0.59400  0.91362  Biso   1.000  O
  O66      1.0000 0.09029  0.67632  0.92320  Biso   1.000  O
  C85      1.0000 0.99042  0.69098  0.92320  Biso   1.000  C
  C86      1.0000 0.04633  0.71220  0.92320  Biso   1.000  C
  C87      1.0000 0.05590  0.77122  0.92320  Biso   1.000  C
  C88      1.0000 0.98014  0.62759  0.92320  Biso   1.000  C
  H22      1.0000 0.09589  0.78640  0.92320  Biso   1.000  H
  O67      1.0000 0.56851  0.60830  0.06709  Biso   1.000  O
  O68      1.0000 0.47910  0.59400  0.08638  Biso   1.000  O
  O69      1.0000 0.40971  0.67632  0.07680  Biso   1.000  O
  C89      1.0000 0.50958  0.69098  0.07680  Biso   1.000  C
  C90      1.0000 0.45367  0.71220  0.07680  Biso   1.000  C
  C91      1.0000 0.44410  0.77122  0.07680  Biso   1.000  C
  C92      1.0000 0.51986  0.62759  0.07680  Biso   1.000  C
  H23      1.0000 0.40411  0.78640  0.07680  Biso   1.000  H
  O70      1.0000 0.06851  0.10830  0.56709  Biso   1.000  O
  O71      1.0000 0.97910  0.09400  0.58638  Biso   1.000  O
  O72      1.0000 0.90971  0.17632  0.57680  Biso   1.000  O
  C93      1.0000 0.00958  0.19098  0.57680  Biso   1.000  C
  C94      1.0000 0.95367  0.21220  0.57680  Biso   1.000  C
  C95      1.0000 0.94410  0.27122  0.57680  Biso   1.000  C
  C96      1.0000 0.01986  0.12759  0.57680  Biso   1.000  C
  H24      1.0000 0.90411  0.28640  0.57680  Biso   1.000  H
  Ti1      1.0000 0.60095  0.89905  0.10095  Biso   1.000  Ti
  Ti2      1.0000 0.10095  0.39905  0.60095  Biso   1.000  Ti
  Ti3      1.0000 0.89905  0.10095  0.60095  Biso   1.000  Ti
  Ti4      1.0000 0.39905  0.60095  0.10095  Biso   1.000  Ti
  Ti5      1.0000 0.39905  0.39905  0.39905  Biso   1.000  Ti
  Ti6      1.0000 0.89905  0.89905  0.89905  Biso   1.000  Ti
  Ti7      1.0000 0.10095  0.60095  0.89905  Biso   1.000  Ti
  Ti8      1.0000 0.60095  0.10095  0.39905  Biso   1.000  Ti
  O73      1.0000 0.18149  0.81709  0.64170  Biso   1.000  O
  O74      1.0000 0.27090  0.83638  0.65600  Biso   1.000  O
  O75      1.0000 0.34029  0.82680  0.57368  Biso   1.000  O
  C97      1.0000 0.24042  0.82680  0.55902  Biso   1.000  C
  C98      1.0000 0.29633  0.82680  0.53780  Biso   1.000  C
  C99      1.0000 0.30590  0.82680  0.47878  Biso   1.000  C
  C100     1.0000 0.23014  0.82680  0.62241  Biso   1.000  C
  H25      1.0000 0.34589  0.82680  0.46360  Biso   1.000  H
  O76      1.0000 0.68149  0.31709  0.14170  Biso   1.000  O
  O77      1.0000 0.77090  0.33638  0.15600  Biso   1.000  O
  O78      1.0000 0.84029  0.32680  0.07368  Biso   1.000  O
  C101     1.0000 0.74042  0.32680  0.05902  Biso   1.000  C
  C102     1.0000 0.79633  0.32680  0.03780  Biso   1.000  C
  C103     1.0000 0.80590  0.32680  0.97878  Biso   1.000  C
  C104     1.0000 0.73014  0.32680  0.12241  Biso   1.000  C
  H26      1.0000 0.84589  0.32680  0.96360  Biso   1.000  H
  O79      1.0000 0.31851  0.18291  0.14170  Biso   1.000  O
  O80      1.0000 0.22910  0.16362  0.15600  Biso   1.000  O
  O81      1.0000 0.15971  0.17320  0.07368  Biso   1.000  O
  C105     1.0000 0.25958  0.17320  0.05902  Biso   1.000  C
  C106     1.0000 0.20367  0.17320  0.03780  Biso   1.000  C
  C107     1.0000 0.19410  0.17320  0.97878  Biso   1.000  C
  C108     1.0000 0.26986  0.17320  0.12241  Biso   1.000  C
  H27      1.0000 0.15411  0.17320  0.96360  Biso   1.000  H
  O82      1.0000 0.81851  0.68291  0.64170  Biso   1.000  O
  O83      1.0000 0.72910  0.66362  0.65600  Biso   1.000  O
  O84      1.0000 0.65971  0.67320  0.57368  Biso   1.000  O
  C109     1.0000 0.75958  0.67320  0.55902  Biso   1.000  C
  C110     1.0000 0.70367  0.67320  0.53780  Biso   1.000  C
  C111     1.0000 0.69410  0.67320  0.47878  Biso   1.000  C
  C112     1.0000 0.76986  0.67320  0.62241  Biso   1.000  C
  H28      1.0000 0.65411  0.67320  0.46360  Biso   1.000  H
  O85      1.0000 0.68149  0.68291  0.35830  Biso   1.000  O
  O86      1.0000 0.77090  0.66362  0.34400  Biso   1.000  O
  O87      1.0000 0.84029  0.67320  0.42632  Biso   1.000  O
  C113     1.0000 0.74042  0.67320  0.44098  Biso   1.000  C
  C114     1.0000 0.79633  0.67320  0.46220  Biso   1.000  C
  C115     1.0000 0.80590  0.67320  0.52122  Biso   1.000  C
  C116     1.0000 0.73014  0.67320  0.37759  Biso   1.000  C
  H29      1.0000 0.84589  0.67320  0.53640  Biso   1.000  H
  O88      1.0000 0.18149  0.18291  0.85830  Biso   1.000  O
  O89      1.0000 0.27090  0.16362  0.84400  Biso   1.000  O
  O90      1.0000 0.34029  0.17320  0.92632  Biso   1.000  O
  C117     1.0000 0.24042  0.17320  0.94098  Biso   1.000  C
  C118     1.0000 0.29633  0.17320  0.96220  Biso   1.000  C
  C119     1.0000 0.30590  0.17320  0.02122  Biso   1.000  C
  C120     1.0000 0.23014  0.17320  0.87759  Biso   1.000  C
  H30      1.0000 0.34589  0.17320  0.03640  Biso   1.000  H
  O91      1.0000 0.81851  0.31709  0.85830  Biso   1.000  O
  O92      1.0000 0.72910  0.33638  0.84400  Biso   1.000  O
  O93      1.0000 0.65971  0.32680  0.92632  Biso   1.000  O
  C121     1.0000 0.75958  0.32680  0.94098  Biso   1.000  C
  C122     1.0000 0.70367  0.32680  0.96220  Biso   1.000  C
  C123     1.0000 0.69410  0.32680  0.02122  Biso   1.000  C
  C124     1.0000 0.76986  0.32680  0.87759  Biso   1.000  C
  H31      1.0000 0.65411  0.32680  0.03640  Biso   1.000  H
  O94      1.0000 0.31851  0.81709  0.35830  Biso   1.000  O
  O95      1.0000 0.22910  0.83638  0.34400  Biso   1.000  O
  O96      1.0000 0.15971  0.82680  0.42632  Biso   1.000  O
  C125     1.0000 0.25958  0.82680  0.44098  Biso   1.000  C
  C126     1.0000 0.20367  0.82680  0.46220  Biso   1.000  C
  C127     1.0000 0.19410  0.82680  0.52122  Biso   1.000  C
  C128     1.0000 0.26986  0.82680  0.37759  Biso   1.000  C
  H32      1.0000 0.15411  0.82680  0.53640  Biso   1.000  H
  O97      1.0000 0.81709  0.64170  0.18149  Biso   1.000  O
  O98      1.0000 0.83638  0.65600  0.27090  Biso   1.000  O
  O99      1.0000 0.82680  0.57368  0.34029  Biso   1.000  O
  C129     1.0000 0.82680  0.55902  0.24042  Biso   1.000  C
  C130     1.0000 0.82680  0.53780  0.29633  Biso   1.000  C
  C131     1.0000 0.82680  0.47878  0.30590  Biso   1.000  C
  C132     1.0000 0.82680  0.62241  0.23014  Biso   1.000  C
  H33      1.0000 0.82680  0.46360  0.34589  Biso   1.000  H
  O100     1.0000 0.31709  0.14170  0.68149  Biso   1.000  O
  O101     1.0000 0.33638  0.15600  0.77090  Biso   1.000  O
  O102     1.0000 0.32680  0.07368  0.84029  Biso   1.000  O
  C133     1.0000 0.32680  0.05902  0.74042  Biso   1.000  C
  C134     1.0000 0.32680  0.03780  0.79633  Biso   1.000  C
  C135     1.0000 0.32680  0.97878  0.80590  Biso   1.000  C
  C136     1.0000 0.32680  0.12241  0.73014  Biso   1.000  C
  H34      1.0000 0.32680  0.96360  0.84589  Biso   1.000  H
  O103     1.0000 0.18291  0.14170  0.31851  Biso   1.000  O
  O104     1.0000 0.16362  0.15600  0.22910  Biso   1.000  O
  O105     1.0000 0.17320  0.07368  0.15971  Biso   1.000  O
  C137     1.0000 0.17320  0.05902  0.25958  Biso   1.000  C
  C138     1.0000 0.17320  0.03780  0.20367  Biso   1.000  C
  C139     1.0000 0.17320  0.97878  0.19410  Biso   1.000  C
  C140     1.0000 0.17320  0.12241  0.26986  Biso   1.000  C
  H35      1.0000 0.17320  0.96360  0.15411  Biso   1.000  H
  O106     1.0000 0.68291  0.64170  0.81851  Biso   1.000  O
  O107     1.0000 0.66362  0.65600  0.72910  Biso   1.000  O
  O108     1.0000 0.67320  0.57368  0.65971  Biso   1.000  O
  C141     1.0000 0.67320  0.55902  0.75958  Biso   1.000  C
  C142     1.0000 0.67320  0.53780  0.70367  Biso   1.000  C
  C143     1.0000 0.67320  0.47878  0.69410  Biso   1.000  C
  C144     1.0000 0.67320  0.62241  0.76986  Biso   1.000  C
  H36      1.0000 0.67320  0.46360  0.65411  Biso   1.000  H
  O109     1.0000 0.68291  0.35830  0.68149  Biso   1.000  O
  O110     1.0000 0.66362  0.34400  0.77090  Biso   1.000  O
  O111     1.0000 0.67320  0.42632  0.84029  Biso   1.000  O
  C145     1.0000 0.67320  0.44098  0.74042  Biso   1.000  C
  C146     1.0000 0.67320  0.46220  0.79633  Biso   1.000  C
  C147     1.0000 0.67320  0.52122  0.80590  Biso   1.000  C
  C148     1.0000 0.67320  0.37759  0.73014  Biso   1.000  C
  H37      1.0000 0.67320  0.53640  0.84589  Biso   1.000  H
  O112     1.0000 0.18291  0.85830  0.18149  Biso   1.000  O
  O113     1.0000 0.16362  0.84400  0.27090  Biso   1.000  O
  O114     1.0000 0.17320  0.92632  0.34029  Biso   1.000  O
  C149     1.0000 0.17320  0.94098  0.24042  Biso   1.000  C
  C150     1.0000 0.17320  0.96220  0.29633  Biso   1.000  C
  C151     1.0000 0.17320  0.02122  0.30590  Biso   1.000  C
  C152     1.0000 0.17320  0.87759  0.23014  Biso   1.000  C
  H38      1.0000 0.17320  0.03640  0.34589  Biso   1.000  H
  O115     1.0000 0.31709  0.85830  0.81851  Biso   1.000  O
  O116     1.0000 0.33638  0.84400  0.72910  Biso   1.000  O
  O117     1.0000 0.32680  0.92632  0.65971  Biso   1.000  O
  C153     1.0000 0.32680  0.94098  0.75958  Biso   1.000  C
  C154     1.0000 0.32680  0.96220  0.70367  Biso   1.000  C
  C155     1.0000 0.32680  0.02122  0.69410  Biso   1.000  C
  C156     1.0000 0.32680  0.87759  0.76986  Biso   1.000  C
  H39      1.0000 0.32680  0.03640  0.65411  Biso   1.000  H
  O118     1.0000 0.81709  0.35830  0.31851  Biso   1.000  O
  O119     1.0000 0.83638  0.34400  0.22910  Biso   1.000  O
  O120     1.0000 0.82680  0.42632  0.15971  Biso   1.000  O
  C157     1.0000 0.82680  0.44098  0.25958  Biso   1.000  C
  C158     1.0000 0.82680  0.46220  0.20367  Biso   1.000  C
  C159     1.0000 0.82680  0.52122  0.19410  Biso   1.000  C
  C160     1.0000 0.82680  0.37759  0.26986  Biso   1.000  C
  H40      1.0000 0.82680  0.53640  0.15411  Biso   1.000  H
  O121     1.0000 0.64170  0.18149  0.81709  Biso   1.000  O
  O122     1.0000 0.65600  0.27090  0.83638  Biso   1.000  O
  O123     1.0000 0.57368  0.34029  0.82680  Biso   1.000  O
  C161     1.0000 0.55902  0.24042  0.82680  Biso   1.000  C
  C162     1.0000 0.53780  0.29633  0.82680  Biso   1.000  C
  C163     1.0000 0.47878  0.30590  0.82680  Biso   1.000  C
  C164     1.0000 0.62241  0.23014  0.82680  Biso   1.000  C
  H41      1.0000 0.46360  0.34589  0.82680  Biso   1.000  H
  O124     1.0000 0.14170  0.68149  0.31709  Biso   1.000  O
  O125     1.0000 0.15600  0.77090  0.33638  Biso   1.000  O
  O126     1.0000 0.07368  0.84029  0.32680  Biso   1.000  O
  C165     1.0000 0.05902  0.74042  0.32680  Biso   1.000  C
  C166     1.0000 0.03780  0.79633  0.32680  Biso   1.000  C
  C167     1.0000 0.97878  0.80590  0.32680  Biso   1.000  C
  C168     1.0000 0.12241  0.73014  0.32680  Biso   1.000  C
  H42      1.0000 0.96360  0.84589  0.32680  Biso   1.000  H
  O127     1.0000 0.14170  0.31851  0.18291  Biso   1.000  O
  O128     1.0000 0.15600  0.22910  0.16362  Biso   1.000  O
  O129     1.0000 0.07368  0.15971  0.17320  Biso   1.000  O
  C169     1.0000 0.05902  0.25958  0.17320  Biso   1.000  C
  C170     1.0000 0.03780  0.20367  0.17320  Biso   1.000  C
  C171     1.0000 0.97878  0.19410  0.17320  Biso   1.000  C
  C172     1.0000 0.12241  0.26986  0.17320  Biso   1.000  C
  H43      1.0000 0.96360  0.15411  0.17320  Biso   1.000  H
  O130     1.0000 0.64170  0.81851  0.68291  Biso   1.000  O
  O131     1.0000 0.65600  0.72910  0.66362  Biso   1.000  O
  O132     1.0000 0.57368  0.65971  0.67320  Biso   1.000  O
  C173     1.0000 0.55902  0.75958  0.67320  Biso   1.000  C
  C174     1.0000 0.53780  0.70367  0.67320  Biso   1.000  C
  C175     1.0000 0.47878  0.69410  0.67320  Biso   1.000  C
  C176     1.0000 0.62241  0.76986  0.67320  Biso   1.000  C
  H44      1.0000 0.46360  0.65411  0.67320  Biso   1.000  H
  O133     1.0000 0.35830  0.68149  0.68291  Biso   1.000  O
  O134     1.0000 0.34400  0.77090  0.66362  Biso   1.000  O
  O135     1.0000 0.42632  0.84029  0.67320  Biso   1.000  O
  C177     1.0000 0.44098  0.74042  0.67320  Biso   1.000  C
  C178     1.0000 0.46220  0.79633  0.67320  Biso   1.000  C
  C179     1.0000 0.52122  0.80590  0.67320  Biso   1.000  C
  C180     1.0000 0.37759  0.73014  0.67320  Biso   1.000  C
  H45      1.0000 0.53640  0.84589  0.67320  Biso   1.000  H
  O136     1.0000 0.85830  0.18149  0.18291  Biso   1.000  O
  O137     1.0000 0.84400  0.27090  0.16362  Biso   1.000  O
  O138     1.0000 0.92632  0.34029  0.17320  Biso   1.000  O
  C181     1.0000 0.94098  0.24042  0.17320  Biso   1.000  C
  C182     1.0000 0.96220  0.29633  0.17320  Biso   1.000  C
  C183     1.0000 0.02122  0.30590  0.17320  Biso   1.000  C
  C184     1.0000 0.87759  0.23014  0.17320  Biso   1.000  C
  H46      1.0000 0.03640  0.34589  0.17320  Biso   1.000  H
  O139     1.0000 0.85830  0.81851  0.31709  Biso   1.000  O
  O140     1.0000 0.84400  0.72910  0.33638  Biso   1.000  O
  O141     1.0000 0.92632  0.65971  0.32680  Biso   1.000  O
  C185     1.0000 0.94098  0.75958  0.32680  Biso   1.000  C
  C186     1.0000 0.96220  0.70367  0.32680  Biso   1.000  C
  C187     1.0000 0.02122  0.69410  0.32680  Biso   1.000  C
  C188     1.0000 0.87759  0.76986  0.32680  Biso   1.000  C
  H47      1.0000 0.03640  0.65411  0.32680  Biso   1.000  H
  O142     1.0000 0.35830  0.31851  0.81709  Biso   1.000  O
  O143     1.0000 0.34400  0.22910  0.83638  Biso   1.000  O
  O144     1.0000 0.42632  0.15971  0.82680  Biso   1.000  O
  C189     1.0000 0.44098  0.25958  0.82680  Biso   1.000  C
  C190     1.0000 0.46220  0.20367  0.82680  Biso   1.000  C
  C191     1.0000 0.52122  0.19410  0.82680  Biso   1.000  C
  C192     1.0000 0.37759  0.26986  0.82680  Biso   1.000  C
  H48      1.0000 0.53640  0.15411  0.82680  Biso   1.000  H
  Ti9      1.0000 0.14905  0.85095  0.35095  Biso   1.000  Ti
  Ti10     1.0000 0.64905  0.35095  0.85095  Biso   1.000  Ti
  Ti11     1.0000 0.35095  0.14905  0.85095  Biso   1.000  Ti
  Ti12     1.0000 0.85095  0.64905  0.35095  Biso   1.000  Ti
  Ti13     1.0000 0.64905  0.64905  0.64905  Biso   1.000  Ti
  Ti14     1.0000 0.14905  0.14905  0.14905  Biso   1.000  Ti
  Ti15     1.0000 0.85095  0.35095  0.14905  Biso   1.000  Ti
  Ti16     1.0000 0.35095  0.85095  0.64905  Biso   1.000  Ti
