data_OTOROF_clean
_audit_creation_date              2014-07-02
_audit_creation_method            'Materials Studio'
_symmetry_space_group_name_H-M    'P1'
_symmetry_Int_Tables_number       1
_symmetry_cell_setting            triclinic
loop_
_symmetry_equiv_pos_as_xyz
  x,y,z
_cell_length_a                    8.5310
_cell_length_b                    13.3760
_cell_length_c                    13.6310
_cell_angle_alpha                 90.0000
_cell_angle_beta                  90.0000
_cell_angle_gamma                 90.0000
loop_
_atom_site_label
_atom_site_type_symbol
_atom_site_fract_x
_atom_site_fract_y
_atom_site_fract_z
_atom_site_U_iso_or_equiv
_atom_site_adp_type
_atom_site_occupancy
Mn1    Mn    0.81501   0.75000   0.77540   0.01267  Uiso   1.00
Mn2    Mn    0.31501   0.25000   0.72460   0.01267  Uiso   1.00
Mn3    Mn    0.18499   0.25000   0.22460   0.01267  Uiso   1.00
Mn4    Mn    0.68499   0.75000   0.27540   0.01267  Uiso   1.00
Fe1    Fe    0.50000   0.00000   0.00000   0.01267  Uiso   1.00
Fe2    Fe    0.00000   0.00000   0.50000   0.01267  Uiso   1.00
Fe3    Fe    0.50000   0.50000   0.00000   0.01267  Uiso   1.00
Fe4    Fe    0.00000   0.50000   0.50000   0.01267  Uiso   1.00
C1     C     0.62670   0.91553   0.91546   0.01267  Uiso   1.00
C2     C     0.68640   0.07543   0.03067   0.01267  Uiso   1.00
C3     C     0.55090   0.91459   0.11044   0.01267  Uiso   1.00
C4     C     0.12670   0.08447   0.58454   0.01267  Uiso   1.00
C5     C     0.18640   0.92457   0.46933   0.01267  Uiso   1.00
C6     C     0.05090   0.08541   0.38956   0.01267  Uiso   1.00
C7     C     0.37330   0.41553   0.08454   0.01267  Uiso   1.00
C8     C     0.31360   0.57543   0.96933   0.01267  Uiso   1.00
C9     C     0.44910   0.41459   0.88956   0.01267  Uiso   1.00
C10    C     0.87330   0.58447   0.41546   0.01267  Uiso   1.00
C11    C     0.81360   0.42457   0.53067   0.01267  Uiso   1.00
C12    C     0.94910   0.58541   0.61044   0.01267  Uiso   1.00
C13    C     0.37330   0.08447   0.08454   0.01267  Uiso   1.00
C14    C     0.31360   0.92457   0.96933   0.01267  Uiso   1.00
C15    C     0.44910   0.08541   0.88956   0.01267  Uiso   1.00
C16    C     0.87330   0.91553   0.41546   0.01267  Uiso   1.00
C17    C     0.81360   0.07543   0.53067   0.01267  Uiso   1.00
C18    C     0.94910   0.91459   0.61044   0.01267  Uiso   1.00
C19    C     0.62670   0.58447   0.91546   0.01267  Uiso   1.00
C20    C     0.68640   0.42457   0.03067   0.01267  Uiso   1.00
C21    C     0.55090   0.58541   0.11044   0.01267  Uiso   1.00
C22    C     0.12670   0.41553   0.58454   0.01267  Uiso   1.00
C23    C     0.18640   0.57543   0.46933   0.01267  Uiso   1.00
C24    C     0.05090   0.41459   0.38956   0.01267  Uiso   1.00
N1     N     0.70160   0.86591   0.86551   0.01267  Uiso   1.00
N2     N     0.58540   0.86409   0.17437   0.01267  Uiso   1.00
N3     N     0.79730   0.11793   0.04923   0.01267  Uiso   1.00
N4     N     0.20160   0.13409   0.63449   0.01267  Uiso   1.00
N5     N     0.08540   0.13591   0.32563   0.01267  Uiso   1.00
N6     N     0.29730   0.88207   0.45077   0.01267  Uiso   1.00
N7     N     0.29840   0.36591   0.13449   0.01267  Uiso   1.00
N8     N     0.41460   0.36409   0.82563   0.01267  Uiso   1.00
N9     N     0.20270   0.61793   0.95077   0.01267  Uiso   1.00
N10    N     0.79840   0.63409   0.36551   0.01267  Uiso   1.00
N11    N     0.91460   0.63591   0.67437   0.01267  Uiso   1.00
N12    N     0.70270   0.38207   0.54923   0.01267  Uiso   1.00
N13    N     0.29840   0.13409   0.13449   0.01267  Uiso   1.00
N14    N     0.41460   0.13591   0.82563   0.01267  Uiso   1.00
N15    N     0.20270   0.88207   0.95077   0.01267  Uiso   1.00
N16    N     0.79840   0.86591   0.36551   0.01267  Uiso   1.00
N17    N     0.91460   0.86409   0.67437   0.01267  Uiso   1.00
N18    N     0.70270   0.11793   0.54923   0.01267  Uiso   1.00
N19    N     0.70160   0.63409   0.86551   0.01267  Uiso   1.00
N20    N     0.58540   0.63591   0.17437   0.01267  Uiso   1.00
N21    N     0.79730   0.38207   0.04923   0.01267  Uiso   1.00
N22    N     0.20160   0.36591   0.63449   0.01267  Uiso   1.00
N23    N     0.08540   0.36409   0.32563   0.01267  Uiso   1.00
N24    N     0.29730   0.61793   0.45077   0.01267  Uiso   1.00
