data_image0
_cell_length_a       9.7353
_cell_length_b       17.7435
_cell_length_c       11.7645
_cell_angle_alpha    90
_cell_angle_beta     104.07
_cell_angle_gamma    90

_symmetry_space_group_name_H-M    "P 1"
_symmetry_int_tables_number       1

loop_
  _symmetry_equiv_pos_as_xyz
  'x, y, z'

loop_
  _atom_site_label
  _atom_site_occupancy
  _atom_site_fract_x
  _atom_site_fract_y
  _atom_site_fract_z
  _atom_site_thermal_displace_type
  _atom_site_B_iso_or_equiv
  _atom_site_type_symbol
  C1       1.0000 0.97160  0.16190  0.09650  Biso   1.000  C
  H1       1.0000 0.87610  0.15320  0.06340  Biso   1.000  H
  C2       1.0000 0.20040  0.12162  0.13790  Biso   1.000  C
  H2       1.0000 0.26770  0.08560  0.13230  Biso   1.000  H
  C3       1.0000 0.24450  0.18775  0.19730  Biso   1.000  C
  C4       1.0000 0.15120  0.24511  0.20640  Biso   1.000  C
  C5       1.0000 0.01080  0.22991  0.15160  Biso   1.000  C
  C6       1.0000 0.20590  0.31430  0.26880  Biso   1.000  C
  H3       1.0000 0.30340  0.32100  0.28380  Biso   1.000  H
  C7       1.0000 0.21070  0.43612  0.36862  Biso   1.000  C
  C8       1.0000 0.13540  0.36855  0.30650  Biso   1.000  C
  H4       1.0000 0.03760  0.36480  0.29440  Biso   1.000  H
  F1       1.0000 0.37750  0.19383  0.25530  Biso   1.000  F
  N1       1.0000 0.06453  0.10770  0.08829  Biso   1.000  N
  O1       1.0000 0.34309  0.43591  0.39054  Biso   1.000  O
  O2       1.0000 0.13607  0.48890  0.39211  Biso   1.000  O
  C9       1.0000 0.31080  0.66100  0.22670  Biso   1.000  C
  C10      1.0000 0.45510  0.66920  0.44920  Biso   1.000  C
  H5       1.0000 0.50510  0.67270  0.52720  Biso   1.000  H
  C11      1.0000 0.35890  0.59705  0.28960  Biso   1.000  C
  H6       1.0000 0.34070  0.55020  0.25350  Biso   1.000  H
  C12      1.0000 0.34800  0.86515  0.21510  Biso   1.000  C
  H7       1.0000 0.43490  0.86970  0.26920  Biso   1.000  H
  C13      1.0000 0.40970  0.73479  0.38940  Biso   1.000  C
  H8       1.0000 0.42950  0.78100  0.42720  Biso   1.000  H
  C14      1.0000 0.33470  0.73245  0.27330  Biso   1.000  C
  C15      1.0000 0.28850  0.93200  0.14220  Biso   1.000  C
  C16      1.0000 0.28130  0.80009  0.20530  Biso   1.000  C
  H9       1.0000 0.19420  0.79680  0.15130  Biso   1.000  H
  F2       1.0000 0.23900  0.65315  0.11354  Biso   1.000  F
  N2       1.0000 0.43120  0.60072  0.40102  Biso   1.000  N
  O3       1.0000 0.15583  0.93794  0.11514  Biso   1.000  O
  O4       1.0000 0.37476  0.97732  0.11705  Biso   1.000  O
  F3       1.0000 0.91640  0.28200  0.14410  Biso   1.000  F
  C17      1.0000 0.02840  0.66190  0.40350  Biso   1.000  C
  H10      1.0000 0.12390  0.65320  0.43660  Biso   1.000  H
  C18      1.0000 0.79960  0.62162  0.36210  Biso   1.000  C
  H11      1.0000 0.73230  0.58560  0.36770  Biso   1.000  H
  C19      1.0000 0.75550  0.68775  0.30270  Biso   1.000  C
  C20      1.0000 0.84880  0.74511  0.29360  Biso   1.000  C
  C21      1.0000 0.98920  0.72991  0.34840  Biso   1.000  C
  C22      1.0000 0.79410  0.81430  0.23120  Biso   1.000  C
  H12      1.0000 0.69660  0.82100  0.21620  Biso   1.000  H
  C23      1.0000 0.78930  0.93612  0.13138  Biso   1.000  C
  C24      1.0000 0.86460  0.86855  0.19350  Biso   1.000  C
  H13      1.0000 0.96240  0.86480  0.20560  Biso   1.000  H
  F4       1.0000 0.62250  0.69383  0.24470  Biso   1.000  F
  N3       1.0000 0.93547  0.60770  0.41171  Biso   1.000  N
  O5       1.0000 0.65691  0.93591  0.10946  Biso   1.000  O
  O6       1.0000 0.86393  0.98890  0.10789  Biso   1.000  O
  C25      1.0000 0.68920  0.16100  0.27330  Biso   1.000  C
  C26      1.0000 0.54490  0.16920  0.05080  Biso   1.000  C
  H14      1.0000 0.49490  0.17270  0.97280  Biso   1.000  H
  C27      1.0000 0.64110  0.09705  0.21040  Biso   1.000  C
  H15      1.0000 0.65930  0.05020  0.24650  Biso   1.000  H
  C28      1.0000 0.65200  0.36515  0.28490  Biso   1.000  C
  H16      1.0000 0.56510  0.36970  0.23080  Biso   1.000  H
  C29      1.0000 0.59030  0.23479  0.11060  Biso   1.000  C
  H17      1.0000 0.57050  0.28100  0.07280  Biso   1.000  H
  C30      1.0000 0.66530  0.23245  0.22670  Biso   1.000  C
  C31      1.0000 0.71150  0.43200  0.35780  Biso   1.000  C
  C32      1.0000 0.71870  0.30009  0.29470  Biso   1.000  C
  H18      1.0000 0.80580  0.29680  0.34870  Biso   1.000  H
  F5       1.0000 0.76100  0.15315  0.38646  Biso   1.000  F
  N4       1.0000 0.56880  0.10072  0.09898  Biso   1.000  N
  O7       1.0000 0.84417  0.43794  0.38486  Biso   1.000  O
  O8       1.0000 0.62524  0.47732  0.38295  Biso   1.000  O
  F6       1.0000 0.08360  0.78200  0.35590  Biso   1.000  F
  C33      1.0000 0.02840  0.83810  0.90350  Biso   1.000  C
  H19      1.0000 0.12390  0.84680  0.93660  Biso   1.000  H
  C34      1.0000 0.79960  0.87838  0.86210  Biso   1.000  C
  H20      1.0000 0.73230  0.91440  0.86770  Biso   1.000  H
  C35      1.0000 0.75550  0.81225  0.80270  Biso   1.000  C
  C36      1.0000 0.84880  0.75489  0.79360  Biso   1.000  C
  C37      1.0000 0.98920  0.77009  0.84840  Biso   1.000  C
  C38      1.0000 0.79410  0.68570  0.73120  Biso   1.000  C
  H21      1.0000 0.69660  0.67900  0.71620  Biso   1.000  H
  C39      1.0000 0.78930  0.56388  0.63138  Biso   1.000  C
  C40      1.0000 0.86460  0.63145  0.69350  Biso   1.000  C
  H22      1.0000 0.96240  0.63520  0.70560  Biso   1.000  H
  F7       1.0000 0.62250  0.80617  0.74470  Biso   1.000  F
  N5       1.0000 0.93547  0.89230  0.91171  Biso   1.000  N
  O9       1.0000 0.65691  0.56409  0.60946  Biso   1.000  O
  O10      1.0000 0.86393  0.51110  0.60789  Biso   1.000  O
  C41      1.0000 0.68920  0.33900  0.77330  Biso   1.000  C
  C42      1.0000 0.54490  0.33080  0.55080  Biso   1.000  C
  H23      1.0000 0.49490  0.32730  0.47280  Biso   1.000  H
  C43      1.0000 0.64110  0.40295  0.71040  Biso   1.000  C
  H24      1.0000 0.65930  0.44980  0.74650  Biso   1.000  H
  C44      1.0000 0.65200  0.13485  0.78490  Biso   1.000  C
  H25      1.0000 0.56510  0.13030  0.73080  Biso   1.000  H
  C45      1.0000 0.59030  0.26521  0.61060  Biso   1.000  C
  H26      1.0000 0.57050  0.21900  0.57280  Biso   1.000  H
  C46      1.0000 0.66530  0.26755  0.72670  Biso   1.000  C
  C47      1.0000 0.71150  0.06800  0.85780  Biso   1.000  C
  C48      1.0000 0.71870  0.19991  0.79470  Biso   1.000  C
  H27      1.0000 0.80580  0.20320  0.84870  Biso   1.000  H
  F8       1.0000 0.76100  0.34685  0.88646  Biso   1.000  F
  N6       1.0000 0.56880  0.39928  0.59898  Biso   1.000  N
  O11      1.0000 0.84417  0.06206  0.88486  Biso   1.000  O
  O12      1.0000 0.62524  0.02268  0.88295  Biso   1.000  O
  F9       1.0000 0.08360  0.71800  0.85590  Biso   1.000  F
  C49      1.0000 0.97160  0.33810  0.59650  Biso   1.000  C
  H28      1.0000 0.87610  0.34680  0.56340  Biso   1.000  H
  C50      1.0000 0.20040  0.37838  0.63790  Biso   1.000  C
  H29      1.0000 0.26770  0.41440  0.63230  Biso   1.000  H
  C51      1.0000 0.24450  0.31225  0.69730  Biso   1.000  C
  C52      1.0000 0.15120  0.25489  0.70640  Biso   1.000  C
  C53      1.0000 0.01080  0.27009  0.65160  Biso   1.000  C
  C54      1.0000 0.20590  0.18570  0.76880  Biso   1.000  C
  H30      1.0000 0.30340  0.17900  0.78380  Biso   1.000  H
  C55      1.0000 0.21070  0.06388  0.86862  Biso   1.000  C
  C56      1.0000 0.13540  0.13145  0.80650  Biso   1.000  C
  H31      1.0000 0.03760  0.13520  0.79440  Biso   1.000  H
  F10      1.0000 0.37750  0.30617  0.75530  Biso   1.000  F
  N7       1.0000 0.06453  0.39230  0.58829  Biso   1.000  N
  O13      1.0000 0.34309  0.06409  0.89054  Biso   1.000  O
  O14      1.0000 0.13607  0.01110  0.89211  Biso   1.000  O
  C57      1.0000 0.31080  0.83900  0.72670  Biso   1.000  C
  C58      1.0000 0.45510  0.83080  0.94920  Biso   1.000  C
  H32      1.0000 0.50510  0.82730  0.02720  Biso   1.000  H
  C59      1.0000 0.35890  0.90295  0.78960  Biso   1.000  C
  H33      1.0000 0.34070  0.94980  0.75350  Biso   1.000  H
  C60      1.0000 0.34800  0.63485  0.71510  Biso   1.000  C
  H34      1.0000 0.43490  0.63030  0.76920  Biso   1.000  H
  C61      1.0000 0.40970  0.76521  0.88940  Biso   1.000  C
  H35      1.0000 0.42950  0.71900  0.92720  Biso   1.000  H
  C62      1.0000 0.33470  0.76755  0.77330  Biso   1.000  C
  C63      1.0000 0.28850  0.56800  0.64220  Biso   1.000  C
  C64      1.0000 0.28130  0.69991  0.70530  Biso   1.000  C
  H36      1.0000 0.19420  0.70320  0.65130  Biso   1.000  H
  F11      1.0000 0.23900  0.84685  0.61354  Biso   1.000  F
  N8       1.0000 0.43120  0.89928  0.90102  Biso   1.000  N
  O15      1.0000 0.15583  0.56206  0.61514  Biso   1.000  O
  O16      1.0000 0.37476  0.52268  0.61705  Biso   1.000  O
  F12      1.0000 0.91640  0.21800  0.64410  Biso   1.000  F
  Co1      1.0000 0.00000  0.00000  0.00000  Biso   1.000  Co
  Co2      1.0000 0.00000  0.50000  0.50000  Biso   1.000  Co
  Co3      1.0000 0.50000  0.50000  0.50000  Biso   1.000  Co
  Co4      1.0000 0.50000  0.00000  0.00000  Biso   1.000  Co
