data_image0
_cell_length_a       7.5253
_cell_length_b       34.2257
_cell_length_c       19.5251
_cell_angle_alpha    90
_cell_angle_beta     90.483
_cell_angle_gamma    90

_symmetry_space_group_name_H-M    "P 1"
_symmetry_int_tables_number       1

loop_
  _symmetry_equiv_pos_as_xyz
  'x, y, z'

loop_
  _atom_site_label
  _atom_site_occupancy
  _atom_site_fract_x
  _atom_site_fract_y
  _atom_site_fract_z
  _atom_site_thermal_displace_type
  _atom_site_B_iso_or_equiv
  _atom_site_type_symbol
  Mo1      1.0000 0.21270  0.10086  0.97577  Biso   1.000  Mo
  Mo2      1.0000 0.73721  0.08835  0.60054  Biso   1.000  Mo
  Mo3      1.0000 0.73161  0.27931  0.81197  Biso   1.000  Mo
  Mn1      1.0000 0.72523  0.01873  0.84851  Biso   1.000  Mn
  Mn2      1.0000 0.23126  0.17401  0.73505  Biso   1.000  Mn
  Mn3      1.0000 0.23427  0.06695  0.40093  Biso   1.000  Mn
  Mn4      1.0000 0.22846  0.25913  0.01060  Biso   1.000  Mn
  Mn5      1.0000 0.72480  0.15044  0.14971  Biso   1.000  Mn
  C1       1.0000 0.38710  0.06195  0.92210  Biso   1.000  C
  C2       1.0000 0.27480  0.12778  0.88150  Biso   1.000  C
  C3       1.0000 0.19140  0.16316  0.98950  Biso   1.000  C
  C4       1.0000 0.02890  0.10990  0.05630  Biso   1.000  C
  C5       1.0000 0.20090  0.04601  0.03110  Biso   1.000  C
  C6       1.0000 0.43230  0.11250  0.04350  Biso   1.000  C
  C7       1.0000 0.98930  0.08197  0.91510  Biso   1.000  C
  C8       1.0000 0.67970  0.05860  0.69410  Biso   1.000  C
  C9       1.0000 0.53500  0.12019  0.65180  Biso   1.000  C
  C10      1.0000 0.53970  0.07536  0.52450  Biso   1.000  C
  C11      1.0000 0.24240  0.35256  0.05990  Biso   1.000  C
  C12      1.0000 0.92520  0.08551  0.51850  Biso   1.000  C
  C13      1.0000 0.80630  0.02787  0.58930  Biso   1.000  C
  C14      1.0000 0.93290  0.11332  0.66700  Biso   1.000  C
  C15      1.0000 0.91550  0.27492  0.89590  Biso   1.000  C
  C16      1.0000 0.73940  0.33967  0.84950  Biso   1.000  C
  C17      1.0000 0.41280  0.19580  0.23960  Biso   1.000  C
  C18      1.0000 0.90470  0.23273  0.78660  Biso   1.000  C
  C19      1.0000 0.56380  0.23445  0.77580  Biso   1.000  C
  C20      1.0000 0.03680  0.19399  0.24460  Biso   1.000  C
  C21      1.0000 0.54360  0.27086  0.89460  Biso   1.000  C
  C22      1.0000 0.71510  0.11985  0.29900  Biso   1.000  C
  C23      1.0000 0.72620  0.13480  0.36940  Biso   1.000  C
  N1       1.0000 0.48200  0.04137  0.89250  Biso   1.000  N
  N2       1.0000 0.29460  0.14145  0.82818  Biso   1.000  N
  N3       1.0000 0.19360  0.19611  0.99840  Biso   1.000  N
  N4       1.0000 0.93170  0.11490  0.10103  Biso   1.000  N
  N5       1.0000 0.20340  0.01782  0.06360  Biso   1.000  N
  N6       1.0000 0.53970  0.12010  0.08350  Biso   1.000  N
  N7       1.0000 0.87490  0.07047  0.88140  Biso   1.000  N
  N8       1.0000 0.66350  0.04446  0.74740  Biso   1.000  N
  N9       1.0000 0.42500  0.13657  0.68008  Biso   1.000  N
  N10      1.0000 0.43540  0.06972  0.48150  Biso   1.000  N
  N11      1.0000 0.24700  0.32029  0.04260  Biso   1.000  N
  N12      1.0000 0.02470  0.08226  0.47420  Biso   1.000  N
  N13      1.0000 0.82910  0.99506  0.58190  Biso   1.000  N
  N14      1.0000 0.03000  0.12880  0.70410  Biso   1.000  N
  N15      1.0000 0.01150  0.27235  0.94220  Biso   1.000  N
  N16      1.0000 0.74850  0.37143  0.86820  Biso   1.000  N
  N17      1.0000 0.50840  0.18179  0.20090  Biso   1.000  N
  N18      1.0000 0.00770  0.20897  0.77250  Biso   1.000  N
  N19      1.0000 0.45970  0.21162  0.75770  Biso   1.000  N
  N20      1.0000 0.93380  0.18105  0.20670  Biso   1.000  N
  N21      1.0000 0.44580  0.26561  0.93832  Biso   1.000  N
  N22      1.0000 0.70850  0.10946  0.24320  Biso   1.000  N
  K1       1.0000 0.23390  0.06502  0.61666  Biso   1.000  K
  H1       1.0000 0.83620  0.12670  0.38980  Biso   1.000  H
  H2       1.0000 0.72130  0.16270  0.36780  Biso   1.000  H
  H3       1.0000 0.62940  0.12480  0.39490  Biso   1.000  H
  Mo4      1.0000 0.28730  0.60086  0.52423  Biso   1.000  Mo
  Mo5      1.0000 0.76279  0.58835  0.89946  Biso   1.000  Mo
  Mo6      1.0000 0.76839  0.77931  0.68803  Biso   1.000  Mo
  Mn6      1.0000 0.77477  0.51873  0.65149  Biso   1.000  Mn
  Mn7      1.0000 0.26874  0.67401  0.76495  Biso   1.000  Mn
  Mn8      1.0000 0.26573  0.56695  0.09907  Biso   1.000  Mn
  Mn9      1.0000 0.27154  0.75913  0.48940  Biso   1.000  Mn
  Mn10     1.0000 0.77520  0.65044  0.35029  Biso   1.000  Mn
  C24      1.0000 0.11290  0.56195  0.57790  Biso   1.000  C
  C25      1.0000 0.22520  0.62778  0.61850  Biso   1.000  C
  C26      1.0000 0.30860  0.66316  0.51050  Biso   1.000  C
  C27      1.0000 0.47110  0.60990  0.44370  Biso   1.000  C
  C28      1.0000 0.29910  0.54601  0.46890  Biso   1.000  C
  C29      1.0000 0.06770  0.61250  0.45650  Biso   1.000  C
  C30      1.0000 0.51070  0.58197  0.58490  Biso   1.000  C
  C31      1.0000 0.82030  0.55860  0.80590  Biso   1.000  C
  C32      1.0000 0.96500  0.62019  0.84820  Biso   1.000  C
  C33      1.0000 0.96030  0.57536  0.97550  Biso   1.000  C
  C34      1.0000 0.25760  0.85256  0.44010  Biso   1.000  C
  C35      1.0000 0.57480  0.58551  0.98150  Biso   1.000  C
  C36      1.0000 0.69370  0.52787  0.91070  Biso   1.000  C
  C37      1.0000 0.56710  0.61332  0.83300  Biso   1.000  C
  C38      1.0000 0.58450  0.77492  0.60410  Biso   1.000  C
  C39      1.0000 0.76060  0.83967  0.65050  Biso   1.000  C
  C40      1.0000 0.08720  0.69580  0.26040  Biso   1.000  C
  C41      1.0000 0.59530  0.73273  0.71340  Biso   1.000  C
  C42      1.0000 0.93620  0.73445  0.72420  Biso   1.000  C
  C43      1.0000 0.46320  0.69399  0.25540  Biso   1.000  C
  C44      1.0000 0.95640  0.77086  0.60540  Biso   1.000  C
  C45      1.0000 0.78490  0.61985  0.20100  Biso   1.000  C
  C46      1.0000 0.77380  0.63480  0.13060  Biso   1.000  C
  N23      1.0000 0.01800  0.54137  0.60750  Biso   1.000  N
  N24      1.0000 0.20540  0.64145  0.67182  Biso   1.000  N
  N25      1.0000 0.30640  0.69611  0.50160  Biso   1.000  N
  N26      1.0000 0.56830  0.61490  0.39897  Biso   1.000  N
  N27      1.0000 0.29660  0.51782  0.43640  Biso   1.000  N
  N28      1.0000 0.96030  0.62010  0.41650  Biso   1.000  N
  N29      1.0000 0.62510  0.57047  0.61860  Biso   1.000  N
  N30      1.0000 0.83650  0.54446  0.75260  Biso   1.000  N
  N31      1.0000 0.07500  0.63657  0.81992  Biso   1.000  N
  N32      1.0000 0.06460  0.56972  0.01850  Biso   1.000  N
  N33      1.0000 0.25300  0.82029  0.45740  Biso   1.000  N
  N34      1.0000 0.47530  0.58226  0.02580  Biso   1.000  N
  N35      1.0000 0.67090  0.49506  0.91810  Biso   1.000  N
  N36      1.0000 0.47000  0.62880  0.79590  Biso   1.000  N
  N37      1.0000 0.48850  0.77235  0.55780  Biso   1.000  N
  N38      1.0000 0.75150  0.87143  0.63180  Biso   1.000  N
  N39      1.0000 0.99160  0.68179  0.29910  Biso   1.000  N
  N40      1.0000 0.49230  0.70897  0.72750  Biso   1.000  N
  N41      1.0000 0.04030  0.71162  0.74230  Biso   1.000  N
  N42      1.0000 0.56620  0.68105  0.29330  Biso   1.000  N
  N43      1.0000 0.05420  0.76561  0.56168  Biso   1.000  N
  N44      1.0000 0.79150  0.60946  0.25680  Biso   1.000  N
  K2       1.0000 0.26610  0.56502  0.88334  Biso   1.000  K
  H4       1.0000 0.66380  0.62670  0.11020  Biso   1.000  H
  H5       1.0000 0.77870  0.66270  0.13220  Biso   1.000  H
  H6       1.0000 0.87060  0.62480  0.10510  Biso   1.000  H
  Mo7      1.0000 0.78730  0.89914  0.02423  Biso   1.000  Mo
  Mo8      1.0000 0.26279  0.91165  0.39946  Biso   1.000  Mo
  Mo9      1.0000 0.26839  0.72069  0.18803  Biso   1.000  Mo
  Mn11     1.0000 0.27477  0.98127  0.15149  Biso   1.000  Mn
  Mn12     1.0000 0.76874  0.82599  0.26495  Biso   1.000  Mn
  Mn13     1.0000 0.76573  0.93305  0.59907  Biso   1.000  Mn
  Mn14     1.0000 0.77154  0.74087  0.98940  Biso   1.000  Mn
  Mn15     1.0000 0.27520  0.84956  0.85029  Biso   1.000  Mn
  C47      1.0000 0.61290  0.93805  0.07790  Biso   1.000  C
  C48      1.0000 0.72520  0.87222  0.11850  Biso   1.000  C
  C49      1.0000 0.80860  0.83684  0.01050  Biso   1.000  C
  C50      1.0000 0.97110  0.89010  0.94370  Biso   1.000  C
  C51      1.0000 0.79910  0.95399  0.96890  Biso   1.000  C
  C52      1.0000 0.56770  0.88750  0.95650  Biso   1.000  C
  C53      1.0000 0.01070  0.91803  0.08490  Biso   1.000  C
  C54      1.0000 0.32030  0.94140  0.30590  Biso   1.000  C
  C55      1.0000 0.46500  0.87981  0.34820  Biso   1.000  C
  C56      1.0000 0.46030  0.92464  0.47550  Biso   1.000  C
  C57      1.0000 0.75760  0.64744  0.94010  Biso   1.000  C
  C58      1.0000 0.07480  0.91449  0.48150  Biso   1.000  C
  C59      1.0000 0.19370  0.97213  0.41070  Biso   1.000  C
  C60      1.0000 0.06710  0.88668  0.33300  Biso   1.000  C
  C61      1.0000 0.08450  0.72508  0.10410  Biso   1.000  C
  C62      1.0000 0.26060  0.66033  0.15050  Biso   1.000  C
  C63      1.0000 0.58720  0.80420  0.76040  Biso   1.000  C
  C64      1.0000 0.09530  0.76727  0.21340  Biso   1.000  C
  C65      1.0000 0.43620  0.76555  0.22420  Biso   1.000  C
  C66      1.0000 0.96320  0.80601  0.75540  Biso   1.000  C
  C67      1.0000 0.45640  0.72914  0.10540  Biso   1.000  C
  C68      1.0000 0.28490  0.88015  0.70100  Biso   1.000  C
  C69      1.0000 0.27380  0.86520  0.63060  Biso   1.000  C
  N45      1.0000 0.51800  0.95863  0.10750  Biso   1.000  N
  N46      1.0000 0.70540  0.85855  0.17182  Biso   1.000  N
  N47      1.0000 0.80640  0.80389  0.00160  Biso   1.000  N
  N48      1.0000 0.06830  0.88510  0.89897  Biso   1.000  N
  N49      1.0000 0.79660  0.98218  0.93640  Biso   1.000  N
  N50      1.0000 0.46030  0.87990  0.91650  Biso   1.000  N
  N51      1.0000 0.12510  0.92953  0.11860  Biso   1.000  N
  N52      1.0000 0.33650  0.95554  0.25260  Biso   1.000  N
  N53      1.0000 0.57500  0.86343  0.31992  Biso   1.000  N
  N54      1.0000 0.56460  0.93028  0.51850  Biso   1.000  N
  N55      1.0000 0.75300  0.67971  0.95740  Biso   1.000  N
  N56      1.0000 0.97530  0.91774  0.52580  Biso   1.000  N
  N57      1.0000 0.17090  0.00494  0.41810  Biso   1.000  N
  N58      1.0000 0.97000  0.87120  0.29590  Biso   1.000  N
  N59      1.0000 0.98850  0.72765  0.05780  Biso   1.000  N
  N60      1.0000 0.25150  0.62857  0.13180  Biso   1.000  N
  N61      1.0000 0.49160  0.81821  0.79910  Biso   1.000  N
  N62      1.0000 0.99230  0.79103  0.22750  Biso   1.000  N
  N63      1.0000 0.54030  0.78838  0.24230  Biso   1.000  N
  N64      1.0000 0.06620  0.81895  0.79330  Biso   1.000  N
  N65      1.0000 0.55420  0.73439  0.06168  Biso   1.000  N
  N66      1.0000 0.29150  0.89054  0.75680  Biso   1.000  N
  K3       1.0000 0.76610  0.93498  0.38334  Biso   1.000  K
  H7       1.0000 0.16380  0.87330  0.61020  Biso   1.000  H
  H8       1.0000 0.27870  0.83730  0.63220  Biso   1.000  H
  H9       1.0000 0.37060  0.87520  0.60510  Biso   1.000  H
  Mo10     1.0000 0.71270  0.39914  0.47577  Biso   1.000  Mo
  Mo11     1.0000 0.23721  0.41165  0.10054  Biso   1.000  Mo
  Mo12     1.0000 0.23161  0.22069  0.31197  Biso   1.000  Mo
  Mn16     1.0000 0.22523  0.48127  0.34851  Biso   1.000  Mn
  Mn17     1.0000 0.73126  0.32599  0.23505  Biso   1.000  Mn
  Mn18     1.0000 0.73427  0.43305  0.90093  Biso   1.000  Mn
  Mn19     1.0000 0.72846  0.24087  0.51060  Biso   1.000  Mn
  Mn20     1.0000 0.22480  0.34956  0.64971  Biso   1.000  Mn
  C70      1.0000 0.88710  0.43805  0.42210  Biso   1.000  C
  C71      1.0000 0.77480  0.37222  0.38150  Biso   1.000  C
  C72      1.0000 0.69140  0.33684  0.48950  Biso   1.000  C
  C73      1.0000 0.52890  0.39010  0.55630  Biso   1.000  C
  C74      1.0000 0.70090  0.45399  0.53110  Biso   1.000  C
  C75      1.0000 0.93230  0.38750  0.54350  Biso   1.000  C
  C76      1.0000 0.48930  0.41803  0.41510  Biso   1.000  C
  C77      1.0000 0.17970  0.44140  0.19410  Biso   1.000  C
  C78      1.0000 0.03500  0.37981  0.15180  Biso   1.000  C
  C79      1.0000 0.03970  0.42464  0.02450  Biso   1.000  C
  C80      1.0000 0.74240  0.14744  0.55990  Biso   1.000  C
  C81      1.0000 0.42520  0.41449  0.01850  Biso   1.000  C
  C82      1.0000 0.30630  0.47213  0.08930  Biso   1.000  C
  C83      1.0000 0.43290  0.38668  0.16700  Biso   1.000  C
  C84      1.0000 0.41550  0.22508  0.39590  Biso   1.000  C
  C85      1.0000 0.23940  0.16033  0.34950  Biso   1.000  C
  C86      1.0000 0.91280  0.30420  0.73960  Biso   1.000  C
  C87      1.0000 0.40470  0.26727  0.28660  Biso   1.000  C
  C88      1.0000 0.06380  0.26555  0.27580  Biso   1.000  C
  C89      1.0000 0.53680  0.30601  0.74460  Biso   1.000  C
  C90      1.0000 0.04360  0.22914  0.39460  Biso   1.000  C
  C91      1.0000 0.21510  0.38015  0.79900  Biso   1.000  C
  C92      1.0000 0.22620  0.36520  0.86940  Biso   1.000  C
  N67      1.0000 0.98200  0.45863  0.39250  Biso   1.000  N
  N68      1.0000 0.79460  0.35855  0.32818  Biso   1.000  N
  N69      1.0000 0.69360  0.30389  0.49840  Biso   1.000  N
  N70      1.0000 0.43170  0.38510  0.60103  Biso   1.000  N
  N71      1.0000 0.70340  0.48218  0.56360  Biso   1.000  N
  N72      1.0000 0.03970  0.37990  0.58350  Biso   1.000  N
  N73      1.0000 0.37490  0.42953  0.38140  Biso   1.000  N
  N74      1.0000 0.16350  0.45554  0.24740  Biso   1.000  N
  N75      1.0000 0.92500  0.36343  0.18008  Biso   1.000  N
  N76      1.0000 0.93540  0.43028  0.98150  Biso   1.000  N
  N77      1.0000 0.74700  0.17971  0.54260  Biso   1.000  N
  N78      1.0000 0.52470  0.41774  0.97420  Biso   1.000  N
  N79      1.0000 0.32910  0.50494  0.08190  Biso   1.000  N
  N80      1.0000 0.53000  0.37120  0.20410  Biso   1.000  N
  N81      1.0000 0.51150  0.22765  0.44220  Biso   1.000  N
  N82      1.0000 0.24850  0.12857  0.36820  Biso   1.000  N
  N83      1.0000 0.00840  0.31821  0.70090  Biso   1.000  N
  N84      1.0000 0.50770  0.29103  0.27250  Biso   1.000  N
  N85      1.0000 0.95970  0.28838  0.25770  Biso   1.000  N
  N86      1.0000 0.43380  0.31895  0.70670  Biso   1.000  N
  N87      1.0000 0.94580  0.23439  0.43832  Biso   1.000  N
  N88      1.0000 0.20850  0.39054  0.74320  Biso   1.000  N
  K4       1.0000 0.73390  0.43498  0.11666  Biso   1.000  K
  H10      1.0000 0.33620  0.37330  0.88980  Biso   1.000  H
  H11      1.0000 0.22130  0.33730  0.86780  Biso   1.000  H
  H12      1.0000 0.12940  0.37520  0.89490  Biso   1.000  H
