data_image0
_cell_length_a       20.4751
_cell_length_b       20.4751
_cell_length_c       10.4075
_cell_angle_alpha    90
_cell_angle_beta     90
_cell_angle_gamma    120

_symmetry_space_group_name_H-M    "P 1"
_symmetry_int_tables_number       1

loop_
  _symmetry_equiv_pos_as_xyz
  'x, y, z'

loop_
  _atom_site_label
  _atom_site_occupancy
  _atom_site_fract_x
  _atom_site_fract_y
  _atom_site_fract_z
  _atom_site_thermal_displace_type
  _atom_site_B_iso_or_equiv
  _atom_site_type_symbol
  Mn1      1.0000 0.37972  0.83466  0.71282  Biso   1.000  Mn
  O1       1.0000 0.42351  0.75904  0.69959  Biso   1.000  O
  C1       1.0000 0.49204  0.78096  0.69100  Biso   1.000  C
  O2       1.0000 0.51925  0.73846  0.68630  Biso   1.000  O
  O3       1.0000 0.51498  0.90452  0.73422  Biso   1.000  O
  C2       1.0000 0.61539  0.15371  0.92760  Biso   1.000  C
  C3       1.0000 0.60076  0.10543  0.80900  Biso   1.000  C
  O4       1.0000 0.63338  0.19156  0.43195  Biso   1.000  O
  C4       1.0000 0.56827  0.02725  0.82250  Biso   1.000  C
  H1       1.0000 0.55700  0.00570  0.90400  Biso   1.000  H
  C5       1.0000 0.57070  0.01362  0.59290  Biso   1.000  C
  H2       1.0000 0.56100  0.98310  0.52100  Biso   1.000  H
  C6       1.0000 0.55295  0.98215  0.71580  Biso   1.000  C
  C7       1.0000 0.60310  0.09121  0.57970  Biso   1.000  C
  C8       1.0000 0.61721  0.13651  0.68750  Biso   1.000  C
  H3       1.0000 0.63800  0.18830  0.67750  Biso   1.000  H
  O5       1.0000 0.59971  0.11777  0.03277  Biso   1.000  O
  C9       1.0000 0.61775  0.12455  0.44780  Biso   1.000  C
  O6       1.0000 0.61117  0.08281  0.35269  Biso   1.000  O
  O7       1.0000 0.64057  0.22188  0.91580  Biso   1.000  O
  C10      1.0000 0.54854  0.86457  0.67840  Biso   1.000  C
  H4       1.0000 0.54760  0.87380  0.58630  Biso   1.000  H
  C11      1.0000 0.62620  0.88760  0.70130  Biso   1.000  C
  H5       1.0000 0.65660  0.94120  0.68950  Biso   1.000  H
  H6       1.0000 0.64200  0.86230  0.64210  Biso   1.000  H
  H7       1.0000 0.63200  0.87490  0.78770  Biso   1.000  H
  Mn2      1.0000 0.16534  0.54506  0.71282  Biso   1.000  Mn
  O8       1.0000 0.24096  0.66447  0.69959  Biso   1.000  O
  C12      1.0000 0.21904  0.71108  0.69100  Biso   1.000  C
  O9       1.0000 0.26154  0.78079  0.68630  Biso   1.000  O
  O10      1.0000 0.09548  0.61046  0.73422  Biso   1.000  O
  C13      1.0000 0.84629  0.46168  0.92760  Biso   1.000  C
  C14      1.0000 0.89457  0.49533  0.80900  Biso   1.000  C
  O11      1.0000 0.80844  0.44182  0.43195  Biso   1.000  O
  C15      1.0000 0.97275  0.54102  0.82250  Biso   1.000  C
  H8       1.0000 0.99430  0.55130  0.90400  Biso   1.000  H
  C16      1.0000 0.98638  0.55708  0.59290  Biso   1.000  C
  H9       1.0000 0.01690  0.57790  0.52100  Biso   1.000  H
  C17      1.0000 0.01785  0.57080  0.71580  Biso   1.000  C
  C18      1.0000 0.90879  0.51189  0.57970  Biso   1.000  C
  C19      1.0000 0.86349  0.48070  0.68750  Biso   1.000  C
  H10      1.0000 0.81170  0.44970  0.67750  Biso   1.000  H
  O12      1.0000 0.88223  0.48194  0.03277  Biso   1.000  O
  C20      1.0000 0.87545  0.49320  0.44780  Biso   1.000  C
  O13      1.0000 0.91719  0.52836  0.35269  Biso   1.000  O
  O14      1.0000 0.77812  0.41869  0.91580  Biso   1.000  O
  C21      1.0000 0.13543  0.68397  0.67840  Biso   1.000  C
  H11      1.0000 0.12620  0.67380  0.58630  Biso   1.000  H
  C22      1.0000 0.11240  0.73860  0.70130  Biso   1.000  C
  H12      1.0000 0.05880  0.71540  0.68950  Biso   1.000  H
  H13      1.0000 0.13770  0.77970  0.64210  Biso   1.000  H
  H14      1.0000 0.12510  0.75710  0.78770  Biso   1.000  H
  Mn3      1.0000 0.45494  0.62028  0.71282  Biso   1.000  Mn
  O15      1.0000 0.33553  0.57649  0.69959  Biso   1.000  O
  C23      1.0000 0.28892  0.50796  0.69100  Biso   1.000  C
  O16      1.0000 0.21921  0.48075  0.68630  Biso   1.000  O
  O17      1.0000 0.38954  0.48502  0.73422  Biso   1.000  O
  C24      1.0000 0.53832  0.38461  0.92760  Biso   1.000  C
  C25      1.0000 0.50467  0.39924  0.80900  Biso   1.000  C
  O18      1.0000 0.55818  0.36662  0.43195  Biso   1.000  O
  C26      1.0000 0.45898  0.43173  0.82250  Biso   1.000  C
  H15      1.0000 0.44870  0.44300  0.90400  Biso   1.000  H
  C27      1.0000 0.44292  0.42930  0.59290  Biso   1.000  C
  H16      1.0000 0.42210  0.43900  0.52100  Biso   1.000  H
  C28      1.0000 0.42920  0.44705  0.71580  Biso   1.000  C
  C29      1.0000 0.48811  0.39690  0.57970  Biso   1.000  C
  C30      1.0000 0.51930  0.38279  0.68750  Biso   1.000  C
  H17      1.0000 0.55030  0.36200  0.67750  Biso   1.000  H
  O19      1.0000 0.51806  0.40029  0.03277  Biso   1.000  O
  C31      1.0000 0.50680  0.38225  0.44780  Biso   1.000  C
  O20      1.0000 0.47164  0.38883  0.35269  Biso   1.000  O
  O21      1.0000 0.58131  0.35943  0.91580  Biso   1.000  O
  C32      1.0000 0.31603  0.45146  0.67840  Biso   1.000  C
  H18      1.0000 0.32620  0.45240  0.58630  Biso   1.000  H
  C33      1.0000 0.26140  0.37380  0.70130  Biso   1.000  C
  H19      1.0000 0.28460  0.34340  0.68950  Biso   1.000  H
  H20      1.0000 0.22030  0.35800  0.64210  Biso   1.000  H
  H21      1.0000 0.24290  0.36800  0.78770  Biso   1.000  H
  Mn4      1.0000 0.62028  0.16534  0.21282  Biso   1.000  Mn
  O22      1.0000 0.57649  0.24096  0.19959  Biso   1.000  O
  C34      1.0000 0.50796  0.21904  0.19100  Biso   1.000  C
  O23      1.0000 0.48075  0.26154  0.18630  Biso   1.000  O
  O24      1.0000 0.48502  0.09548  0.23422  Biso   1.000  O
  C35      1.0000 0.38461  0.84629  0.42760  Biso   1.000  C
  C36      1.0000 0.39924  0.89457  0.30900  Biso   1.000  C
  O25      1.0000 0.36662  0.80844  0.93195  Biso   1.000  O
  C37      1.0000 0.43173  0.97275  0.32250  Biso   1.000  C
  H22      1.0000 0.44300  0.99430  0.40400  Biso   1.000  H
  C38      1.0000 0.42930  0.98638  0.09290  Biso   1.000  C
  H23      1.0000 0.43900  0.01690  0.02100  Biso   1.000  H
  C39      1.0000 0.44705  0.01785  0.21580  Biso   1.000  C
  C40      1.0000 0.39690  0.90879  0.07970  Biso   1.000  C
  C41      1.0000 0.38279  0.86349  0.18750  Biso   1.000  C
  H24      1.0000 0.36200  0.81170  0.17750  Biso   1.000  H
  O26      1.0000 0.40029  0.88223  0.53277  Biso   1.000  O
  C42      1.0000 0.38225  0.87545  0.94780  Biso   1.000  C
  O27      1.0000 0.38883  0.91719  0.85269  Biso   1.000  O
  O28      1.0000 0.35943  0.77812  0.41580  Biso   1.000  O
  C43      1.0000 0.45146  0.13543  0.17840  Biso   1.000  C
  H25      1.0000 0.45240  0.12620  0.08630  Biso   1.000  H
  C44      1.0000 0.37380  0.11240  0.20130  Biso   1.000  C
  H26      1.0000 0.34340  0.05880  0.18950  Biso   1.000  H
  H27      1.0000 0.35800  0.13770  0.14210  Biso   1.000  H
  H28      1.0000 0.36800  0.12510  0.28770  Biso   1.000  H
  Mn5      1.0000 0.83466  0.45494  0.21282  Biso   1.000  Mn
  O29      1.0000 0.75904  0.33553  0.19959  Biso   1.000  O
  C45      1.0000 0.78096  0.28892  0.19100  Biso   1.000  C
  O30      1.0000 0.73846  0.21921  0.18630  Biso   1.000  O
  O31      1.0000 0.90452  0.38954  0.23422  Biso   1.000  O
  C46      1.0000 0.15371  0.53832  0.42760  Biso   1.000  C
  C47      1.0000 0.10543  0.50467  0.30900  Biso   1.000  C
  O32      1.0000 0.19156  0.55818  0.93195  Biso   1.000  O
  C48      1.0000 0.02725  0.45898  0.32250  Biso   1.000  C
  H29      1.0000 0.00570  0.44870  0.40400  Biso   1.000  H
  C49      1.0000 0.01362  0.44292  0.09290  Biso   1.000  C
  H30      1.0000 0.98310  0.42210  0.02100  Biso   1.000  H
  C50      1.0000 0.98215  0.42920  0.21580  Biso   1.000  C
  C51      1.0000 0.09121  0.48811  0.07970  Biso   1.000  C
  C52      1.0000 0.13651  0.51930  0.18750  Biso   1.000  C
  H31      1.0000 0.18830  0.55030  0.17750  Biso   1.000  H
  O33      1.0000 0.11777  0.51806  0.53277  Biso   1.000  O
  C53      1.0000 0.12455  0.50680  0.94780  Biso   1.000  C
  O34      1.0000 0.08281  0.47164  0.85269  Biso   1.000  O
  O35      1.0000 0.22188  0.58131  0.41580  Biso   1.000  O
  C54      1.0000 0.86457  0.31603  0.17840  Biso   1.000  C
  H32      1.0000 0.87380  0.32620  0.08630  Biso   1.000  H
  C55      1.0000 0.88760  0.26140  0.20130  Biso   1.000  C
  H33      1.0000 0.94120  0.28460  0.18950  Biso   1.000  H
  H34      1.0000 0.86230  0.22030  0.14210  Biso   1.000  H
  H35      1.0000 0.87490  0.24290  0.28770  Biso   1.000  H
  Mn6      1.0000 0.54506  0.37972  0.21282  Biso   1.000  Mn
  O36      1.0000 0.66447  0.42351  0.19959  Biso   1.000  O
  C56      1.0000 0.71108  0.49204  0.19100  Biso   1.000  C
  O37      1.0000 0.78079  0.51925  0.18630  Biso   1.000  O
  O38      1.0000 0.61046  0.51498  0.23422  Biso   1.000  O
  C57      1.0000 0.46168  0.61539  0.42760  Biso   1.000  C
  C58      1.0000 0.49533  0.60076  0.30900  Biso   1.000  C
  O39      1.0000 0.44182  0.63338  0.93195  Biso   1.000  O
  C59      1.0000 0.54102  0.56827  0.32250  Biso   1.000  C
  H36      1.0000 0.55130  0.55700  0.40400  Biso   1.000  H
  C60      1.0000 0.55708  0.57070  0.09290  Biso   1.000  C
  H37      1.0000 0.57790  0.56100  0.02100  Biso   1.000  H
  C61      1.0000 0.57080  0.55295  0.21580  Biso   1.000  C
  C62      1.0000 0.51189  0.60310  0.07970  Biso   1.000  C
  C63      1.0000 0.48070  0.61721  0.18750  Biso   1.000  C
  H38      1.0000 0.44970  0.63800  0.17750  Biso   1.000  H
  O40      1.0000 0.48194  0.59971  0.53277  Biso   1.000  O
  C64      1.0000 0.49320  0.61775  0.94780  Biso   1.000  C
  O41      1.0000 0.52836  0.61117  0.85269  Biso   1.000  O
  O42      1.0000 0.41869  0.64057  0.41580  Biso   1.000  O
  C65      1.0000 0.68397  0.54854  0.17840  Biso   1.000  C
  H39      1.0000 0.67380  0.54760  0.08630  Biso   1.000  H
  C66      1.0000 0.73860  0.62620  0.20130  Biso   1.000  C
  H40      1.0000 0.71540  0.65660  0.18950  Biso   1.000  H
  H41      1.0000 0.77970  0.64200  0.14210  Biso   1.000  H
  H42      1.0000 0.75710  0.63200  0.28770  Biso   1.000  H
  Na1      1.0000 0.66667  0.33333  0.02826  Biso   1.000  Na
  Na2      1.0000 0.33333  0.66667  0.52826  Biso   1.000  Na
  K1       1.0000 0.33333  0.66667  0.93620  Biso   1.000  K
  K2       1.0000 0.66667  0.33333  0.43620  Biso   1.000  K
