data_image0
_cell_length_a       20.4489
_cell_length_b       20.4489
_cell_length_c       10.3928
_cell_angle_alpha    90
_cell_angle_beta     90
_cell_angle_gamma    120

_symmetry_space_group_name_H-M    "P 1"
_symmetry_int_tables_number       1

loop_
  _symmetry_equiv_pos_as_xyz
  'x, y, z'

loop_
  _atom_site_label
  _atom_site_occupancy
  _atom_site_fract_x
  _atom_site_fract_y
  _atom_site_fract_z
  _atom_site_thermal_displace_type
  _atom_site_B_iso_or_equiv
  _atom_site_type_symbol
  Mn1      1.0000 0.61951  0.16515  0.49100  Biso   1.000  Mn
  O1       1.0000 0.42414  0.75874  0.00266  Biso   1.000  O
  O2       1.0000 0.51577  0.90422  0.96983  Biso   1.000  O
  C1       1.0000 0.61570  0.15359  0.77570  Biso   1.000  C
  C2       1.0000 0.55401  0.98188  0.98810  Biso   1.000  C
  C3       1.0000 0.49281  0.78042  0.01160  Biso   1.000  C
  C4       1.0000 0.56942  0.02681  0.88030  Biso   1.000  C
  H1       1.0000 0.55870  0.00510  0.79880  Biso   1.000  H
  O3       1.0000 0.63410  0.19155  0.27162  Biso   1.000  O
  O4       1.0000 0.51966  0.73742  0.01760  Biso   1.000  O
  C5       1.0000 0.57133  0.01291  0.11020  Biso   1.000  C
  H2       1.0000 0.56160  0.98230  0.18210  Biso   1.000  H
  C6       1.0000 0.61766  0.12377  0.25650  Biso   1.000  C
  C7       1.0000 0.61814  0.13620  0.01570  Biso   1.000  C
  H3       1.0000 0.63960  0.18810  0.02560  Biso   1.000  H
  C8       1.0000 0.60130  0.10543  0.89390  Biso   1.000  C
  O5       1.0000 0.59863  0.11666  0.67057  Biso   1.000  O
  C9       1.0000 0.60371  0.09113  0.12380  Biso   1.000  C
  O6       1.0000 0.61036  0.08228  0.35168  Biso   1.000  O
  O7       1.0000 0.64123  0.22165  0.78750  Biso   1.000  O
  C10      1.0000 0.54985  0.86399  0.02270  Biso   1.000  C
  H4       1.0000 0.54880  0.87290  0.11520  Biso   1.000  H
  C11      1.0000 0.62600  0.88700  0.00260  Biso   1.000  C
  H5       1.0000 0.65600  0.94060  0.01400  Biso   1.000  H
  H6       1.0000 0.63260  0.87390  0.91680  Biso   1.000  H
  H7       1.0000 0.64160  0.86210  0.06330  Biso   1.000  H
  Mn2      1.0000 0.83485  0.45435  0.49100  Biso   1.000  Mn
  O8       1.0000 0.24126  0.66540  0.00266  Biso   1.000  O
  O9       1.0000 0.09578  0.61155  0.96983  Biso   1.000  O
  C12      1.0000 0.84641  0.46211  0.77570  Biso   1.000  C
  C13      1.0000 0.01812  0.57213  0.98810  Biso   1.000  C
  C14      1.0000 0.21958  0.71239  0.01160  Biso   1.000  C
  C15      1.0000 0.97319  0.54261  0.88030  Biso   1.000  C
  H8       1.0000 0.99490  0.55360  0.79880  Biso   1.000  H
  O10      1.0000 0.80845  0.44255  0.27162  Biso   1.000  O
  O11      1.0000 0.26258  0.78224  0.01760  Biso   1.000  O
  C16      1.0000 0.98709  0.55842  0.11020  Biso   1.000  C
  H9       1.0000 0.01770  0.57930  0.18210  Biso   1.000  H
  C17      1.0000 0.87623  0.49389  0.25650  Biso   1.000  C
  C18      1.0000 0.86380  0.48194  0.01570  Biso   1.000  C
  H10      1.0000 0.81190  0.45150  0.02560  Biso   1.000  H
  C19      1.0000 0.89457  0.49587  0.89390  Biso   1.000  C
  O12      1.0000 0.88334  0.48197  0.67057  Biso   1.000  O
  C20      1.0000 0.90887  0.51258  0.12380  Biso   1.000  C
  O13      1.0000 0.91772  0.52808  0.35168  Biso   1.000  O
  O14      1.0000 0.77835  0.41958  0.78750  Biso   1.000  O
  C21      1.0000 0.13601  0.68586  0.02270  Biso   1.000  C
  H11      1.0000 0.12710  0.67590  0.11520  Biso   1.000  H
  C22      1.0000 0.11300  0.73900  0.00260  Biso   1.000  C
  H12      1.0000 0.05940  0.71540  0.01400  Biso   1.000  H
  H13      1.0000 0.12610  0.75870  0.91680  Biso   1.000  H
  H14      1.0000 0.13790  0.77950  0.06330  Biso   1.000  H
  Mn3      1.0000 0.54565  0.38049  0.49100  Biso   1.000  Mn
  O15      1.0000 0.33460  0.57586  0.00266  Biso   1.000  O
  O16      1.0000 0.38845  0.48423  0.96983  Biso   1.000  O
  C23      1.0000 0.53789  0.38430  0.77570  Biso   1.000  C
  C24      1.0000 0.42787  0.44599  0.98810  Biso   1.000  C
  C25      1.0000 0.28761  0.50719  0.01160  Biso   1.000  C
  C26      1.0000 0.45739  0.43058  0.88030  Biso   1.000  C
  H15      1.0000 0.44640  0.44130  0.79880  Biso   1.000  H
  O17      1.0000 0.55745  0.36590  0.27162  Biso   1.000  O
  O18      1.0000 0.21776  0.48034  0.01760  Biso   1.000  O
  C27      1.0000 0.44158  0.42867  0.11020  Biso   1.000  C
  H16      1.0000 0.42070  0.43840  0.18210  Biso   1.000  H
  C28      1.0000 0.50611  0.38234  0.25650  Biso   1.000  C
  C29      1.0000 0.51806  0.38186  0.01570  Biso   1.000  C
  H17      1.0000 0.54850  0.36040  0.02560  Biso   1.000  H
  C30      1.0000 0.50413  0.39870  0.89390  Biso   1.000  C
  O19      1.0000 0.51803  0.40137  0.67057  Biso   1.000  O
  C31      1.0000 0.48742  0.39629  0.12380  Biso   1.000  C
  O20      1.0000 0.47192  0.38964  0.35168  Biso   1.000  O
  O21      1.0000 0.58042  0.35877  0.78750  Biso   1.000  O
  C32      1.0000 0.31414  0.45015  0.02270  Biso   1.000  C
  H18      1.0000 0.32410  0.45120  0.11520  Biso   1.000  H
  C33      1.0000 0.26100  0.37400  0.00260  Biso   1.000  C
  H19      1.0000 0.28460  0.34400  0.01400  Biso   1.000  H
  H20      1.0000 0.24130  0.36740  0.91680  Biso   1.000  H
  H21      1.0000 0.22050  0.35840  0.06330  Biso   1.000  H
  Mn4      1.0000 0.38049  0.83485  0.99100  Biso   1.000  Mn
  O22      1.0000 0.57586  0.24126  0.50266  Biso   1.000  O
  O23      1.0000 0.48423  0.09578  0.46983  Biso   1.000  O
  C34      1.0000 0.38430  0.84641  0.27570  Biso   1.000  C
  C35      1.0000 0.44599  0.01812  0.48810  Biso   1.000  C
  C36      1.0000 0.50719  0.21958  0.51160  Biso   1.000  C
  C37      1.0000 0.43058  0.97319  0.38030  Biso   1.000  C
  H22      1.0000 0.44130  0.99490  0.29880  Biso   1.000  H
  O24      1.0000 0.36590  0.80845  0.77162  Biso   1.000  O
  O25      1.0000 0.48034  0.26258  0.51760  Biso   1.000  O
  C38      1.0000 0.42867  0.98709  0.61020  Biso   1.000  C
  H23      1.0000 0.43840  0.01770  0.68210  Biso   1.000  H
  C39      1.0000 0.38234  0.87623  0.75650  Biso   1.000  C
  C40      1.0000 0.38186  0.86380  0.51570  Biso   1.000  C
  H24      1.0000 0.36040  0.81190  0.52560  Biso   1.000  H
  C41      1.0000 0.39870  0.89457  0.39390  Biso   1.000  C
  O26      1.0000 0.40137  0.88334  0.17057  Biso   1.000  O
  C42      1.0000 0.39629  0.90887  0.62380  Biso   1.000  C
  O27      1.0000 0.38964  0.91772  0.85168  Biso   1.000  O
  O28      1.0000 0.35877  0.77835  0.28750  Biso   1.000  O
  C43      1.0000 0.45015  0.13601  0.52270  Biso   1.000  C
  H25      1.0000 0.45120  0.12710  0.61520  Biso   1.000  H
  C44      1.0000 0.37400  0.11300  0.50260  Biso   1.000  C
  H26      1.0000 0.34400  0.05940  0.51400  Biso   1.000  H
  H27      1.0000 0.36740  0.12610  0.41680  Biso   1.000  H
  H28      1.0000 0.35840  0.13790  0.56330  Biso   1.000  H
  Mn5      1.0000 0.16515  0.54565  0.99100  Biso   1.000  Mn
  O29      1.0000 0.75874  0.33460  0.50266  Biso   1.000  O
  O30      1.0000 0.90422  0.38845  0.46983  Biso   1.000  O
  C45      1.0000 0.15359  0.53789  0.27570  Biso   1.000  C
  C46      1.0000 0.98188  0.42787  0.48810  Biso   1.000  C
  C47      1.0000 0.78042  0.28761  0.51160  Biso   1.000  C
  C48      1.0000 0.02681  0.45739  0.38030  Biso   1.000  C
  H29      1.0000 0.00510  0.44640  0.29880  Biso   1.000  H
  O31      1.0000 0.19155  0.55745  0.77162  Biso   1.000  O
  O32      1.0000 0.73742  0.21776  0.51760  Biso   1.000  O
  C49      1.0000 0.01291  0.44158  0.61020  Biso   1.000  C
  H30      1.0000 0.98230  0.42070  0.68210  Biso   1.000  H
  C50      1.0000 0.12377  0.50611  0.75650  Biso   1.000  C
  C51      1.0000 0.13620  0.51806  0.51570  Biso   1.000  C
  H31      1.0000 0.18810  0.54850  0.52560  Biso   1.000  H
  C52      1.0000 0.10543  0.50413  0.39390  Biso   1.000  C
  O33      1.0000 0.11666  0.51803  0.17057  Biso   1.000  O
  C53      1.0000 0.09113  0.48742  0.62380  Biso   1.000  C
  O34      1.0000 0.08228  0.47192  0.85168  Biso   1.000  O
  O35      1.0000 0.22165  0.58042  0.28750  Biso   1.000  O
  C54      1.0000 0.86399  0.31414  0.52270  Biso   1.000  C
  H32      1.0000 0.87290  0.32410  0.61520  Biso   1.000  H
  C55      1.0000 0.88700  0.26100  0.50260  Biso   1.000  C
  H33      1.0000 0.94060  0.28460  0.51400  Biso   1.000  H
  H34      1.0000 0.87390  0.24130  0.41680  Biso   1.000  H
  H35      1.0000 0.86210  0.22050  0.56330  Biso   1.000  H
  Mn6      1.0000 0.45435  0.61951  0.99100  Biso   1.000  Mn
  O36      1.0000 0.66540  0.42414  0.50266  Biso   1.000  O
  O37      1.0000 0.61155  0.51577  0.46983  Biso   1.000  O
  C56      1.0000 0.46211  0.61570  0.27570  Biso   1.000  C
  C57      1.0000 0.57213  0.55401  0.48810  Biso   1.000  C
  C58      1.0000 0.71239  0.49281  0.51160  Biso   1.000  C
  C59      1.0000 0.54261  0.56942  0.38030  Biso   1.000  C
  H36      1.0000 0.55360  0.55870  0.29880  Biso   1.000  H
  O38      1.0000 0.44255  0.63410  0.77162  Biso   1.000  O
  O39      1.0000 0.78224  0.51966  0.51760  Biso   1.000  O
  C60      1.0000 0.55842  0.57133  0.61020  Biso   1.000  C
  H37      1.0000 0.57930  0.56160  0.68210  Biso   1.000  H
  C61      1.0000 0.49389  0.61766  0.75650  Biso   1.000  C
  C62      1.0000 0.48194  0.61814  0.51570  Biso   1.000  C
  H38      1.0000 0.45150  0.63960  0.52560  Biso   1.000  H
  C63      1.0000 0.49587  0.60130  0.39390  Biso   1.000  C
  O40      1.0000 0.48197  0.59863  0.17057  Biso   1.000  O
  C64      1.0000 0.51258  0.60371  0.62380  Biso   1.000  C
  O41      1.0000 0.52808  0.61036  0.85168  Biso   1.000  O
  O42      1.0000 0.41958  0.64123  0.28750  Biso   1.000  O
  C65      1.0000 0.68586  0.54985  0.52270  Biso   1.000  C
  H39      1.0000 0.67590  0.54880  0.61520  Biso   1.000  H
  C66      1.0000 0.73900  0.62600  0.50260  Biso   1.000  C
  H40      1.0000 0.71540  0.65600  0.51400  Biso   1.000  H
  H41      1.0000 0.75870  0.63260  0.41680  Biso   1.000  H
  H42      1.0000 0.77950  0.64160  0.56330  Biso   1.000  H
  Na1      1.0000 0.33333  0.66667  0.17752  Biso   1.000  Na
  Na2      1.0000 0.66667  0.33333  0.67752  Biso   1.000  Na
  K1       1.0000 0.66667  0.33333  0.26643  Biso   1.000  K
  K2       1.0000 0.33333  0.66667  0.76643  Biso   1.000  K
