data_image0
_cell_length_a       20.3856
_cell_length_b       13.8293
_cell_length_c       13.1563
_cell_angle_alpha    90
_cell_angle_beta     103.632
_cell_angle_gamma    90

_symmetry_space_group_name_H-M    "P 1"
_symmetry_int_tables_number       1

loop_
  _symmetry_equiv_pos_as_xyz
  'x, y, z'

loop_
  _atom_site_label
  _atom_site_occupancy
  _atom_site_fract_x
  _atom_site_fract_y
  _atom_site_fract_z
  _atom_site_thermal_displace_type
  _atom_site_B_iso_or_equiv
  _atom_site_type_symbol
  O1       1.0000 0.23280  0.84130  0.84960  Biso   1.000  O
  O2       1.0000 0.14890  0.80170  0.71420  Biso   1.000  O
  C1       1.0000 0.19720  0.85320  0.75850  Biso   1.000  C
  N1       1.0000 0.24480  0.10160  0.59090  Biso   1.000  N
  C2       1.0000 0.21530  0.93880  0.69860  Biso   1.000  C
  C3       1.0000 0.27950  0.08140  0.68850  Biso   1.000  C
  H1       1.0000 0.31370  0.12330  0.72080  Biso   1.000  H
  C4       1.0000 0.18000  0.95970  0.59850  Biso   1.000  C
  H2       1.0000 0.14500  0.91960  0.56490  Biso   1.000  H
  N2       1.0000 0.13400  0.26130  0.49650  Biso   1.000  N
  C5       1.0000 0.26670  0.00180  0.74280  Biso   1.000  C
  H3       1.0000 0.29280  0.99010  0.80980  Biso   1.000  H
  C6       1.0000 0.78370  0.20470  0.59070  Biso   1.000  C
  H4       1.0000 0.80620  0.17470  0.65230  Biso   1.000  H
  C7       1.0000 0.08570  0.25040  0.40820  Biso   1.000  C
  H5       1.0000 0.09890  0.24460  0.34540  Biso   1.000  H
  C8       1.0000 0.78520  0.30300  0.44260  Biso   1.000  C
  H6       1.0000 0.80890  0.33970  0.40390  Biso   1.000  H
  N3       1.0000 0.92770  0.25330  0.49040  Biso   1.000  N
  H7       1.0000 0.90250  0.24500  0.42870  Biso   1.000  H
  O3       1.0000 0.92300  0.26830  0.66050  Biso   1.000  O
  C9       1.0000 0.11260  0.27050  0.58490  Biso   1.000  C
  H8       1.0000 0.14500  0.27940  0.64710  Biso   1.000  H
  C10      1.0000 0.99690  0.25700  0.49750  Biso   1.000  C
  C11      1.0000 0.04540  0.26740  0.58950  Biso   1.000  C
  H9       1.0000 0.03330  0.27230  0.65320  Biso   1.000  H
  C12      1.0000 0.81970  0.25720  0.53240  Biso   1.000  C
  C13      1.0000 0.01860  0.24750  0.40550  Biso   1.000  C
  H10      1.0000 0.98720  0.23920  0.34210  Biso   1.000  H
  C14      1.0000 0.89490  0.26120  0.56950  Biso   1.000  C
  C15      1.0000 0.19670  0.04070  0.54780  Biso   1.000  C
  H11      1.0000 0.17250  0.05260  0.47970  Biso   1.000  H
  O4       1.0000 0.26720  0.34130  0.65040  Biso   1.000  O
  O5       1.0000 0.35110  0.30170  0.78580  Biso   1.000  O
  C16      1.0000 0.30280  0.35320  0.74150  Biso   1.000  C
  N4       1.0000 0.25520  0.60160  0.90910  Biso   1.000  N
  C17      1.0000 0.28470  0.43880  0.80140  Biso   1.000  C
  C18      1.0000 0.22050  0.58140  0.81150  Biso   1.000  C
  H12      1.0000 0.18630  0.62330  0.77920  Biso   1.000  H
  C19      1.0000 0.32000  0.45970  0.90150  Biso   1.000  C
  H13      1.0000 0.35500  0.41960  0.93510  Biso   1.000  H
  N5       1.0000 0.36600  0.76130  0.00350  Biso   1.000  N
  C20      1.0000 0.23330  0.50180  0.75720  Biso   1.000  C
  H14      1.0000 0.20720  0.49010  0.69020  Biso   1.000  H
  C21      1.0000 0.71630  0.70470  0.90930  Biso   1.000  C
  H15      1.0000 0.69380  0.67470  0.84770  Biso   1.000  H
  C22      1.0000 0.41430  0.75040  0.09180  Biso   1.000  C
  H16      1.0000 0.40110  0.74460  0.15460  Biso   1.000  H
  C23      1.0000 0.71480  0.80300  0.05740  Biso   1.000  C
  H17      1.0000 0.69110  0.83970  0.09610  Biso   1.000  H
  N6       1.0000 0.57230  0.75330  0.00960  Biso   1.000  N
  H18      1.0000 0.59750  0.74500  0.07130  Biso   1.000  H
  O6       1.0000 0.57700  0.76830  0.83950  Biso   1.000  O
  C24      1.0000 0.38740  0.77050  0.91510  Biso   1.000  C
  H19      1.0000 0.35500  0.77940  0.85290  Biso   1.000  H
  C25      1.0000 0.50310  0.75700  0.00250  Biso   1.000  C
  C26      1.0000 0.45460  0.76740  0.91050  Biso   1.000  C
  H20      1.0000 0.46670  0.77230  0.84680  Biso   1.000  H
  C27      1.0000 0.68030  0.75720  0.96760  Biso   1.000  C
  C28      1.0000 0.48140  0.74750  0.09450  Biso   1.000  C
  H21      1.0000 0.51280  0.73920  0.15790  Biso   1.000  H
  C29      1.0000 0.60510  0.76120  0.93050  Biso   1.000  C
  C30      1.0000 0.30330  0.54070  0.95220  Biso   1.000  C
  H22      1.0000 0.32750  0.55260  0.02030  Biso   1.000  H
  O7       1.0000 0.26720  0.65870  0.15040  Biso   1.000  O
  O8       1.0000 0.35110  0.69830  0.28580  Biso   1.000  O
  C31      1.0000 0.30280  0.64680  0.24150  Biso   1.000  C
  N7       1.0000 0.25520  0.39840  0.40910  Biso   1.000  N
  C32      1.0000 0.28470  0.56120  0.30140  Biso   1.000  C
  C33      1.0000 0.22050  0.41860  0.31150  Biso   1.000  C
  H23      1.0000 0.18630  0.37670  0.27920  Biso   1.000  H
  C34      1.0000 0.32000  0.54030  0.40150  Biso   1.000  C
  H24      1.0000 0.35500  0.58040  0.43510  Biso   1.000  H
  N8       1.0000 0.36600  0.23870  0.50350  Biso   1.000  N
  C35      1.0000 0.23330  0.49820  0.25720  Biso   1.000  C
  H25      1.0000 0.20720  0.50990  0.19020  Biso   1.000  H
  C36      1.0000 0.71630  0.29530  0.40930  Biso   1.000  C
  H26      1.0000 0.69380  0.32530  0.34770  Biso   1.000  H
  C37      1.0000 0.41430  0.24960  0.59180  Biso   1.000  C
  H27      1.0000 0.40110  0.25540  0.65460  Biso   1.000  H
  C38      1.0000 0.71480  0.19700  0.55740  Biso   1.000  C
  H28      1.0000 0.69110  0.16030  0.59610  Biso   1.000  H
  N9       1.0000 0.57230  0.24670  0.50960  Biso   1.000  N
  H29      1.0000 0.59750  0.25500  0.57130  Biso   1.000  H
  O9       1.0000 0.57700  0.23170  0.33950  Biso   1.000  O
  C39      1.0000 0.38740  0.22950  0.41510  Biso   1.000  C
  H30      1.0000 0.35500  0.22060  0.35290  Biso   1.000  H
  C40      1.0000 0.50310  0.24300  0.50250  Biso   1.000  C
  C41      1.0000 0.45460  0.23260  0.41050  Biso   1.000  C
  H31      1.0000 0.46670  0.22770  0.34680  Biso   1.000  H
  C42      1.0000 0.68030  0.24280  0.46760  Biso   1.000  C
  C43      1.0000 0.48140  0.25250  0.59450  Biso   1.000  C
  H32      1.0000 0.51280  0.26080  0.65790  Biso   1.000  H
  C44      1.0000 0.60510  0.23880  0.43050  Biso   1.000  C
  C45      1.0000 0.30330  0.45930  0.45220  Biso   1.000  C
  H33      1.0000 0.32750  0.44740  0.52030  Biso   1.000  H
  O10      1.0000 0.23280  0.15870  0.34960  Biso   1.000  O
  O11      1.0000 0.14890  0.19830  0.21420  Biso   1.000  O
  C46      1.0000 0.19720  0.14680  0.25850  Biso   1.000  C
  N10      1.0000 0.24480  0.89840  0.09090  Biso   1.000  N
  C47      1.0000 0.21530  0.06120  0.19860  Biso   1.000  C
  C48      1.0000 0.27950  0.91860  0.18850  Biso   1.000  C
  H34      1.0000 0.31370  0.87670  0.22080  Biso   1.000  H
  C49      1.0000 0.18000  0.04030  0.09850  Biso   1.000  C
  H35      1.0000 0.14500  0.08040  0.06490  Biso   1.000  H
  N11      1.0000 0.13400  0.73870  0.99650  Biso   1.000  N
  C50      1.0000 0.26670  0.99820  0.24280  Biso   1.000  C
  H36      1.0000 0.29280  0.00990  0.30980  Biso   1.000  H
  C51      1.0000 0.78370  0.79530  0.09070  Biso   1.000  C
  H37      1.0000 0.80620  0.82530  0.15230  Biso   1.000  H
  C52      1.0000 0.08570  0.74960  0.90820  Biso   1.000  C
  H38      1.0000 0.09890  0.75540  0.84540  Biso   1.000  H
  C53      1.0000 0.78520  0.69700  0.94260  Biso   1.000  C
  H39      1.0000 0.80890  0.66030  0.90390  Biso   1.000  H
  N12      1.0000 0.92770  0.74670  0.99040  Biso   1.000  N
  H40      1.0000 0.90250  0.75500  0.92870  Biso   1.000  H
  O12      1.0000 0.92300  0.73170  0.16050  Biso   1.000  O
  C54      1.0000 0.11260  0.72950  0.08490  Biso   1.000  C
  H41      1.0000 0.14500  0.72060  0.14710  Biso   1.000  H
  C55      1.0000 0.99690  0.74300  0.99750  Biso   1.000  C
  C56      1.0000 0.04540  0.73260  0.08950  Biso   1.000  C
  H42      1.0000 0.03330  0.72770  0.15320  Biso   1.000  H
  C57      1.0000 0.81970  0.74280  0.03240  Biso   1.000  C
  C58      1.0000 0.01860  0.75250  0.90550  Biso   1.000  C
  H43      1.0000 0.98720  0.76080  0.84210  Biso   1.000  H
  C59      1.0000 0.89490  0.73880  0.06950  Biso   1.000  C
  C60      1.0000 0.19670  0.95930  0.04780  Biso   1.000  C
  H44      1.0000 0.17250  0.94740  0.97970  Biso   1.000  H
  Cd1      1.0000 0.25000  0.25000  0.50000  Biso   1.000  Cd
  Cd2      1.0000 0.25000  0.75000  0.00000  Biso   1.000  Cd
  O13      1.0000 0.73280  0.34130  0.84960  Biso   1.000  O
  O14      1.0000 0.64890  0.30170  0.71420  Biso   1.000  O
  C61      1.0000 0.69720  0.35320  0.75850  Biso   1.000  C
  N13      1.0000 0.74480  0.60160  0.59090  Biso   1.000  N
  C62      1.0000 0.71530  0.43880  0.69860  Biso   1.000  C
  C63      1.0000 0.77950  0.58140  0.68850  Biso   1.000  C
  H45      1.0000 0.81370  0.62330  0.72080  Biso   1.000  H
  C64      1.0000 0.68000  0.45970  0.59850  Biso   1.000  C
  H46      1.0000 0.64500  0.41960  0.56490  Biso   1.000  H
  N14      1.0000 0.63400  0.76130  0.49650  Biso   1.000  N
  C65      1.0000 0.76670  0.50180  0.74280  Biso   1.000  C
  H47      1.0000 0.79280  0.49010  0.80980  Biso   1.000  H
  C66      1.0000 0.28370  0.70470  0.59070  Biso   1.000  C
  H48      1.0000 0.30620  0.67470  0.65230  Biso   1.000  H
  C67      1.0000 0.58570  0.75040  0.40820  Biso   1.000  C
  H49      1.0000 0.59890  0.74460  0.34540  Biso   1.000  H
  C68      1.0000 0.28520  0.80300  0.44260  Biso   1.000  C
  H50      1.0000 0.30890  0.83970  0.40390  Biso   1.000  H
  N15      1.0000 0.42770  0.75330  0.49040  Biso   1.000  N
  H51      1.0000 0.40250  0.74500  0.42870  Biso   1.000  H
  O15      1.0000 0.42300  0.76830  0.66050  Biso   1.000  O
  C69      1.0000 0.61260  0.77050  0.58490  Biso   1.000  C
  H52      1.0000 0.64500  0.77940  0.64710  Biso   1.000  H
  C70      1.0000 0.49690  0.75700  0.49750  Biso   1.000  C
  C71      1.0000 0.54540  0.76740  0.58950  Biso   1.000  C
  H53      1.0000 0.53330  0.77230  0.65320  Biso   1.000  H
  C72      1.0000 0.31970  0.75720  0.53240  Biso   1.000  C
  C73      1.0000 0.51860  0.74750  0.40550  Biso   1.000  C
  H54      1.0000 0.48720  0.73920  0.34210  Biso   1.000  H
  C74      1.0000 0.39490  0.76120  0.56950  Biso   1.000  C
  C75      1.0000 0.69670  0.54070  0.54780  Biso   1.000  C
  H55      1.0000 0.67250  0.55260  0.47970  Biso   1.000  H
  O16      1.0000 0.76720  0.84130  0.65040  Biso   1.000  O
  O17      1.0000 0.85110  0.80170  0.78580  Biso   1.000  O
  C76      1.0000 0.80280  0.85320  0.74150  Biso   1.000  C
  N16      1.0000 0.75520  0.10160  0.90910  Biso   1.000  N
  C77      1.0000 0.78470  0.93880  0.80140  Biso   1.000  C
  C78      1.0000 0.72050  0.08140  0.81150  Biso   1.000  C
  H56      1.0000 0.68630  0.12330  0.77920  Biso   1.000  H
  C79      1.0000 0.82000  0.95970  0.90150  Biso   1.000  C
  H57      1.0000 0.85500  0.91960  0.93510  Biso   1.000  H
  N17      1.0000 0.86600  0.26130  0.00350  Biso   1.000  N
  C80      1.0000 0.73330  0.00180  0.75720  Biso   1.000  C
  H58      1.0000 0.70720  0.99010  0.69020  Biso   1.000  H
  C81      1.0000 0.21630  0.20470  0.90930  Biso   1.000  C
  H59      1.0000 0.19380  0.17470  0.84770  Biso   1.000  H
  C82      1.0000 0.91430  0.25040  0.09180  Biso   1.000  C
  H60      1.0000 0.90110  0.24460  0.15460  Biso   1.000  H
  C83      1.0000 0.21480  0.30300  0.05740  Biso   1.000  C
  H61      1.0000 0.19110  0.33970  0.09610  Biso   1.000  H
  N18      1.0000 0.07230  0.25330  0.00960  Biso   1.000  N
  H62      1.0000 0.09750  0.24500  0.07130  Biso   1.000  H
  O18      1.0000 0.07700  0.26830  0.83950  Biso   1.000  O
  C84      1.0000 0.88740  0.27050  0.91510  Biso   1.000  C
  H63      1.0000 0.85500  0.27940  0.85290  Biso   1.000  H
  C85      1.0000 0.00310  0.25700  0.00250  Biso   1.000  C
  C86      1.0000 0.95460  0.26740  0.91050  Biso   1.000  C
  H64      1.0000 0.96670  0.27230  0.84680  Biso   1.000  H
  C87      1.0000 0.18030  0.25720  0.96760  Biso   1.000  C
  C88      1.0000 0.98140  0.24750  0.09450  Biso   1.000  C
  H65      1.0000 0.01280  0.23920  0.15790  Biso   1.000  H
  C89      1.0000 0.10510  0.26120  0.93050  Biso   1.000  C
  C90      1.0000 0.80330  0.04070  0.95220  Biso   1.000  C
  H66      1.0000 0.82750  0.05260  0.02030  Biso   1.000  H
  O19      1.0000 0.76720  0.15870  0.15040  Biso   1.000  O
  O20      1.0000 0.85110  0.19830  0.28580  Biso   1.000  O
  C91      1.0000 0.80280  0.14680  0.24150  Biso   1.000  C
  N19      1.0000 0.75520  0.89840  0.40910  Biso   1.000  N
  C92      1.0000 0.78470  0.06120  0.30140  Biso   1.000  C
  C93      1.0000 0.72050  0.91860  0.31150  Biso   1.000  C
  H67      1.0000 0.68630  0.87670  0.27920  Biso   1.000  H
  C94      1.0000 0.82000  0.04030  0.40150  Biso   1.000  C
  H68      1.0000 0.85500  0.08040  0.43510  Biso   1.000  H
  N20      1.0000 0.86600  0.73870  0.50350  Biso   1.000  N
  C95      1.0000 0.73330  0.99820  0.25720  Biso   1.000  C
  H69      1.0000 0.70720  0.00990  0.19020  Biso   1.000  H
  C96      1.0000 0.21630  0.79530  0.40930  Biso   1.000  C
  H70      1.0000 0.19380  0.82530  0.34770  Biso   1.000  H
  C97      1.0000 0.91430  0.74960  0.59180  Biso   1.000  C
  H71      1.0000 0.90110  0.75540  0.65460  Biso   1.000  H
  C98      1.0000 0.21480  0.69700  0.55740  Biso   1.000  C
  H72      1.0000 0.19110  0.66030  0.59610  Biso   1.000  H
  N21      1.0000 0.07230  0.74670  0.50960  Biso   1.000  N
  H73      1.0000 0.09750  0.75500  0.57130  Biso   1.000  H
  O21      1.0000 0.07700  0.73170  0.33950  Biso   1.000  O
  C99      1.0000 0.88740  0.72950  0.41510  Biso   1.000  C
  H74      1.0000 0.85500  0.72060  0.35290  Biso   1.000  H
  C100     1.0000 0.00310  0.74300  0.50250  Biso   1.000  C
  C101     1.0000 0.95460  0.73260  0.41050  Biso   1.000  C
  H75      1.0000 0.96670  0.72770  0.34680  Biso   1.000  H
  C102     1.0000 0.18030  0.74280  0.46760  Biso   1.000  C
  C103     1.0000 0.98140  0.75250  0.59450  Biso   1.000  C
  H76      1.0000 0.01280  0.76080  0.65790  Biso   1.000  H
  C104     1.0000 0.10510  0.73880  0.43050  Biso   1.000  C
  C105     1.0000 0.80330  0.95930  0.45220  Biso   1.000  C
  H77      1.0000 0.82750  0.94740  0.52030  Biso   1.000  H
  O22      1.0000 0.73280  0.65870  0.34960  Biso   1.000  O
  O23      1.0000 0.64890  0.69830  0.21420  Biso   1.000  O
  C106     1.0000 0.69720  0.64680  0.25850  Biso   1.000  C
  N22      1.0000 0.74480  0.39840  0.09090  Biso   1.000  N
  C107     1.0000 0.71530  0.56120  0.19860  Biso   1.000  C
  C108     1.0000 0.77950  0.41860  0.18850  Biso   1.000  C
  H78      1.0000 0.81370  0.37670  0.22080  Biso   1.000  H
  C109     1.0000 0.68000  0.54030  0.09850  Biso   1.000  C
  H79      1.0000 0.64500  0.58040  0.06490  Biso   1.000  H
  N23      1.0000 0.63400  0.23870  0.99650  Biso   1.000  N
  C110     1.0000 0.76670  0.49820  0.24280  Biso   1.000  C
  H80      1.0000 0.79280  0.50990  0.30980  Biso   1.000  H
  C111     1.0000 0.28370  0.29530  0.09070  Biso   1.000  C
  H81      1.0000 0.30620  0.32530  0.15230  Biso   1.000  H
  C112     1.0000 0.58570  0.24960  0.90820  Biso   1.000  C
  H82      1.0000 0.59890  0.25540  0.84540  Biso   1.000  H
  C113     1.0000 0.28520  0.19700  0.94260  Biso   1.000  C
  H83      1.0000 0.30890  0.16030  0.90390  Biso   1.000  H
  N24      1.0000 0.42770  0.24670  0.99040  Biso   1.000  N
  H84      1.0000 0.40250  0.25500  0.92870  Biso   1.000  H
  O24      1.0000 0.42300  0.23170  0.16050  Biso   1.000  O
  C114     1.0000 0.61260  0.22950  0.08490  Biso   1.000  C
  H85      1.0000 0.64500  0.22060  0.14710  Biso   1.000  H
  C115     1.0000 0.49690  0.24300  0.99750  Biso   1.000  C
  C116     1.0000 0.54540  0.23260  0.08950  Biso   1.000  C
  H86      1.0000 0.53330  0.22770  0.15320  Biso   1.000  H
  C117     1.0000 0.31970  0.24280  0.03240  Biso   1.000  C
  C118     1.0000 0.51860  0.25250  0.90550  Biso   1.000  C
  H87      1.0000 0.48720  0.26080  0.84210  Biso   1.000  H
  C119     1.0000 0.39490  0.23880  0.06950  Biso   1.000  C
  C120     1.0000 0.69670  0.45930  0.04780  Biso   1.000  C
  H88      1.0000 0.67250  0.44740  0.97970  Biso   1.000  H
  Cd3      1.0000 0.75000  0.25000  0.00000  Biso   1.000  Cd
  Cd4      1.0000 0.75000  0.75000  0.50000  Biso   1.000  Cd
