data_image0
_cell_length_a       10.094
_cell_length_b       13.699
_cell_length_c       13.723
_cell_angle_alpha    90
_cell_angle_beta     107.92
_cell_angle_gamma    90

_symmetry_space_group_name_H-M    "P 1"
_symmetry_int_tables_number       1

loop_
  _symmetry_equiv_pos_as_xyz
  'x, y, z'

loop_
  _atom_site_label
  _atom_site_occupancy
  _atom_site_fract_x
  _atom_site_fract_y
  _atom_site_fract_z
  _atom_site_thermal_displace_type
  _atom_site_B_iso_or_equiv
  _atom_site_type_symbol
  Cd1      1.0000 0.67340  0.55723  0.08155  Biso   1.000  Cd
  O1       1.0000 0.85290  0.45630  0.21810  Biso   1.000  O
  O2       1.0000 0.62730  0.42920  0.17800  Biso   1.000  O
  O3       1.0000 0.60450  0.05970  0.45570  Biso   1.000  O
  O4       1.0000 0.45520  0.14930  0.33730  Biso   1.000  O
  O5       1.0000 0.16650  0.18210  0.36050  Biso   1.000  O
  O6       1.0000 0.11800  0.07670  0.46700  Biso   1.000  O
  C1       1.0000 0.75240  0.40550  0.22380  Biso   1.000  C
  C2       1.0000 0.57820  0.12500  0.38700  Biso   1.000  C
  C3       1.0000 0.08420  0.14730  0.40510  Biso   1.000  C
  C4       1.0000 0.83260  0.14150  0.40170  Biso   1.000  C
  H1       1.0000 0.85110  0.08580  0.44240  Biso   1.000  H
  C5       1.0000 0.94100  0.18980  0.37870  Biso   1.000  C
  C6       1.0000 0.91330  0.27710  0.32410  Biso   1.000  C
  H2       1.0000 0.98620  0.31140  0.31200  Biso   1.000  H
  C7       1.0000 0.77990  0.31350  0.28760  Biso   1.000  C
  C8       1.0000 0.67070  0.26150  0.30550  Biso   1.000  C
  H3       1.0000 0.57980  0.28380  0.27820  Biso   1.000  H
  C9       1.0000 0.69690  0.17640  0.36390  Biso   1.000  C
  Cd2      1.0000 0.32660  0.05723  0.41845  Biso   1.000  Cd
  O7       1.0000 0.14710  0.95630  0.28190  Biso   1.000  O
  O8       1.0000 0.37270  0.92920  0.32200  Biso   1.000  O
  O9       1.0000 0.39550  0.55970  0.04430  Biso   1.000  O
  O10      1.0000 0.54480  0.64930  0.16270  Biso   1.000  O
  O11      1.0000 0.83350  0.68210  0.13950  Biso   1.000  O
  O12      1.0000 0.88200  0.57670  0.03300  Biso   1.000  O
  C10      1.0000 0.24760  0.90550  0.27620  Biso   1.000  C
  C11      1.0000 0.42180  0.62500  0.11300  Biso   1.000  C
  C12      1.0000 0.91580  0.64730  0.09490  Biso   1.000  C
  C13      1.0000 0.16740  0.64150  0.09830  Biso   1.000  C
  H4       1.0000 0.14890  0.58580  0.05760  Biso   1.000  H
  C14      1.0000 0.05900  0.68980  0.12130  Biso   1.000  C
  C15      1.0000 0.08670  0.77710  0.17590  Biso   1.000  C
  H5       1.0000 0.01380  0.81140  0.18800  Biso   1.000  H
  C16      1.0000 0.22010  0.81350  0.21240  Biso   1.000  C
  C17      1.0000 0.32930  0.76150  0.19450  Biso   1.000  C
  H6       1.0000 0.42020  0.78380  0.22180  Biso   1.000  H
  C18      1.0000 0.30310  0.67640  0.13610  Biso   1.000  C
  Cd3      1.0000 0.32660  0.44277  0.91845  Biso   1.000  Cd
  O13      1.0000 0.14710  0.54370  0.78190  Biso   1.000  O
  O14      1.0000 0.37270  0.57080  0.82200  Biso   1.000  O
  O15      1.0000 0.39550  0.94030  0.54430  Biso   1.000  O
  O16      1.0000 0.54480  0.85070  0.66270  Biso   1.000  O
  O17      1.0000 0.83350  0.81790  0.63950  Biso   1.000  O
  O18      1.0000 0.88200  0.92330  0.53300  Biso   1.000  O
  C19      1.0000 0.24760  0.59450  0.77620  Biso   1.000  C
  C20      1.0000 0.42180  0.87500  0.61300  Biso   1.000  C
  C21      1.0000 0.91580  0.85270  0.59490  Biso   1.000  C
  C22      1.0000 0.16740  0.85850  0.59830  Biso   1.000  C
  H7       1.0000 0.14890  0.91420  0.55760  Biso   1.000  H
  C23      1.0000 0.05900  0.81020  0.62130  Biso   1.000  C
  C24      1.0000 0.08670  0.72290  0.67590  Biso   1.000  C
  H8       1.0000 0.01380  0.68860  0.68800  Biso   1.000  H
  C25      1.0000 0.22010  0.68650  0.71240  Biso   1.000  C
  C26      1.0000 0.32930  0.73850  0.69450  Biso   1.000  C
  H9       1.0000 0.42020  0.71620  0.72180  Biso   1.000  H
  C27      1.0000 0.30310  0.82360  0.63610  Biso   1.000  C
  Cd4      1.0000 0.67340  0.94277  0.58155  Biso   1.000  Cd
  O19      1.0000 0.85290  0.04370  0.71810  Biso   1.000  O
  O20      1.0000 0.62730  0.07080  0.67800  Biso   1.000  O
  O21      1.0000 0.60450  0.44030  0.95570  Biso   1.000  O
  O22      1.0000 0.45520  0.35070  0.83730  Biso   1.000  O
  O23      1.0000 0.16650  0.31790  0.86050  Biso   1.000  O
  O24      1.0000 0.11800  0.42330  0.96700  Biso   1.000  O
  C28      1.0000 0.75240  0.09450  0.72380  Biso   1.000  C
  C29      1.0000 0.57820  0.37500  0.88700  Biso   1.000  C
  C30      1.0000 0.08420  0.35270  0.90510  Biso   1.000  C
  C31      1.0000 0.83260  0.35850  0.90170  Biso   1.000  C
  H10      1.0000 0.85110  0.41420  0.94240  Biso   1.000  H
  C32      1.0000 0.94100  0.31020  0.87870  Biso   1.000  C
  C33      1.0000 0.91330  0.22290  0.82410  Biso   1.000  C
  H11      1.0000 0.98620  0.18860  0.81200  Biso   1.000  H
  C34      1.0000 0.77990  0.18650  0.78760  Biso   1.000  C
  C35      1.0000 0.67070  0.23850  0.80550  Biso   1.000  C
  H12      1.0000 0.57980  0.21620  0.77820  Biso   1.000  H
  C36      1.0000 0.69690  0.32360  0.86390  Biso   1.000  C
