data_OVIWIA_clean
_audit_creation_date              2014-07-02
_audit_creation_method            'Materials Studio'
_symmetry_space_group_name_H-M    'P1'
_symmetry_Int_Tables_number       1
_symmetry_cell_setting            triclinic
loop_
_symmetry_equiv_pos_as_xyz
  x,y,z
_cell_length_a                    9.3568
_cell_length_b                    9.5026
_cell_length_c                    12.1282
_cell_angle_alpha                 90.0000
_cell_angle_beta                  103.9120
_cell_angle_gamma                 90.0000
loop_
_atom_site_label
_atom_site_type_symbol
_atom_site_fract_x
_atom_site_fract_y
_atom_site_fract_z
_atom_site_U_iso_or_equiv
_atom_site_adp_type
_atom_site_occupancy
U1     U     0.78256   0.67786   0.38023   0.01267  Uiso   1.00
U2     U     0.71744   0.17786   0.11977   0.01267  Uiso   1.00
U3     U     0.21744   0.32214   0.61977   0.01267  Uiso   1.00
U4     U     0.28256   0.82214   0.88023   0.01267  Uiso   1.00
Co1    Co    0.50000   0.50000   0.50000   0.01267  Uiso   1.00
Co2    Co    0.00000   0.00000   0.00000   0.01267  Uiso   1.00
P1     P     0.59105   0.81747   0.11585   0.01267  Uiso   1.00
P2     P     0.90895   0.31747   0.38415   0.01267  Uiso   1.00
P3     P     0.40895   0.18253   0.88415   0.01267  Uiso   1.00
P4     P     0.09105   0.68253   0.61585   0.01267  Uiso   1.00
H1     H     0.79090   0.69260   0.08440   0.01267  Uiso   1.00
H2     H     0.64750   0.66000   0.98610   0.01267  Uiso   1.00
H3     H     0.70910   0.19260   0.41560   0.01267  Uiso   1.00
H4     H     0.85250   0.16000   0.51390   0.01267  Uiso   1.00
H5     H     0.20910   0.30740   0.91560   0.01267  Uiso   1.00
H6     H     0.35250   0.34000   0.01390   0.01267  Uiso   1.00
H7     H     0.29090   0.80740   0.58440   0.01267  Uiso   1.00
H8     H     0.14750   0.84000   0.48610   0.01267  Uiso   1.00
C1     C     0.68460   0.67000   0.06930   0.01267  Uiso   1.00
C2     C     0.66800   0.53010   0.12400   0.01267  Uiso   1.00
C3     C     0.81540   0.17000   0.43070   0.01267  Uiso   1.00
C4     C     0.83200   0.03010   0.37600   0.01267  Uiso   1.00
C5     C     0.31540   0.33000   0.93070   0.01267  Uiso   1.00
C6     C     0.33200   0.46990   0.87600   0.01267  Uiso   1.00
C7     C     0.18460   0.83000   0.56930   0.01267  Uiso   1.00
C8     C     0.16800   0.96990   0.62400   0.01267  Uiso   1.00
O1     O     0.62350   0.81600   0.24430   0.01267  Uiso   1.00
O2     O     0.42530   0.80460   0.06530   0.01267  Uiso   1.00
O3     O     0.65410   0.94730   0.06960   0.01267  Uiso   1.00
O4     O     0.65330   0.52820   0.22570   0.01267  Uiso   1.00
O5     O     0.67360   0.42090   0.06630   0.01267  Uiso   1.00
O6     O     0.62930   0.65840   0.44560   0.01267  Uiso   1.00
O7     O     0.87650   0.31600   0.25570   0.01267  Uiso   1.00
O8     O     0.07470   0.30460   0.43470   0.01267  Uiso   1.00
O9     O     0.84590   0.44730   0.43040   0.01267  Uiso   1.00
O10    O     0.84670   0.02820   0.27430   0.01267  Uiso   1.00
O11    O     0.82640   0.92090   0.43370   0.01267  Uiso   1.00
O12    O     0.87070   0.15840   0.05440   0.01267  Uiso   1.00
O13    O     0.37650   0.18400   0.75570   0.01267  Uiso   1.00
O14    O     0.57470   0.19540   0.93470   0.01267  Uiso   1.00
O15    O     0.34590   0.05270   0.93040   0.01267  Uiso   1.00
O16    O     0.34670   0.47180   0.77430   0.01267  Uiso   1.00
O17    O     0.32640   0.57910   0.93370   0.01267  Uiso   1.00
O18    O     0.37070   0.34160   0.55440   0.01267  Uiso   1.00
O19    O     0.12350   0.68400   0.74430   0.01267  Uiso   1.00
O20    O     0.92530   0.69540   0.56530   0.01267  Uiso   1.00
O21    O     0.15410   0.55270   0.56960   0.01267  Uiso   1.00
O22    O     0.15330   0.97180   0.72570   0.01267  Uiso   1.00
O23    O     0.17360   0.07910   0.56630   0.01267  Uiso   1.00
O24    O     0.12930   0.84160   0.94560   0.01267  Uiso   1.00
