data_image0
_cell_length_a       12.4225
_cell_length_b       12.9981
_cell_length_c       14.779
_cell_angle_alpha    64.384
_cell_angle_beta     80.885
_cell_angle_gamma    79.562

_symmetry_space_group_name_H-M    "P 1"
_symmetry_int_tables_number       1

loop_
  _symmetry_equiv_pos_as_xyz
  'x, y, z'

loop_
  _atom_site_label
  _atom_site_occupancy
  _atom_site_fract_x
  _atom_site_fract_y
  _atom_site_fract_z
  _atom_site_thermal_displace_type
  _atom_site_B_iso_or_equiv
  _atom_site_type_symbol
  Ni1      1.0000 0.22886  0.21634  0.21228  Biso   1.000  Ni
  O1       1.0000 0.43991  0.20650  0.64687  Biso   1.000  O
  N1       1.0000 0.28829  0.07016  0.34483  Biso   1.000  N
  C1       1.0000 0.37072  0.17741  0.61139  Biso   1.000  C
  Ni2      1.0000 0.44943  0.17556  0.79524  Biso   1.000  Ni
  O2       1.0000 0.27609  0.15370  0.65467  Biso   1.000  O
  N2       1.0000 0.74820  0.31700  0.04190  Biso   1.000  N
  C2       1.0000 0.40290  0.16660  0.51310  Biso   1.000  C
  Ni3      1.0000 0.80975  0.15484  0.16290  Biso   1.000  Ni
  O3       1.0000 0.72340  0.20080  0.36680  Biso   1.000  O
  N3       1.0000 0.89730  0.68120  0.26320  Biso   1.000  N
  C3       1.0000 0.50810  0.18380  0.46620  Biso   1.000  C
  Ni4      1.0000 0.84687  0.78284  0.11979  Biso   1.000  Ni
  O4       1.0000 0.67748  0.13930  0.26069  Biso   1.000  O
  C4       1.0000 0.54120  0.15800  0.38330  Biso   1.000  C
  O5       1.0000 0.47445  0.99093  0.16385  Biso   1.000  O
  C5       1.0000 0.46880  0.11900  0.34610  Biso   1.000  C
  O6       1.0000 0.33399  0.12858  0.13884  Biso   1.000  O
  C6       1.0000 0.36160  0.10530  0.39060  Biso   1.000  C
  O7       1.0000 0.02820  0.97100  0.37950  Biso   1.000  O
  C7       1.0000 0.32930  0.12860  0.47500  Biso   1.000  C
  O8       1.0000 0.10403  0.11460  0.25306  Biso   1.000  O
  C8       1.0000 0.65640  0.16790  0.33320  Biso   1.000  C
  O9       1.0000 0.35228  0.31240  0.17460  Biso   1.000  O
  C9       1.0000 0.18740  0.02770  0.40830  Biso   1.000  C
  O10      1.0000 0.30840  0.43830  0.24390  Biso   1.000  O
  C10      1.0000 0.10030  0.03620  0.34190  Biso   1.000  C
  O11      1.0000 0.61182  0.65982  0.22845  Biso   1.000  O
  C11      1.0000 0.34660  0.98350  0.30600  Biso   1.000  C
  O12      1.0000 0.75495  0.66884  0.11274  Biso   1.000  O
  C12      1.0000 0.38950  0.03830  0.19490  Biso   1.000  C
  O13      1.0000 0.94072  0.17233  0.05595  Biso   1.000  O
  C13      1.0000 0.37390  0.38890  0.19660  Biso   1.000  C
  O14      1.0000 0.02277  0.30818  0.92558  Biso   1.000  O
  C14      1.0000 0.66840  0.62830  0.16380  Biso   1.000  C
  O15      1.0000 0.73740  0.08855  0.08943  Biso   1.000  O
  C15      1.0000 0.52250  0.50940  0.17790  Biso   1.000  C
  O16      1.0000 0.69470  0.12490  0.93860  Biso   1.000  O
  C16      1.0000 0.62980  0.53500  0.14690  Biso   1.000  C
  C17      1.0000 0.70230  0.47460  0.09950  Biso   1.000  C
  C18      1.0000 0.67020  0.38740  0.08400  Biso   1.000  C
  C19      1.0000 0.56270  0.36230  0.11470  Biso   1.000  C
  C20      1.0000 0.48880  0.42270  0.16180  Biso   1.000  C
  O17      1.0000 0.28945  0.12953  0.83037  Biso   1.000  O
  C21      1.0000 0.85200  0.36670  0.99360  Biso   1.000  C
  C22      1.0000 0.94420  0.27330  0.99140  Biso   1.000  C
  C23      1.0000 0.70170  0.28530  0.97180  Biso   1.000  C
  C24      1.0000 0.71280  0.15700  0.00180  Biso   1.000  C
  C25      1.0000 0.97830  0.53870  0.45030  Biso   1.000  C
  H1       1.0000 0.25930  0.15490  0.77490  Biso   1.000  H
  H2       1.0000 0.29070  0.05850  0.85850  Biso   1.000  H
  H3       1.0000 0.29630  0.93750  0.30340  Biso   1.000  H
  H4       1.0000 0.40440  0.93390  0.34430  Biso   1.000  H
  H5       1.0000 0.15440  0.07170  0.44080  Biso   1.000  H
  H6       1.0000 0.20520  0.94450  0.46460  Biso   1.000  H
  H7       1.0000 0.62170  0.31570  0.96200  Biso   1.000  H
  H8       1.0000 0.73300  0.32710  0.89950  Biso   1.000  H
  H9       1.0000 0.87510  0.39440  0.03200  Biso   1.000  H
  H10      1.0000 0.83240  0.41840  0.91370  Biso   1.000  H
  H11      1.0000 0.53920  0.30030  0.10930  Biso   1.000  H
  H12      1.0000 0.49670  0.10430  0.28220  Biso   1.000  H
  H13      1.0000 0.25310  0.11090  0.51410  Biso   1.000  H
  H14      1.0000 0.55950  0.20040  0.50050  Biso   1.000  H
  H15      1.0000 0.77750  0.49020  0.08510  Biso   1.000  H
  H16      1.0000 0.46420  0.54670  0.21920  Biso   1.000  H
  C26      1.0000 0.83409  0.61806  0.34060  Biso   1.000  C
  C27      1.0000 0.87149  0.54725  0.43370  Biso   1.000  C
  C28      1.0000 0.00169  0.67746  0.28000  Biso   1.000  C
  C29      1.0000 0.04609  0.60845  0.37050  Biso   1.000  C
  H17      1.0000 0.81740  0.51230  0.48440  Biso   1.000  H
  H18      1.0000 0.11960  0.62130  0.37760  Biso   1.000  H
  H19      1.0000 0.76040  0.63490  0.33340  Biso   1.000  H
  H20      1.0000 0.06010  0.72360  0.22080  Biso   1.000  H
  Ni5      1.0000 0.77114  0.78366  0.78772  Biso   1.000  Ni
  O18      1.0000 0.56009  0.79350  0.35313  Biso   1.000  O
  N4       1.0000 0.71171  0.92984  0.65517  Biso   1.000  N
  C30      1.0000 0.62928  0.82259  0.38861  Biso   1.000  C
  Ni6      1.0000 0.55057  0.82444  0.20476  Biso   1.000  Ni
  O19      1.0000 0.72391  0.84630  0.34533  Biso   1.000  O
  N5       1.0000 0.25180  0.68300  0.95810  Biso   1.000  N
  C31      1.0000 0.59710  0.83340  0.48690  Biso   1.000  C
  Ni7      1.0000 0.19025  0.84516  0.83710  Biso   1.000  Ni
  O20      1.0000 0.27660  0.79920  0.63320  Biso   1.000  O
  N6       1.0000 0.10270  0.31880  0.73680  Biso   1.000  N
  C32      1.0000 0.49190  0.81620  0.53380  Biso   1.000  C
  Ni8      1.0000 0.15313  0.21716  0.88021  Biso   1.000  Ni
  O21      1.0000 0.32252  0.86070  0.73931  Biso   1.000  O
  C33      1.0000 0.45880  0.84200  0.61670  Biso   1.000  C
  O22      1.0000 0.52555  0.00907  0.83615  Biso   1.000  O
  C34      1.0000 0.53120  0.88100  0.65390  Biso   1.000  C
  O23      1.0000 0.66601  0.87142  0.86116  Biso   1.000  O
  C35      1.0000 0.63840  0.89470  0.60940  Biso   1.000  C
  O24      1.0000 0.97180  0.02900  0.62050  Biso   1.000  O
  C36      1.0000 0.67070  0.87140  0.52500  Biso   1.000  C
  O25      1.0000 0.89597  0.88540  0.74694  Biso   1.000  O
  C37      1.0000 0.34360  0.83210  0.66680  Biso   1.000  C
  O26      1.0000 0.64772  0.68760  0.82540  Biso   1.000  O
  C38      1.0000 0.81260  0.97230  0.59170  Biso   1.000  C
  O27      1.0000 0.69160  0.56170  0.75610  Biso   1.000  O
  C39      1.0000 0.89970  0.96380  0.65810  Biso   1.000  C
  O28      1.0000 0.38818  0.34018  0.77155  Biso   1.000  O
  C40      1.0000 0.65340  0.01650  0.69400  Biso   1.000  C
  O29      1.0000 0.24505  0.33116  0.88726  Biso   1.000  O
  C41      1.0000 0.61050  0.96170  0.80510  Biso   1.000  C
  O30      1.0000 0.05928  0.82767  0.94405  Biso   1.000  O
  C42      1.0000 0.62610  0.61110  0.80340  Biso   1.000  C
  O31      1.0000 0.97723  0.69182  0.07442  Biso   1.000  O
  C43      1.0000 0.33160  0.37170  0.83620  Biso   1.000  C
  O32      1.0000 0.26260  0.91145  0.91057  Biso   1.000  O
  C44      1.0000 0.47750  0.49060  0.82210  Biso   1.000  C
  O33      1.0000 0.30530  0.87510  0.06140  Biso   1.000  O
  C45      1.0000 0.37020  0.46500  0.85310  Biso   1.000  C
  C46      1.0000 0.29770  0.52540  0.90050  Biso   1.000  C
  C47      1.0000 0.32980  0.61260  0.91600  Biso   1.000  C
  C48      1.0000 0.43730  0.63770  0.88530  Biso   1.000  C
  C49      1.0000 0.51120  0.57730  0.83820  Biso   1.000  C
  O34      1.0000 0.71055  0.87047  0.16963  Biso   1.000  O
  C50      1.0000 0.14800  0.63330  0.00640  Biso   1.000  C
  C51      1.0000 0.05580  0.72670  0.00860  Biso   1.000  C
  C52      1.0000 0.29830  0.71470  0.02820  Biso   1.000  C
  C53      1.0000 0.28720  0.84300  0.99820  Biso   1.000  C
  C54      1.0000 0.02170  0.46130  0.54970  Biso   1.000  C
  H21      1.0000 0.74070  0.84510  0.22510  Biso   1.000  H
  H22      1.0000 0.70930  0.94150  0.14150  Biso   1.000  H
  H23      1.0000 0.70370  0.06250  0.69660  Biso   1.000  H
  H24      1.0000 0.59560  0.06610  0.65570  Biso   1.000  H
  H25      1.0000 0.84560  0.92830  0.55920  Biso   1.000  H
  H26      1.0000 0.79480  0.05550  0.53540  Biso   1.000  H
  H27      1.0000 0.37830  0.68430  0.03800  Biso   1.000  H
  H28      1.0000 0.26700  0.67290  0.10050  Biso   1.000  H
  H29      1.0000 0.12490  0.60560  0.96800  Biso   1.000  H
  H30      1.0000 0.16760  0.58160  0.08630  Biso   1.000  H
  H31      1.0000 0.46080  0.69970  0.89070  Biso   1.000  H
  H32      1.0000 0.50330  0.89570  0.71780  Biso   1.000  H
  H33      1.0000 0.74690  0.88910  0.48590  Biso   1.000  H
  H34      1.0000 0.44050  0.79960  0.49950  Biso   1.000  H
  H35      1.0000 0.22250  0.50980  0.91490  Biso   1.000  H
  H36      1.0000 0.53580  0.45330  0.78080  Biso   1.000  H
  C55      1.0000 0.16591  0.38194  0.65940  Biso   1.000  C
  C56      1.0000 0.12851  0.45275  0.56630  Biso   1.000  C
  C57      1.0000 0.99831  0.32254  0.72000  Biso   1.000  C
  C58      1.0000 0.95391  0.39155  0.62950  Biso   1.000  C
  H37      1.0000 0.18260  0.48770  0.51560  Biso   1.000  H
  H38      1.0000 0.88040  0.37870  0.62240  Biso   1.000  H
  H39      1.0000 0.23960  0.36510  0.66660  Biso   1.000  H
  H40      1.0000 0.93990  0.27640  0.77920  Biso   1.000  H
