data_OVIZID_clean
_audit_creation_date              2014-07-02
_audit_creation_method            'Materials Studio'
_symmetry_space_group_name_H-M    'P1'
_symmetry_Int_Tables_number       1
_symmetry_cell_setting            triclinic
loop_
_symmetry_equiv_pos_as_xyz
  x,y,z
_cell_length_a                    12.7932
_cell_length_b                    12.7932
_cell_length_c                    18.0331
_cell_angle_alpha                 91.8646
_cell_angle_beta                  91.8646
_cell_angle_gamma                 106.1330
loop_
_atom_site_label
_atom_site_type_symbol
_atom_site_fract_x
_atom_site_fract_y
_atom_site_fract_z
_atom_site_U_iso_or_equiv
_atom_site_adp_type
_atom_site_occupancy
Ni1    Ni    0.23711   0.27551   0.71057   0.01267  Uiso   1.00
Ni2    Ni    0.72449   0.76289   0.78943   0.01267  Uiso   1.00
Ni3    Ni    0.76289   0.72449   0.28943   0.01267  Uiso   1.00
Ni4    Ni    0.27551   0.23711   0.21057   0.01267  Uiso   1.00
Ni5    Ni    0.00000   0.00000   0.50000   0.01267  Uiso   1.00
Ni6    Ni    0.00000   0.00000   0.00000   0.01267  Uiso   1.00
H1     H     0.52310   0.46790   0.67950   0.01267  Uiso   1.00
H2     H     0.46090   0.68010   0.53380   0.01267  Uiso   1.00
H3     H     0.28330   0.36250   0.52030   0.01267  Uiso   1.00
H4     H     0.34700   0.22780   0.52600   0.01267  Uiso   1.00
H5     H     0.35800   0.13980   0.58440   0.01267  Uiso   1.00
H6     H     0.50700   0.24040   0.64980   0.01267  Uiso   1.00
H7     H     0.49010   0.32290   0.71420   0.01267  Uiso   1.00
H8     H     0.30830   0.52490   0.72100   0.01267  Uiso   1.00
H9     H     0.04240   0.32300   0.62970   0.01267  Uiso   1.00
H10    H     0.26650   0.67150   0.67120   0.01267  Uiso   1.00
H11    H     0.98740   0.46600   0.58360   0.01267  Uiso   1.00
H12    H     0.23780   0.75220   0.54290   0.01267  Uiso   1.00
H13    H     0.93560   0.64140   0.62150   0.01267  Uiso   1.00
H14    H     0.18810   0.89990   0.49980   0.01267  Uiso   1.00
H15    H     0.89490   0.78990   0.57550   0.01267  Uiso   1.00
H16    H     0.26660   0.65300   0.40800   0.01267  Uiso   1.00
H17    H     0.53210   0.47690   0.82050   0.01267  Uiso   1.00
H18    H     0.31990   0.53910   0.96620   0.01267  Uiso   1.00
H19    H     0.63750   0.71670   0.97970   0.01267  Uiso   1.00
H20    H     0.77220   0.65300   0.97400   0.01267  Uiso   1.00
H21    H     0.86020   0.64200   0.91560   0.01267  Uiso   1.00
H22    H     0.75960   0.49300   0.85020   0.01267  Uiso   1.00
H23    H     0.67710   0.50990   0.78580   0.01267  Uiso   1.00
H24    H     0.47510   0.69170   0.77900   0.01267  Uiso   1.00
H25    H     0.67700   0.95760   0.87030   0.01267  Uiso   1.00
H26    H     0.32850   0.73350   0.82880   0.01267  Uiso   1.00
H27    H     0.53400   0.01260   0.91640   0.01267  Uiso   1.00
H28    H     0.24780   0.76220   0.95710   0.01267  Uiso   1.00
H29    H     0.35860   0.06440   0.87850   0.01267  Uiso   1.00
H30    H     0.10010   0.81190   0.00020   0.01267  Uiso   1.00
H31    H     0.21010   0.10510   0.92450   0.01267  Uiso   1.00
H32    H     0.34700   0.73340   0.09200   0.01267  Uiso   1.00
H33    H     0.47690   0.53210   0.32050   0.01267  Uiso   1.00
H34    H     0.53910   0.31990   0.46620   0.01267  Uiso   1.00
H35    H     0.71670   0.63750   0.47970   0.01267  Uiso   1.00
H36    H     0.65300   0.77220   0.47400   0.01267  Uiso   1.00
H37    H     0.64200   0.86020   0.41560   0.01267  Uiso   1.00
H38    H     0.49300   0.75960   0.35020   0.01267  Uiso   1.00
H39    H     0.50990   0.67710   0.28580   0.01267  Uiso   1.00
H40    H     0.69170   0.47510   0.27900   0.01267  Uiso   1.00
H41    H     0.95760   0.67700   0.37030   0.01267  Uiso   1.00
H42    H     0.73350   0.32850   0.32880   0.01267  Uiso   1.00
H43    H     0.01260   0.53400   0.41640   0.01267  Uiso   1.00
H44    H     0.76220   0.24780   0.45710   0.01267  Uiso   1.00
H45    H     0.06440   0.35860   0.37850   0.01267  Uiso   1.00
H46    H     0.81190   0.10010   0.50020   0.01267  Uiso   1.00
H47    H     0.10510   0.21010   0.42450   0.01267  Uiso   1.00
H48    H     0.73340   0.34700   0.59200   0.01267  Uiso   1.00
H49    H     0.46790   0.52310   0.17950   0.01267  Uiso   1.00
H50    H     0.68010   0.46090   0.03380   0.01267  Uiso   1.00
H51    H     0.36250   0.28330   0.02030   0.01267  Uiso   1.00
H52    H     0.22780   0.34700   0.02600   0.01267  Uiso   1.00
H53    H     0.13980   0.35800   0.08440   0.01267  Uiso   1.00
H54    H     0.24040   0.50700   0.14980   0.01267  Uiso   1.00
H55    H     0.32290   0.49010   0.21420   0.01267  Uiso   1.00
H56    H     0.52490   0.30830   0.22100   0.01267  Uiso   1.00
H57    H     0.32300   0.04240   0.12970   0.01267  Uiso   1.00
H58    H     0.67150   0.26650   0.17120   0.01267  Uiso   1.00
H59    H     0.46600   0.98740   0.08360   0.01267  Uiso   1.00
H60    H     0.75220   0.23780   0.04290   0.01267  Uiso   1.00
H61    H     0.64140   0.93560   0.12150   0.01267  Uiso   1.00
H62    H     0.89990   0.18810   0.99980   0.01267  Uiso   1.00
H63    H     0.78990   0.89490   0.07550   0.01267  Uiso   1.00
H64    H     0.65300   0.26660   0.90800   0.01267  Uiso   1.00
C1     C     0.39904   0.39656   0.60390   0.01267  Uiso   1.00
C2     C     0.48190   0.48190   0.63810   0.01267  Uiso   1.00
C3     C     0.50440   0.58660   0.61220   0.01267  Uiso   1.00
C4     C     0.44540   0.60860   0.55170   0.01267  Uiso   1.00
C5     C     0.36330   0.52390   0.51780   0.01267  Uiso   1.00
C6     C     0.34010   0.41910   0.54390   0.01267  Uiso   1.00
C7     C     0.59310   0.67690   0.65090   0.01267  Uiso   1.00
C8     C     0.30030   0.54290   0.45100   0.01267  Uiso   1.00
C9     C     0.32500   0.19980   0.57540   0.01267  Uiso   1.00
C10    C     0.20139   0.15421   0.57360   0.01267  Uiso   1.00
C11    C     0.45220   0.25980   0.68090   0.01267  Uiso   1.00
C12    C     0.39770   0.16350   0.72730   0.01267  Uiso   1.00
C13    C     0.24350   0.51250   0.69080   0.01267  Uiso   1.00
C14    C     0.08820   0.39500   0.63870   0.01267  Uiso   1.00
C15    C     0.21850   0.60050   0.66230   0.01267  Uiso   1.00
C16    C     0.05560   0.47980   0.61010   0.01267  Uiso   1.00
C17    C     0.12230   0.58550   0.62000   0.01267  Uiso   1.00
C18    C     0.09250   0.67950   0.58820   0.01267  Uiso   1.00
C19    C     0.16690   0.75870   0.55060   0.01267  Uiso   1.00
C20    C     0.98930   0.69370   0.59660   0.01267  Uiso   1.00
C21    C     0.13630   0.84630   0.52490   0.01267  Uiso   1.00
C22    C     0.96585   0.78215   0.56918   0.01267  Uiso   1.00
C23    C     0.60344   0.60096   0.89610   0.01267  Uiso   1.00
C24    C     0.51810   0.51810   0.86190   0.01267  Uiso   1.00
C25    C     0.41340   0.49560   0.88780   0.01267  Uiso   1.00
C26    C     0.39140   0.55460   0.94830   0.01267  Uiso   1.00
C27    C     0.47610   0.63670   0.98220   0.01267  Uiso   1.00
C28    C     0.58090   0.65990   0.95610   0.01267  Uiso   1.00
C29    C     0.32310   0.40690   0.84910   0.01267  Uiso   1.00
C30    C     0.45710   0.69970   0.04900   0.01267  Uiso   1.00
C31    C     0.80020   0.67500   0.92460   0.01267  Uiso   1.00
C32    C     0.84579   0.79861   0.92640   0.01267  Uiso   1.00
C33    C     0.74020   0.54780   0.81910   0.01267  Uiso   1.00
C34    C     0.83650   0.60230   0.77270   0.01267  Uiso   1.00
C35    C     0.48750   0.75650   0.80920   0.01267  Uiso   1.00
C36    C     0.60500   0.91180   0.86130   0.01267  Uiso   1.00
C37    C     0.39950   0.78150   0.83770   0.01267  Uiso   1.00
C38    C     0.52020   0.94440   0.88990   0.01267  Uiso   1.00
C39    C     0.41450   0.87770   0.88000   0.01267  Uiso   1.00
C40    C     0.32050   0.90750   0.91180   0.01267  Uiso   1.00
C41    C     0.24130   0.83310   0.94940   0.01267  Uiso   1.00
C42    C     0.30630   0.01070   0.90340   0.01267  Uiso   1.00
C43    C     0.15370   0.86370   0.97510   0.01267  Uiso   1.00
C44    C     0.21785   0.03415   0.93082   0.01267  Uiso   1.00
C45    C     0.60096   0.60344   0.39610   0.01267  Uiso   1.00
C46    C     0.51810   0.51810   0.36190   0.01267  Uiso   1.00
C47    C     0.49560   0.41340   0.38780   0.01267  Uiso   1.00
C48    C     0.55460   0.39140   0.44830   0.01267  Uiso   1.00
C49    C     0.63670   0.47610   0.48220   0.01267  Uiso   1.00
C50    C     0.65990   0.58090   0.45610   0.01267  Uiso   1.00
C51    C     0.40690   0.32310   0.34910   0.01267  Uiso   1.00
C52    C     0.69970   0.45710   0.54900   0.01267  Uiso   1.00
C53    C     0.67500   0.80020   0.42460   0.01267  Uiso   1.00
C54    C     0.79861   0.84579   0.42640   0.01267  Uiso   1.00
C55    C     0.54780   0.74020   0.31910   0.01267  Uiso   1.00
C56    C     0.60230   0.83650   0.27270   0.01267  Uiso   1.00
C57    C     0.75650   0.48750   0.30920   0.01267  Uiso   1.00
C58    C     0.91180   0.60500   0.36130   0.01267  Uiso   1.00
C59    C     0.78150   0.39950   0.33770   0.01267  Uiso   1.00
C60    C     0.94440   0.52020   0.38990   0.01267  Uiso   1.00
C61    C     0.87770   0.41450   0.38000   0.01267  Uiso   1.00
C62    C     0.90750   0.32050   0.41180   0.01267  Uiso   1.00
C63    C     0.83310   0.24130   0.44940   0.01267  Uiso   1.00
C64    C     0.01070   0.30630   0.40340   0.01267  Uiso   1.00
C65    C     0.86370   0.15370   0.47510   0.01267  Uiso   1.00
C66    C     0.03415   0.21785   0.43082   0.01267  Uiso   1.00
C67    C     0.39656   0.39904   0.10390   0.01267  Uiso   1.00
C68    C     0.48190   0.48190   0.13810   0.01267  Uiso   1.00
C69    C     0.58660   0.50440   0.11220   0.01267  Uiso   1.00
C70    C     0.60860   0.44540   0.05170   0.01267  Uiso   1.00
C71    C     0.52390   0.36330   0.01780   0.01267  Uiso   1.00
C72    C     0.41910   0.34010   0.04390   0.01267  Uiso   1.00
C73    C     0.67690   0.59310   0.15090   0.01267  Uiso   1.00
C74    C     0.54290   0.30030   0.95100   0.01267  Uiso   1.00
C75    C     0.19980   0.32500   0.07540   0.01267  Uiso   1.00
C76    C     0.15421   0.20139   0.07360   0.01267  Uiso   1.00
C77    C     0.25980   0.45220   0.18090   0.01267  Uiso   1.00
C78    C     0.16350   0.39770   0.22730   0.01267  Uiso   1.00
C79    C     0.51250   0.24350   0.19080   0.01267  Uiso   1.00
C80    C     0.39500   0.08820   0.13870   0.01267  Uiso   1.00
C81    C     0.60050   0.21850   0.16230   0.01267  Uiso   1.00
C82    C     0.47980   0.05560   0.11010   0.01267  Uiso   1.00
C83    C     0.58550   0.12230   0.12000   0.01267  Uiso   1.00
C84    C     0.67950   0.09250   0.08820   0.01267  Uiso   1.00
C85    C     0.75870   0.16690   0.05060   0.01267  Uiso   1.00
C86    C     0.69370   0.98930   0.09660   0.01267  Uiso   1.00
C87    C     0.84630   0.13630   0.02490   0.01267  Uiso   1.00
C88    C     0.78215   0.96585   0.06918   0.01267  Uiso   1.00
N1     N     0.18170   0.40910   0.67862   0.01267  Uiso   1.00
N2     N     0.36940   0.28876   0.63294   0.01267  Uiso   1.00
N3     N     0.03738   0.85982   0.53330   0.01267  Uiso   1.00
N4     N     0.59090   0.81830   0.82138   0.01267  Uiso   1.00
N5     N     0.71124   0.63060   0.86706   0.01267  Uiso   1.00
N6     N     0.14018   0.96262   0.96670   0.01267  Uiso   1.00
N7     N     0.81830   0.59090   0.32138   0.01267  Uiso   1.00
N8     N     0.63060   0.71124   0.36706   0.01267  Uiso   1.00
N9     N     0.96262   0.14018   0.46670   0.01267  Uiso   1.00
N10    N     0.40910   0.18170   0.17862   0.01267  Uiso   1.00
N11    N     0.28876   0.36940   0.13294   0.01267  Uiso   1.00
N12    N     0.85982   0.03738   0.03330   0.01267  Uiso   1.00
O1     O     0.29807   0.14767   0.73835   0.01267  Uiso   1.00
O2     O     0.45340   0.10380   0.74900   0.01267  Uiso   1.00
O3     O     0.14857   0.18351   0.62424   0.01267  Uiso   1.00
O4     O     0.16085   0.08785   0.52182   0.01267  Uiso   1.00
O5     O     0.62718   0.65718   0.71325   0.01267  Uiso   1.00
O6     O     0.62490   0.76450   0.61910   0.01267  Uiso   1.00
O7     O     0.32238   0.64302   0.43135   0.01267  Uiso   1.00
O8     O     0.23940   0.46660   0.41440   0.01267  Uiso   1.00
O9     O     0.85233   0.70193   0.76165   0.01267  Uiso   1.00
O10    O     0.89620   0.54660   0.75100   0.01267  Uiso   1.00
O11    O     0.81649   0.85143   0.87576   0.01267  Uiso   1.00
O12    O     0.91215   0.83915   0.97818   0.01267  Uiso   1.00
O13    O     0.34282   0.37282   0.78675   0.01267  Uiso   1.00
O14    O     0.23550   0.37510   0.88090   0.01267  Uiso   1.00
O15    O     0.35698   0.67762   0.06865   0.01267  Uiso   1.00
O16    O     0.53340   0.76060   0.08560   0.01267  Uiso   1.00
O17    O     0.70193   0.85233   0.26165   0.01267  Uiso   1.00
O18    O     0.54660   0.89620   0.25100   0.01267  Uiso   1.00
O19    O     0.85143   0.81649   0.37576   0.01267  Uiso   1.00
O20    O     0.83915   0.91215   0.47818   0.01267  Uiso   1.00
O21    O     0.37282   0.34282   0.28675   0.01267  Uiso   1.00
O22    O     0.37510   0.23550   0.38090   0.01267  Uiso   1.00
O23    O     0.67762   0.35698   0.56865   0.01267  Uiso   1.00
O24    O     0.76060   0.53340   0.58560   0.01267  Uiso   1.00
O25    O     0.14767   0.29807   0.23835   0.01267  Uiso   1.00
O26    O     0.10380   0.45340   0.24900   0.01267  Uiso   1.00
O27    O     0.18351   0.14857   0.12424   0.01267  Uiso   1.00
O28    O     0.08785   0.16085   0.02182   0.01267  Uiso   1.00
O29    O     0.65718   0.62718   0.21325   0.01267  Uiso   1.00
O30    O     0.76450   0.62490   0.11910   0.01267  Uiso   1.00
O31    O     0.64302   0.32238   0.93135   0.01267  Uiso   1.00
O32    O     0.46660   0.23940   0.91440   0.01267  Uiso   1.00
