data_image0
_cell_length_a       11.237
_cell_length_b       20.8524
_cell_length_c       14.6189
_cell_angle_alpha    90
_cell_angle_beta     104.997
_cell_angle_gamma    90

_symmetry_space_group_name_H-M    "P 1"
_symmetry_int_tables_number       1

loop_
  _symmetry_equiv_pos_as_xyz
  'x, y, z'

loop_
  _atom_site_label
  _atom_site_occupancy
  _atom_site_fract_x
  _atom_site_fract_y
  _atom_site_fract_z
  _atom_site_thermal_displace_type
  _atom_site_B_iso_or_equiv
  _atom_site_type_symbol
  U1       1.0000 0.77642  0.22493  0.56040  Biso   1.000  U
  U2       1.0000 0.92326  0.41885  0.53737  Biso   1.000  U
  U3       1.0000 0.37319  0.48573  0.87337  Biso   1.000  U
  P1       1.0000 0.20307  0.44779  0.62910  Biso   1.000  P
  P2       1.0000 0.60175  0.11600  0.38697  Biso   1.000  P
  P3       1.0000 0.61692  0.36436  0.42618  Biso   1.000  P
  P4       1.0000 0.12499  0.94642  0.37525  Biso   1.000  P
  F1       1.0000 0.86430  0.32712  0.59540  Biso   1.000  F
  O1       1.0000 0.10770  0.48825  0.55750  Biso   1.000  O
  O2       1.0000 0.12620  0.38971  0.64480  Biso   1.000  O
  O3       1.0000 0.26380  0.48397  0.71780  Biso   1.000  O
  O4       1.0000 0.71970  0.41252  0.45430  Biso   1.000  O
  O5       1.0000 0.65460  0.29614  0.45090  Biso   1.000  O
  O6       1.0000 0.55930  0.36619  0.31570  Biso   1.000  O
  O7       1.0000 0.70450  0.06901  0.39070  Biso   1.000  O
  O8       1.0000 0.61900  0.16091  0.47010  Biso   1.000  O
  O9       1.0000 0.58250  0.15806  0.29440  Biso   1.000  O
  O10      1.0000 0.01350  0.96115  0.29080  Biso   1.000  O
  O11      1.0000 0.07700  0.96925  0.46040  Biso   1.000  O
  O12      1.0000 0.16500  0.87749  0.37860  Biso   1.000  O
  C1       1.0000 0.31890  0.42350  0.57200  Biso   1.000  C
  C2       1.0000 0.44190  0.43610  0.61350  Biso   1.000  C
  H1       1.0000 0.46530  0.45720  0.67310  Biso   1.000  H
  C3       1.0000 0.53080  0.41810  0.56860  Biso   1.000  C
  H2       1.0000 0.61510  0.42630  0.59830  Biso   1.000  H
  C4       1.0000 0.49870  0.38820  0.48070  Biso   1.000  C
  C5       1.0000 0.37350  0.37630  0.43880  Biso   1.000  C
  H3       1.0000 0.34940  0.35600  0.37860  Biso   1.000  H
  C6       1.0000 0.28530  0.39380  0.48390  Biso   1.000  C
  H4       1.0000 0.20090  0.38550  0.45470  Biso   1.000  H
  C7       1.0000 0.46450  0.06990  0.37720  Biso   1.000  C
  C8       1.0000 0.35300  0.09850  0.37820  Biso   1.000  C
  H5       1.0000 0.34830  0.14390  0.38140  Biso   1.000  H
  C9       1.0000 0.24860  0.06200  0.37460  Biso   1.000  C
  H6       1.0000 0.17290  0.08240  0.37430  Biso   1.000  H
  C10      1.0000 0.25510  0.99540  0.37140  Biso   1.000  C
  C11      1.0000 0.36570  0.96680  0.37120  Biso   1.000  C
  H7       1.0000 0.37090  0.92140  0.36920  Biso   1.000  H
  C12      1.0000 0.46970  0.00370  0.37410  Biso   1.000  C
  H8       1.0000 0.54510  0.98310  0.37390  Biso   1.000  H
  U4       1.0000 0.72358  0.72493  0.93960  Biso   1.000  U
  U5       1.0000 0.57674  0.91885  0.96263  Biso   1.000  U
  U6       1.0000 0.12681  0.98573  0.62663  Biso   1.000  U
  P5       1.0000 0.29693  0.94779  0.87090  Biso   1.000  P
  P6       1.0000 0.89825  0.61600  0.11303  Biso   1.000  P
  P7       1.0000 0.88308  0.86436  0.07382  Biso   1.000  P
  P8       1.0000 0.37501  0.44642  0.12475  Biso   1.000  P
  F2       1.0000 0.63570  0.82712  0.90460  Biso   1.000  F
  O13      1.0000 0.39230  0.98825  0.94250  Biso   1.000  O
  O14      1.0000 0.37380  0.88971  0.85520  Biso   1.000  O
  O15      1.0000 0.23620  0.98397  0.78220  Biso   1.000  O
  O16      1.0000 0.78030  0.91252  0.04570  Biso   1.000  O
  O17      1.0000 0.84540  0.79614  0.04910  Biso   1.000  O
  O18      1.0000 0.94070  0.86619  0.18430  Biso   1.000  O
  O19      1.0000 0.79550  0.56901  0.10930  Biso   1.000  O
  O20      1.0000 0.88100  0.66091  0.02990  Biso   1.000  O
  O21      1.0000 0.91750  0.65806  0.20560  Biso   1.000  O
  O22      1.0000 0.48650  0.46115  0.20920  Biso   1.000  O
  O23      1.0000 0.42300  0.46925  0.03960  Biso   1.000  O
  O24      1.0000 0.33500  0.37749  0.12140  Biso   1.000  O
  C13      1.0000 0.18110  0.92350  0.92800  Biso   1.000  C
  C14      1.0000 0.05810  0.93610  0.88650  Biso   1.000  C
  H9       1.0000 0.03470  0.95720  0.82690  Biso   1.000  H
  C15      1.0000 0.96920  0.91810  0.93140  Biso   1.000  C
  H10      1.0000 0.88490  0.92630  0.90170  Biso   1.000  H
  C16      1.0000 0.00130  0.88820  0.01930  Biso   1.000  C
  C17      1.0000 0.12650  0.87630  0.06120  Biso   1.000  C
  H11      1.0000 0.15060  0.85600  0.12140  Biso   1.000  H
  C18      1.0000 0.21470  0.89380  0.01610  Biso   1.000  C
  H12      1.0000 0.29910  0.88550  0.04530  Biso   1.000  H
  C19      1.0000 0.03550  0.56990  0.12280  Biso   1.000  C
  C20      1.0000 0.14700  0.59850  0.12180  Biso   1.000  C
  H13      1.0000 0.15170  0.64390  0.11860  Biso   1.000  H
  C21      1.0000 0.25140  0.56200  0.12540  Biso   1.000  C
  H14      1.0000 0.32710  0.58240  0.12570  Biso   1.000  H
  C22      1.0000 0.24490  0.49540  0.12860  Biso   1.000  C
  C23      1.0000 0.13430  0.46680  0.12880  Biso   1.000  C
  H15      1.0000 0.12910  0.42140  0.13080  Biso   1.000  H
  C24      1.0000 0.03030  0.50370  0.12590  Biso   1.000  C
  H16      1.0000 0.95490  0.48310  0.12610  Biso   1.000  H
  U7       1.0000 0.22358  0.77507  0.43960  Biso   1.000  U
  U8       1.0000 0.07674  0.58115  0.46263  Biso   1.000  U
  U9       1.0000 0.62681  0.51427  0.12663  Biso   1.000  U
  P9       1.0000 0.79693  0.55221  0.37090  Biso   1.000  P
  P10      1.0000 0.39825  0.88400  0.61303  Biso   1.000  P
  P11      1.0000 0.38308  0.63564  0.57382  Biso   1.000  P
  P12      1.0000 0.87501  0.05358  0.62475  Biso   1.000  P
  F3       1.0000 0.13570  0.67288  0.40460  Biso   1.000  F
  O25      1.0000 0.89230  0.51175  0.44250  Biso   1.000  O
  O26      1.0000 0.87380  0.61029  0.35520  Biso   1.000  O
  O27      1.0000 0.73620  0.51603  0.28220  Biso   1.000  O
  O28      1.0000 0.28030  0.58748  0.54570  Biso   1.000  O
  O29      1.0000 0.34540  0.70386  0.54910  Biso   1.000  O
  O30      1.0000 0.44070  0.63381  0.68430  Biso   1.000  O
  O31      1.0000 0.29550  0.93099  0.60930  Biso   1.000  O
  O32      1.0000 0.38100  0.83909  0.52990  Biso   1.000  O
  O33      1.0000 0.41750  0.84194  0.70560  Biso   1.000  O
  O34      1.0000 0.98650  0.03885  0.70920  Biso   1.000  O
  O35      1.0000 0.92300  0.03075  0.53960  Biso   1.000  O
  O36      1.0000 0.83500  0.12251  0.62140  Biso   1.000  O
  C25      1.0000 0.68110  0.57650  0.42800  Biso   1.000  C
  C26      1.0000 0.55810  0.56390  0.38650  Biso   1.000  C
  H17      1.0000 0.53470  0.54280  0.32690  Biso   1.000  H
  C27      1.0000 0.46920  0.58190  0.43140  Biso   1.000  C
  H18      1.0000 0.38490  0.57370  0.40170  Biso   1.000  H
  C28      1.0000 0.50130  0.61180  0.51930  Biso   1.000  C
  C29      1.0000 0.62650  0.62370  0.56120  Biso   1.000  C
  H19      1.0000 0.65060  0.64400  0.62140  Biso   1.000  H
  C30      1.0000 0.71470  0.60620  0.51610  Biso   1.000  C
  H20      1.0000 0.79910  0.61450  0.54530  Biso   1.000  H
  C31      1.0000 0.53550  0.93010  0.62280  Biso   1.000  C
  C32      1.0000 0.64700  0.90150  0.62180  Biso   1.000  C
  H21      1.0000 0.65170  0.85610  0.61860  Biso   1.000  H
  C33      1.0000 0.75140  0.93800  0.62540  Biso   1.000  C
  H22      1.0000 0.82710  0.91760  0.62570  Biso   1.000  H
  C34      1.0000 0.74490  0.00460  0.62860  Biso   1.000  C
  C35      1.0000 0.63430  0.03320  0.62880  Biso   1.000  C
  H23      1.0000 0.62910  0.07860  0.63080  Biso   1.000  H
  C36      1.0000 0.53030  0.99630  0.62590  Biso   1.000  C
  H24      1.0000 0.45490  0.01690  0.62610  Biso   1.000  H
  U10      1.0000 0.27642  0.27507  0.06040  Biso   1.000  U
  U11      1.0000 0.42326  0.08115  0.03737  Biso   1.000  U
  U12      1.0000 0.87319  0.01427  0.37337  Biso   1.000  U
  P13      1.0000 0.70307  0.05221  0.12910  Biso   1.000  P
  P14      1.0000 0.10175  0.38400  0.88697  Biso   1.000  P
  P15      1.0000 0.11692  0.13564  0.92618  Biso   1.000  P
  P16      1.0000 0.62499  0.55358  0.87525  Biso   1.000  P
  F4       1.0000 0.36430  0.17288  0.09540  Biso   1.000  F
  O37      1.0000 0.60770  0.01175  0.05750  Biso   1.000  O
  O38      1.0000 0.62620  0.11029  0.14480  Biso   1.000  O
  O39      1.0000 0.76380  0.01603  0.21780  Biso   1.000  O
  O40      1.0000 0.21970  0.08748  0.95430  Biso   1.000  O
  O41      1.0000 0.15460  0.20386  0.95090  Biso   1.000  O
  O42      1.0000 0.05930  0.13381  0.81570  Biso   1.000  O
  O43      1.0000 0.20450  0.43099  0.89070  Biso   1.000  O
  O44      1.0000 0.11900  0.33909  0.97010  Biso   1.000  O
  O45      1.0000 0.08250  0.34194  0.79440  Biso   1.000  O
  O46      1.0000 0.51350  0.53885  0.79080  Biso   1.000  O
  O47      1.0000 0.57700  0.53075  0.96040  Biso   1.000  O
  O48      1.0000 0.66500  0.62251  0.87860  Biso   1.000  O
  C37      1.0000 0.81890  0.07650  0.07200  Biso   1.000  C
  C38      1.0000 0.94190  0.06390  0.11350  Biso   1.000  C
  H25      1.0000 0.96530  0.04280  0.17310  Biso   1.000  H
  C39      1.0000 0.03080  0.08190  0.06860  Biso   1.000  C
  H26      1.0000 0.11510  0.07370  0.09830  Biso   1.000  H
  C40      1.0000 0.99870  0.11180  0.98070  Biso   1.000  C
  C41      1.0000 0.87350  0.12370  0.93880  Biso   1.000  C
  H27      1.0000 0.84940  0.14400  0.87860  Biso   1.000  H
  C42      1.0000 0.78530  0.10620  0.98390  Biso   1.000  C
  H28      1.0000 0.70090  0.11450  0.95470  Biso   1.000  H
  C43      1.0000 0.96450  0.43010  0.87720  Biso   1.000  C
  C44      1.0000 0.85300  0.40150  0.87820  Biso   1.000  C
  H29      1.0000 0.84830  0.35610  0.88140  Biso   1.000  H
  C45      1.0000 0.74860  0.43800  0.87460  Biso   1.000  C
  H30      1.0000 0.67290  0.41760  0.87430  Biso   1.000  H
  C46      1.0000 0.75510  0.50460  0.87140  Biso   1.000  C
  C47      1.0000 0.86570  0.53320  0.87120  Biso   1.000  C
  H31      1.0000 0.87090  0.57860  0.86920  Biso   1.000  H
  C48      1.0000 0.96970  0.49630  0.87410  Biso   1.000  C
  H32      1.0000 0.04510  0.51690  0.87390  Biso   1.000  H
