data_image0
_cell_length_a       8.5409
_cell_length_b       19.1605
_cell_length_c       11.3037
_cell_angle_alpha    90
_cell_angle_beta     110.327
_cell_angle_gamma    90

_symmetry_space_group_name_H-M    "P 1"
_symmetry_int_tables_number       1

loop_
  _symmetry_equiv_pos_as_xyz
  'x, y, z'

loop_
  _atom_site_label
  _atom_site_occupancy
  _atom_site_fract_x
  _atom_site_fract_y
  _atom_site_fract_z
  _atom_site_thermal_displace_type
  _atom_site_B_iso_or_equiv
  _atom_site_type_symbol
  U1       1.0000 0.77227  0.50791  0.01616  Biso   1.000  U
  P1       1.0000 0.76597  0.61555  0.29046  Biso   1.000  P
  P2       1.0000 0.80105  0.43609  0.77488  Biso   1.000  P
  O1       1.0000 0.88460  0.67596  0.32430  Biso   1.000  O
  O2       1.0000 0.78950  0.56419  0.19650  Biso   1.000  O
  O3       1.0000 0.58160  0.64463  0.23690  Biso   1.000  O
  O4       1.0000 0.82590  0.36145  0.74540  Biso   1.000  O
  O5       1.0000 0.94080  0.46688  0.89100  Biso   1.000  O
  O6       1.0000 0.64570  0.44823  0.81250  Biso   1.000  O
  C1       1.0000 0.77980  0.56603  0.42850  Biso   1.000  C
  C2       1.0000 0.80690  0.59870  0.54420  Biso   1.000  C
  H1       1.0000 0.82160  0.64790  0.55090  Biso   1.000  H
  C3       1.0000 0.81270  0.56040  0.64900  Biso   1.000  C
  H2       1.0000 0.83160  0.58320  0.72740  Biso   1.000  H
  C4       1.0000 0.79080  0.48784  0.64020  Biso   1.000  C
  C5       1.0000 0.76710  0.45500  0.52580  Biso   1.000  C
  H3       1.0000 0.75480  0.40580  0.51960  Biso   1.000  H
  C6       1.0000 0.76110  0.49380  0.42000  Biso   1.000  C
  H4       1.0000 0.74430  0.47090  0.34200  Biso   1.000  H
  U2       1.0000 0.22773  0.00791  0.98384  Biso   1.000  U
  P3       1.0000 0.23403  0.11555  0.70954  Biso   1.000  P
  P4       1.0000 0.19895  0.93609  0.22512  Biso   1.000  P
  O7       1.0000 0.11540  0.17596  0.67570  Biso   1.000  O
  O8       1.0000 0.21050  0.06419  0.80350  Biso   1.000  O
  O9       1.0000 0.41840  0.14463  0.76310  Biso   1.000  O
  O10      1.0000 0.17410  0.86145  0.25460  Biso   1.000  O
  O11      1.0000 0.05920  0.96688  0.10900  Biso   1.000  O
  O12      1.0000 0.35430  0.94823  0.18750  Biso   1.000  O
  C7       1.0000 0.22020  0.06603  0.57150  Biso   1.000  C
  C8       1.0000 0.19310  0.09870  0.45580  Biso   1.000  C
  H5       1.0000 0.17840  0.14790  0.44910  Biso   1.000  H
  C9       1.0000 0.18730  0.06040  0.35100  Biso   1.000  C
  H6       1.0000 0.16840  0.08320  0.27260  Biso   1.000  H
  C10      1.0000 0.20920  0.98784  0.35980  Biso   1.000  C
  C11      1.0000 0.23290  0.95500  0.47420  Biso   1.000  C
  H7       1.0000 0.24520  0.90580  0.48040  Biso   1.000  H
  C12      1.0000 0.23890  0.99380  0.58000  Biso   1.000  C
  H8       1.0000 0.25570  0.97090  0.65800  Biso   1.000  H
  U3       1.0000 0.22773  0.49209  0.98384  Biso   1.000  U
  P5       1.0000 0.23403  0.38445  0.70954  Biso   1.000  P
  P6       1.0000 0.19895  0.56391  0.22512  Biso   1.000  P
  O13      1.0000 0.11540  0.32404  0.67570  Biso   1.000  O
  O14      1.0000 0.21050  0.43581  0.80350  Biso   1.000  O
  O15      1.0000 0.41840  0.35537  0.76310  Biso   1.000  O
  O16      1.0000 0.17410  0.63855  0.25460  Biso   1.000  O
  O17      1.0000 0.05920  0.53312  0.10900  Biso   1.000  O
  O18      1.0000 0.35430  0.55177  0.18750  Biso   1.000  O
  C13      1.0000 0.22020  0.43397  0.57150  Biso   1.000  C
  C14      1.0000 0.19310  0.40130  0.45580  Biso   1.000  C
  H9       1.0000 0.17840  0.35210  0.44910  Biso   1.000  H
  C15      1.0000 0.18730  0.43960  0.35100  Biso   1.000  C
  H10      1.0000 0.16840  0.41680  0.27260  Biso   1.000  H
  C16      1.0000 0.20920  0.51216  0.35980  Biso   1.000  C
  C17      1.0000 0.23290  0.54500  0.47420  Biso   1.000  C
  H11      1.0000 0.24520  0.59420  0.48040  Biso   1.000  H
  C18      1.0000 0.23890  0.50620  0.58000  Biso   1.000  C
  H12      1.0000 0.25570  0.52910  0.65800  Biso   1.000  H
  U4       1.0000 0.77227  0.99209  0.01616  Biso   1.000  U
  P7       1.0000 0.76597  0.88445  0.29046  Biso   1.000  P
  P8       1.0000 0.80105  0.06391  0.77488  Biso   1.000  P
  O19      1.0000 0.88460  0.82404  0.32430  Biso   1.000  O
  O20      1.0000 0.78950  0.93581  0.19650  Biso   1.000  O
  O21      1.0000 0.58160  0.85537  0.23690  Biso   1.000  O
  O22      1.0000 0.82590  0.13855  0.74540  Biso   1.000  O
  O23      1.0000 0.94080  0.03312  0.89100  Biso   1.000  O
  O24      1.0000 0.64570  0.05177  0.81250  Biso   1.000  O
  C19      1.0000 0.77980  0.93397  0.42850  Biso   1.000  C
  C20      1.0000 0.80690  0.90130  0.54420  Biso   1.000  C
  H13      1.0000 0.82160  0.85210  0.55090  Biso   1.000  H
  C21      1.0000 0.81270  0.93960  0.64900  Biso   1.000  C
  H14      1.0000 0.83160  0.91680  0.72740  Biso   1.000  H
  C22      1.0000 0.79080  0.01216  0.64020  Biso   1.000  C
  C23      1.0000 0.76710  0.04500  0.52580  Biso   1.000  C
  H15      1.0000 0.75480  0.09420  0.51960  Biso   1.000  H
  C24      1.0000 0.76110  0.00620  0.42000  Biso   1.000  C
  H16      1.0000 0.74430  0.02910  0.34200  Biso   1.000  H
  U5       1.0000 0.07705  0.75000  0.28024  Biso   1.000  U
  U6       1.0000 0.92295  0.25000  0.71976  Biso   1.000  U
  F1       1.0000 0.50000  0.50000  0.00000  Biso   1.000  F
  F2       1.0000 0.50000  0.00000  0.00000  Biso   1.000  F
