data_image0
_cell_length_a       15.4939
_cell_length_b       15.4939
_cell_length_c       12.3121
_cell_angle_alpha    90
_cell_angle_beta     90
_cell_angle_gamma    90

_symmetry_space_group_name_H-M    "P 1"
_symmetry_int_tables_number       1

loop_
  _symmetry_equiv_pos_as_xyz
  'x, y, z'

loop_
  _atom_site_label
  _atom_site_occupancy
  _atom_site_fract_x
  _atom_site_fract_y
  _atom_site_fract_z
  _atom_site_thermal_displace_type
  _atom_site_B_iso_or_equiv
  _atom_site_type_symbol
  O1       1.0000 0.61190  0.38120  0.61650  Biso   1.000  O
  O2       1.0000 0.59380  0.29240  0.75340  Biso   1.000  O
  C1       1.0000 0.58400  0.36380  0.70870  Biso   1.000  C
  C2       1.0000 0.53713  0.43092  0.76779  Biso   1.000  C
  C3       1.0000 0.53713  0.43092  0.88175  Biso   1.000  C
  H1       1.0000 0.56490  0.37920  0.92440  Biso   1.000  H
  O3       1.0000 0.11190  0.88120  0.11650  Biso   1.000  O
  O4       1.0000 0.09380  0.79240  0.25340  Biso   1.000  O
  C4       1.0000 0.08400  0.86380  0.20870  Biso   1.000  C
  C5       1.0000 0.03713  0.93092  0.26779  Biso   1.000  C
  C6       1.0000 0.03713  0.93092  0.38175  Biso   1.000  C
  H2       1.0000 0.06490  0.87920  0.42440  Biso   1.000  H
  O5       1.0000 0.88810  0.11880  0.11650  Biso   1.000  O
  O6       1.0000 0.90620  0.20760  0.25340  Biso   1.000  O
  C7       1.0000 0.91600  0.13620  0.20870  Biso   1.000  C
  C8       1.0000 0.96287  0.06908  0.26779  Biso   1.000  C
  C9       1.0000 0.96287  0.06908  0.38175  Biso   1.000  C
  H3       1.0000 0.93510  0.12080  0.42440  Biso   1.000  H
  O7       1.0000 0.38810  0.61880  0.61650  Biso   1.000  O
  O8       1.0000 0.40620  0.70760  0.75340  Biso   1.000  O
  C10      1.0000 0.41600  0.63620  0.70870  Biso   1.000  C
  C11      1.0000 0.46287  0.56908  0.76779  Biso   1.000  C
  C12      1.0000 0.46287  0.56908  0.88175  Biso   1.000  C
  H4       1.0000 0.43510  0.62080  0.92440  Biso   1.000  H
  O9       1.0000 0.61880  0.11190  0.86650  Biso   1.000  O
  O10      1.0000 0.70760  0.09380  0.00340  Biso   1.000  O
  C13      1.0000 0.63620  0.08400  0.95870  Biso   1.000  C
  C14      1.0000 0.56908  0.03713  0.01779  Biso   1.000  C
  C15      1.0000 0.56908  0.03713  0.13175  Biso   1.000  C
  H5       1.0000 0.62080  0.06490  0.17440  Biso   1.000  H
  O11      1.0000 0.11880  0.61190  0.36650  Biso   1.000  O
  O12      1.0000 0.20760  0.59380  0.50340  Biso   1.000  O
  C16      1.0000 0.13620  0.58400  0.45870  Biso   1.000  C
  C17      1.0000 0.06908  0.53713  0.51779  Biso   1.000  C
  C18      1.0000 0.06908  0.53713  0.63175  Biso   1.000  C
  H6       1.0000 0.12080  0.56490  0.67440  Biso   1.000  H
  O13      1.0000 0.88120  0.38810  0.36650  Biso   1.000  O
  O14      1.0000 0.79240  0.40620  0.50340  Biso   1.000  O
  C19      1.0000 0.86380  0.41600  0.45870  Biso   1.000  C
  C20      1.0000 0.93092  0.46287  0.51779  Biso   1.000  C
  C21      1.0000 0.93092  0.46287  0.63175  Biso   1.000  C
  H7       1.0000 0.87920  0.43510  0.67440  Biso   1.000  H
  O15      1.0000 0.38120  0.88810  0.86650  Biso   1.000  O
  O16      1.0000 0.29240  0.90620  0.00340  Biso   1.000  O
  C22      1.0000 0.36380  0.91600  0.95870  Biso   1.000  C
  C23      1.0000 0.43092  0.96287  0.01779  Biso   1.000  C
  C24      1.0000 0.43092  0.96287  0.13175  Biso   1.000  C
  H8       1.0000 0.37920  0.93510  0.17440  Biso   1.000  H
  O17      1.0000 0.88810  0.38120  0.13350  Biso   1.000  O
  O18      1.0000 0.90620  0.29240  0.99660  Biso   1.000  O
  C25      1.0000 0.91600  0.36380  0.04130  Biso   1.000  C
  C26      1.0000 0.96287  0.43092  0.98221  Biso   1.000  C
  C27      1.0000 0.96287  0.43092  0.86825  Biso   1.000  C
  H9       1.0000 0.93510  0.37920  0.82560  Biso   1.000  H
  O19      1.0000 0.38810  0.88120  0.63350  Biso   1.000  O
  O20      1.0000 0.40620  0.79240  0.49660  Biso   1.000  O
  C28      1.0000 0.41600  0.86380  0.54130  Biso   1.000  C
  C29      1.0000 0.46287  0.93092  0.48221  Biso   1.000  C
  C30      1.0000 0.46287  0.93092  0.36825  Biso   1.000  C
  H10      1.0000 0.43510  0.87920  0.32560  Biso   1.000  H
  O21      1.0000 0.61190  0.11880  0.63350  Biso   1.000  O
  O22      1.0000 0.59380  0.20760  0.49660  Biso   1.000  O
  C31      1.0000 0.58400  0.13620  0.54130  Biso   1.000  C
  C32      1.0000 0.53713  0.06908  0.48221  Biso   1.000  C
  C33      1.0000 0.53713  0.06908  0.36825  Biso   1.000  C
  H11      1.0000 0.56490  0.12080  0.32560  Biso   1.000  H
  O23      1.0000 0.11190  0.61880  0.13350  Biso   1.000  O
  O24      1.0000 0.09380  0.70760  0.99660  Biso   1.000  O
  C34      1.0000 0.08400  0.63620  0.04130  Biso   1.000  C
  C35      1.0000 0.03713  0.56908  0.98221  Biso   1.000  C
  C36      1.0000 0.03713  0.56908  0.86825  Biso   1.000  C
  H12      1.0000 0.06490  0.62080  0.82560  Biso   1.000  H
  O25      1.0000 0.88120  0.11190  0.88350  Biso   1.000  O
  O26      1.0000 0.79240  0.09380  0.74660  Biso   1.000  O
  C37      1.0000 0.86380  0.08400  0.79130  Biso   1.000  C
  C38      1.0000 0.93092  0.03713  0.73221  Biso   1.000  C
  C39      1.0000 0.93092  0.03713  0.61825  Biso   1.000  C
  H13      1.0000 0.87920  0.06490  0.57560  Biso   1.000  H
  O27      1.0000 0.38120  0.61190  0.38350  Biso   1.000  O
  O28      1.0000 0.29240  0.59380  0.24660  Biso   1.000  O
  C40      1.0000 0.36380  0.58400  0.29130  Biso   1.000  C
  C41      1.0000 0.43092  0.53713  0.23221  Biso   1.000  C
  C42      1.0000 0.43092  0.53713  0.11825  Biso   1.000  C
  H14      1.0000 0.37920  0.56490  0.07560  Biso   1.000  H
  O29      1.0000 0.61880  0.38810  0.38350  Biso   1.000  O
  O30      1.0000 0.70760  0.40620  0.24660  Biso   1.000  O
  C43      1.0000 0.63620  0.41600  0.29130  Biso   1.000  C
  C44      1.0000 0.56908  0.46287  0.23221  Biso   1.000  C
  C45      1.0000 0.56908  0.46287  0.11825  Biso   1.000  C
  H15      1.0000 0.62080  0.43510  0.07560  Biso   1.000  H
  O31      1.0000 0.11880  0.88810  0.88350  Biso   1.000  O
  O32      1.0000 0.20760  0.90620  0.74660  Biso   1.000  O
  C46      1.0000 0.13620  0.91600  0.79130  Biso   1.000  C
  C47      1.0000 0.06908  0.96287  0.73221  Biso   1.000  C
  C48      1.0000 0.06908  0.96287  0.61825  Biso   1.000  C
  H16      1.0000 0.12080  0.93510  0.57560  Biso   1.000  H
  In1      1.0000 0.68670  0.31330  0.50000  Biso   1.000  In
  In2      1.0000 0.18670  0.81330  0.00000  Biso   1.000  In
  In3      1.0000 0.81330  0.18670  0.00000  Biso   1.000  In
  In4      1.0000 0.31330  0.68670  0.50000  Biso   1.000  In
  In5      1.0000 0.68670  0.18670  0.75000  Biso   1.000  In
  In6      1.0000 0.18670  0.68670  0.25000  Biso   1.000  In
  In7      1.0000 0.81330  0.31330  0.25000  Biso   1.000  In
  In8      1.0000 0.31330  0.81330  0.75000  Biso   1.000  In
  O33      1.0000 0.75760  0.25000  0.62500  Biso   1.000  O
  H17      1.0000 0.81570  0.25000  0.62500  Biso   1.000  H
  O34      1.0000 0.25760  0.75000  0.12500  Biso   1.000  O
  H18      1.0000 0.31570  0.75000  0.12500  Biso   1.000  H
  O35      1.0000 0.74240  0.25000  0.12500  Biso   1.000  O
  H19      1.0000 0.68430  0.25000  0.12500  Biso   1.000  H
  O36      1.0000 0.24240  0.75000  0.62500  Biso   1.000  O
  H20      1.0000 0.18430  0.75000  0.62500  Biso   1.000  H
  O37      1.0000 0.75000  0.25760  0.87500  Biso   1.000  O
  H21      1.0000 0.75000  0.31570  0.87500  Biso   1.000  H
  O38      1.0000 0.25000  0.75760  0.37500  Biso   1.000  O
  H22      1.0000 0.25000  0.81570  0.37500  Biso   1.000  H
  O39      1.0000 0.75000  0.24240  0.37500  Biso   1.000  O
  H23      1.0000 0.75000  0.18430  0.37500  Biso   1.000  H
  O40      1.0000 0.25000  0.74240  0.87500  Biso   1.000  O
  H24      1.0000 0.25000  0.68430  0.87500  Biso   1.000  H
  C49      1.0000 0.50000  0.50000  0.71080  Biso   1.000  C
  C50      1.0000 0.50000  0.50000  0.93874  Biso   1.000  C
  H25      1.0000 0.50000  0.50000  0.62550  Biso   1.000  H
  C51      1.0000 0.00000  0.00000  0.21080  Biso   1.000  C
  C52      1.0000 0.00000  0.00000  0.43874  Biso   1.000  C
  H26      1.0000 0.00000  0.00000  0.12550  Biso   1.000  H
  C53      1.0000 0.50000  0.00000  0.96080  Biso   1.000  C
  C54      1.0000 0.50000  0.00000  0.18874  Biso   1.000  C
  H27      1.0000 0.50000  0.00000  0.87550  Biso   1.000  H
  C55      1.0000 0.00000  0.50000  0.46080  Biso   1.000  C
  C56      1.0000 0.00000  0.50000  0.68874  Biso   1.000  C
  H28      1.0000 0.00000  0.50000  0.37550  Biso   1.000  H
  C57      1.0000 0.00000  0.50000  0.03920  Biso   1.000  C
  C58      1.0000 0.00000  0.50000  0.81126  Biso   1.000  C
  H29      1.0000 0.00000  0.50000  0.12450  Biso   1.000  H
  C59      1.0000 0.50000  0.00000  0.53920  Biso   1.000  C
  C60      1.0000 0.50000  0.00000  0.31126  Biso   1.000  C
  H30      1.0000 0.50000  0.00000  0.62450  Biso   1.000  H
  C61      1.0000 0.00000  0.00000  0.78920  Biso   1.000  C
  C62      1.0000 0.00000  0.00000  0.56126  Biso   1.000  C
  H31      1.0000 0.00000  0.00000  0.87450  Biso   1.000  H
  C63      1.0000 0.50000  0.50000  0.28920  Biso   1.000  C
  C64      1.0000 0.50000  0.50000  0.06126  Biso   1.000  C
  H32      1.0000 0.50000  0.50000  0.37450  Biso   1.000  H
