data_image0
_cell_length_a       15.4889
_cell_length_b       15.4889
_cell_length_c       12.3083
_cell_angle_alpha    90
_cell_angle_beta     90
_cell_angle_gamma    90

_symmetry_space_group_name_H-M    "P 1"
_symmetry_int_tables_number       1

loop_
  _symmetry_equiv_pos_as_xyz
  'x, y, z'

loop_
  _atom_site_label
  _atom_site_occupancy
  _atom_site_fract_x
  _atom_site_fract_y
  _atom_site_fract_z
  _atom_site_thermal_displace_type
  _atom_site_B_iso_or_equiv
  _atom_site_type_symbol
  O1       1.0000 0.61180  0.37970  0.61660  Biso   1.000  O
  O2       1.0000 0.59240  0.29340  0.75310  Biso   1.000  O
  C1       1.0000 0.58460  0.36420  0.70870  Biso   1.000  C
  C2       1.0000 0.54133  0.43280  0.76760  Biso   1.000  C
  C3       1.0000 0.54133  0.43280  0.88230  Biso   1.000  C
  H1       1.0000 0.57210  0.38280  0.92490  Biso   1.000  H
  O3       1.0000 0.11180  0.87970  0.11660  Biso   1.000  O
  O4       1.0000 0.09240  0.79340  0.25310  Biso   1.000  O
  C4       1.0000 0.08460  0.86420  0.20870  Biso   1.000  C
  C5       1.0000 0.04133  0.93280  0.26760  Biso   1.000  C
  C6       1.0000 0.04133  0.93280  0.38230  Biso   1.000  C
  H2       1.0000 0.07210  0.88280  0.42490  Biso   1.000  H
  O5       1.0000 0.88820  0.12030  0.11660  Biso   1.000  O
  O6       1.0000 0.90760  0.20660  0.25310  Biso   1.000  O
  C7       1.0000 0.91540  0.13580  0.20870  Biso   1.000  C
  C8       1.0000 0.95867  0.06720  0.26760  Biso   1.000  C
  C9       1.0000 0.95867  0.06720  0.38230  Biso   1.000  C
  H3       1.0000 0.92790  0.11720  0.42490  Biso   1.000  H
  O7       1.0000 0.38820  0.62030  0.61660  Biso   1.000  O
  O8       1.0000 0.40760  0.70660  0.75310  Biso   1.000  O
  C10      1.0000 0.41540  0.63580  0.70870  Biso   1.000  C
  C11      1.0000 0.45867  0.56720  0.76760  Biso   1.000  C
  C12      1.0000 0.45867  0.56720  0.88230  Biso   1.000  C
  H4       1.0000 0.42790  0.61720  0.92490  Biso   1.000  H
  O9       1.0000 0.62030  0.11180  0.86660  Biso   1.000  O
  O10      1.0000 0.70660  0.09240  0.00310  Biso   1.000  O
  C13      1.0000 0.63580  0.08460  0.95870  Biso   1.000  C
  C14      1.0000 0.56720  0.04133  0.01760  Biso   1.000  C
  C15      1.0000 0.56720  0.04133  0.13230  Biso   1.000  C
  H5       1.0000 0.61720  0.07210  0.17490  Biso   1.000  H
  O11      1.0000 0.12030  0.61180  0.36660  Biso   1.000  O
  O12      1.0000 0.20660  0.59240  0.50310  Biso   1.000  O
  C16      1.0000 0.13580  0.58460  0.45870  Biso   1.000  C
  C17      1.0000 0.06720  0.54133  0.51760  Biso   1.000  C
  C18      1.0000 0.06720  0.54133  0.63230  Biso   1.000  C
  H6       1.0000 0.11720  0.57210  0.67490  Biso   1.000  H
  O13      1.0000 0.87970  0.38820  0.36660  Biso   1.000  O
  O14      1.0000 0.79340  0.40760  0.50310  Biso   1.000  O
  C19      1.0000 0.86420  0.41540  0.45870  Biso   1.000  C
  C20      1.0000 0.93280  0.45867  0.51760  Biso   1.000  C
  C21      1.0000 0.93280  0.45867  0.63230  Biso   1.000  C
  H7       1.0000 0.88280  0.42790  0.67490  Biso   1.000  H
  O15      1.0000 0.37970  0.88820  0.86660  Biso   1.000  O
  O16      1.0000 0.29340  0.90760  0.00310  Biso   1.000  O
  C22      1.0000 0.36420  0.91540  0.95870  Biso   1.000  C
  C23      1.0000 0.43280  0.95867  0.01760  Biso   1.000  C
  C24      1.0000 0.43280  0.95867  0.13230  Biso   1.000  C
  H8       1.0000 0.38280  0.92790  0.17490  Biso   1.000  H
  O17      1.0000 0.88820  0.37970  0.13340  Biso   1.000  O
  O18      1.0000 0.90760  0.29340  0.99690  Biso   1.000  O
  C25      1.0000 0.91540  0.36420  0.04130  Biso   1.000  C
  C26      1.0000 0.95867  0.43280  0.98240  Biso   1.000  C
  C27      1.0000 0.95867  0.43280  0.86770  Biso   1.000  C
  H9       1.0000 0.92790  0.38280  0.82510  Biso   1.000  H
  O19      1.0000 0.38820  0.87970  0.63340  Biso   1.000  O
  O20      1.0000 0.40760  0.79340  0.49690  Biso   1.000  O
  C28      1.0000 0.41540  0.86420  0.54130  Biso   1.000  C
  C29      1.0000 0.45867  0.93280  0.48240  Biso   1.000  C
  C30      1.0000 0.45867  0.93280  0.36770  Biso   1.000  C
  H10      1.0000 0.42790  0.88280  0.32510  Biso   1.000  H
  O21      1.0000 0.61180  0.12030  0.63340  Biso   1.000  O
  O22      1.0000 0.59240  0.20660  0.49690  Biso   1.000  O
  C31      1.0000 0.58460  0.13580  0.54130  Biso   1.000  C
  C32      1.0000 0.54133  0.06720  0.48240  Biso   1.000  C
  C33      1.0000 0.54133  0.06720  0.36770  Biso   1.000  C
  H11      1.0000 0.57210  0.11720  0.32510  Biso   1.000  H
  O23      1.0000 0.11180  0.62030  0.13340  Biso   1.000  O
  O24      1.0000 0.09240  0.70660  0.99690  Biso   1.000  O
  C34      1.0000 0.08460  0.63580  0.04130  Biso   1.000  C
  C35      1.0000 0.04133  0.56720  0.98240  Biso   1.000  C
  C36      1.0000 0.04133  0.56720  0.86770  Biso   1.000  C
  H12      1.0000 0.07210  0.61720  0.82510  Biso   1.000  H
  O25      1.0000 0.87970  0.11180  0.88340  Biso   1.000  O
  O26      1.0000 0.79340  0.09240  0.74690  Biso   1.000  O
  C37      1.0000 0.86420  0.08460  0.79130  Biso   1.000  C
  C38      1.0000 0.93280  0.04133  0.73240  Biso   1.000  C
  C39      1.0000 0.93280  0.04133  0.61770  Biso   1.000  C
  H13      1.0000 0.88280  0.07210  0.57510  Biso   1.000  H
  O27      1.0000 0.37970  0.61180  0.38340  Biso   1.000  O
  O28      1.0000 0.29340  0.59240  0.24690  Biso   1.000  O
  C40      1.0000 0.36420  0.58460  0.29130  Biso   1.000  C
  C41      1.0000 0.43280  0.54133  0.23240  Biso   1.000  C
  C42      1.0000 0.43280  0.54133  0.11770  Biso   1.000  C
  H14      1.0000 0.38280  0.57210  0.07510  Biso   1.000  H
  O29      1.0000 0.62030  0.38820  0.38340  Biso   1.000  O
  O30      1.0000 0.70660  0.40760  0.24690  Biso   1.000  O
  C43      1.0000 0.63580  0.41540  0.29130  Biso   1.000  C
  C44      1.0000 0.56720  0.45867  0.23240  Biso   1.000  C
  C45      1.0000 0.56720  0.45867  0.11770  Biso   1.000  C
  H15      1.0000 0.61720  0.42790  0.07510  Biso   1.000  H
  O31      1.0000 0.12030  0.88820  0.88340  Biso   1.000  O
  O32      1.0000 0.20660  0.90760  0.74690  Biso   1.000  O
  C46      1.0000 0.13580  0.91540  0.79130  Biso   1.000  C
  C47      1.0000 0.06720  0.95867  0.73240  Biso   1.000  C
  C48      1.0000 0.06720  0.95867  0.61770  Biso   1.000  C
  H16      1.0000 0.11720  0.92790  0.57510  Biso   1.000  H
  In1      1.0000 0.68420  0.31580  0.50000  Biso   1.000  In
  In2      1.0000 0.18420  0.81580  0.00000  Biso   1.000  In
  In3      1.0000 0.81580  0.18420  0.00000  Biso   1.000  In
  In4      1.0000 0.31580  0.68420  0.50000  Biso   1.000  In
  In5      1.0000 0.68420  0.18420  0.75000  Biso   1.000  In
  In6      1.0000 0.18420  0.68420  0.25000  Biso   1.000  In
  In7      1.0000 0.81580  0.31580  0.25000  Biso   1.000  In
  In8      1.0000 0.31580  0.81580  0.75000  Biso   1.000  In
  O33      1.0000 0.76080  0.25000  0.62500  Biso   1.000  O
  H17      1.0000 0.81890  0.25000  0.62500  Biso   1.000  H
  O34      1.0000 0.26080  0.75000  0.12500  Biso   1.000  O
  H18      1.0000 0.31890  0.75000  0.12500  Biso   1.000  H
  O35      1.0000 0.73920  0.25000  0.12500  Biso   1.000  O
  H19      1.0000 0.68110  0.25000  0.12500  Biso   1.000  H
  O36      1.0000 0.23920  0.75000  0.62500  Biso   1.000  O
  H20      1.0000 0.18110  0.75000  0.62500  Biso   1.000  H
  O37      1.0000 0.75000  0.26080  0.87500  Biso   1.000  O
  H21      1.0000 0.75000  0.31890  0.87500  Biso   1.000  H
  O38      1.0000 0.25000  0.76080  0.37500  Biso   1.000  O
  H22      1.0000 0.25000  0.81890  0.37500  Biso   1.000  H
  O39      1.0000 0.75000  0.23920  0.37500  Biso   1.000  O
  H23      1.0000 0.75000  0.18110  0.37500  Biso   1.000  H
  O40      1.0000 0.25000  0.73920  0.87500  Biso   1.000  O
  H24      1.0000 0.25000  0.68110  0.87500  Biso   1.000  H
  C49      1.0000 0.50000  0.50000  0.71030  Biso   1.000  C
  C50      1.0000 0.50000  0.50000  0.93958  Biso   1.000  C
  H25      1.0000 0.50000  0.50000  0.62500  Biso   1.000  H
  C51      1.0000 0.00000  0.00000  0.21030  Biso   1.000  C
  C52      1.0000 0.00000  0.00000  0.43958  Biso   1.000  C
  H26      1.0000 0.00000  0.00000  0.12500  Biso   1.000  H
  C53      1.0000 0.50000  0.00000  0.96030  Biso   1.000  C
  C54      1.0000 0.50000  0.00000  0.18958  Biso   1.000  C
  H27      1.0000 0.50000  0.00000  0.87500  Biso   1.000  H
  C55      1.0000 0.00000  0.50000  0.46030  Biso   1.000  C
  C56      1.0000 0.00000  0.50000  0.68958  Biso   1.000  C
  H28      1.0000 0.00000  0.50000  0.37500  Biso   1.000  H
  C57      1.0000 0.00000  0.50000  0.03970  Biso   1.000  C
  C58      1.0000 0.00000  0.50000  0.81042  Biso   1.000  C
  H29      1.0000 0.00000  0.50000  0.12500  Biso   1.000  H
  C59      1.0000 0.50000  0.00000  0.53970  Biso   1.000  C
  C60      1.0000 0.50000  0.00000  0.31042  Biso   1.000  C
  H30      1.0000 0.50000  0.00000  0.62500  Biso   1.000  H
  C61      1.0000 0.00000  0.00000  0.78970  Biso   1.000  C
  C62      1.0000 0.00000  0.00000  0.56042  Biso   1.000  C
  H31      1.0000 0.00000  0.00000  0.87500  Biso   1.000  H
  C63      1.0000 0.50000  0.50000  0.28970  Biso   1.000  C
  C64      1.0000 0.50000  0.50000  0.06042  Biso   1.000  C
  H32      1.0000 0.50000  0.50000  0.37500  Biso   1.000  H
