data_image0
_cell_length_a       18.126
_cell_length_b       20.015
_cell_length_c       21.79
_cell_angle_alpha    109.155
_cell_angle_beta     103.794
_cell_angle_gamma    99.7

_symmetry_space_group_name_H-M    "P 1"
_symmetry_int_tables_number       1

loop_
  _symmetry_equiv_pos_as_xyz
  'x, y, z'

loop_
  _atom_site_label
  _atom_site_occupancy
  _atom_site_fract_x
  _atom_site_fract_y
  _atom_site_fract_z
  _atom_site_thermal_displace_type
  _atom_site_B_iso_or_equiv
  _atom_site_type_symbol
  Rh1      1.0000 0.92070  0.90710  0.34740  Biso   1.000  Rh
  Rh2      1.0000 0.55860  0.27010  0.54770  Biso   1.000  Rh
  Zr1      1.0000 0.92559  0.36712  0.94261  Biso   1.000  Zr
  Zr2      1.0000 0.99925  0.49645  0.11132  Biso   1.000  Zr
  Zr3      1.0000 0.12812  0.46769  0.01423  Biso   1.000  Zr
  Cl1      1.0000 0.58320  0.22910  0.44330  Biso   1.000  Cl
  Cl2      1.0000 0.01730  0.02160  0.41300  Biso   1.000  Cl
  P1       1.0000 0.42590  0.24610  0.50850  Biso   1.000  P
  P2       1.0000 0.82960  0.96000  0.30770  Biso   1.000  P
  O1       1.0000 0.04380  0.73200  0.08030  Biso   1.000  O
  C1       1.0000 0.02690  0.76200  0.13560  Biso   1.000  C
  O2       1.0000 0.94990  0.74780  0.12630  Biso   1.000  O
  O3       1.0000 0.02730  0.41680  0.92250  Biso   1.000  O
  O4       1.0000 0.90120  0.44720  0.02160  Biso   1.000  O
  O5       1.0000 0.02770  0.41220  0.03590  Biso   1.000  O
  O6       1.0000 0.10060  0.54420  0.09080  Biso   1.000  O
  O7       1.0000 0.24310  0.55430  0.06390  Biso   1.000  O
  O8       1.0000 0.20400  0.66480  0.09400  Biso   1.000  O
  O9       1.0000 0.18010  0.44980  0.10740  Biso   1.000  O
  O10      1.0000 0.09850  0.46750  0.17180  Biso   1.000  O
  O11      1.0000 0.18250  0.45220  0.92970  Biso   1.000  O
  O12      1.0000 0.10180  0.47560  0.84880  Biso   1.000  O
  O13      1.0000 0.88800  0.31460  0.82430  Biso   1.000  O
  O14      1.0000 0.94270  0.40260  0.79020  Biso   1.000  O
  O15      1.0000 0.94340  0.39290  0.12220  Biso   1.000  O
  O16      1.0000 0.89070  0.31000  0.01040  Biso   1.000  O
  C2       1.0000 0.91070  0.33150  0.07000  Biso   1.000  C
  C3       1.0000 0.16100  0.46210  0.88200  Biso   1.000  C
  C4       1.0000 0.89860  0.26880  0.10210  Biso   1.000  C
  C5       1.0000 0.94020  0.28270  0.16940  Biso   1.000  C
  H1       1.0000 0.97590  0.32950  0.19770  Biso   1.000  H
  C6       1.0000 0.92950  0.22820  0.19530  Biso   1.000  C
  H2       1.0000 0.95790  0.23770  0.24140  Biso   1.000  H
  C7       1.0000 0.87730  0.15980  0.15390  Biso   1.000  C
  C8       1.0000 0.83570  0.14580  0.08660  Biso   1.000  C
  H3       1.0000 0.80000  0.09900  0.05830  Biso   1.000  H
  C9       1.0000 0.84630  0.20030  0.06070  Biso   1.000  C
  H4       1.0000 0.81790  0.19080  0.01460  Biso   1.000  H
  C10      1.0000 0.18500  0.96180  0.29420  Biso   1.000  C
  C11      1.0000 0.21100  0.91800  0.24400  Biso   1.000  C
  H5       1.0000 0.26480  0.93010  0.24630  Biso   1.000  H
  C12      1.0000 0.15800  0.85580  0.19080  Biso   1.000  C
  H6       1.0000 0.17560  0.82580  0.15660  Biso   1.000  H
  C13      1.0000 0.07930  0.83780  0.18750  Biso   1.000  C
  C14      1.0000 0.05360  0.88180  0.23760  Biso   1.000  C
  H7       1.0000 0.99980  0.86940  0.23540  Biso   1.000  H
  C15      1.0000 0.10700  0.94370  0.29090  Biso   1.000  C
  H8       1.0000 0.08900  0.97380  0.32510  Biso   1.000  H
  C16      1.0000 0.68600  0.36500  0.61500  Biso   1.000  C
  H9       1.0000 0.71790  0.39130  0.59300  Biso   1.000  H
  C17      1.0000 0.86700  0.10500  0.18100  Biso   1.000  C
  C18      1.0000 0.92400  0.09000  0.22400  Biso   1.000  C
  H10      1.0000 0.97790  0.11410  0.23290  Biso   1.000  H
  C19      1.0000 0.79400  0.05900  0.17600  Biso   1.000  C
  H11      1.0000 0.74980  0.06090  0.14350  Biso   1.000  H
  C20      1.0000 0.77300  0.01200  0.20800  Biso   1.000  C
  H12      1.0000 0.72080  0.98600  0.20050  Biso   1.000  H
  C21      1.0000 0.90900  0.04300  0.25600  Biso   1.000  C
  H13      1.0000 0.95250  0.03350  0.28320  Biso   1.000  H
  C22      1.0000 0.83400  0.00800  0.24900  Biso   1.000  C
  C23      1.0000 0.36300  0.15100  0.45880  Biso   1.000  C
  C24      1.0000 0.28610  0.13440  0.46050  Biso   1.000  C
  H14      1.0000 0.27180  0.16500  0.49690  Biso   1.000  H
  C25      1.0000 0.23010  0.07290  0.40910  Biso   1.000  C
  H15      1.0000 0.17750  0.06150  0.41030  Biso   1.000  H
  C26      1.0000 0.25100  0.02800  0.35600  Biso   1.000  C
  C27      1.0000 0.32800  0.04470  0.35420  Biso   1.000  C
  H16      1.0000 0.34210  0.01400  0.31790  Biso   1.000  H
  C28      1.0000 0.38380  0.10620  0.40560  Biso   1.000  C
  H17      1.0000 0.43640  0.11760  0.40440  Biso   1.000  H
  C29      1.0000 0.82980  0.01460  0.44110  Biso   1.000  C
  H18      1.0000 0.83640  0.96760  0.43800  Biso   1.000  H
  C30      1.0000 0.82710  0.06400  0.50210  Biso   1.000  C
  H19      1.0000 0.83180  0.05080  0.54070  Biso   1.000  H
  C31      1.0000 0.81740  0.13270  0.50670  Biso   1.000  C
  C32      1.0000 0.81050  0.15210  0.45030  Biso   1.000  C
  H20      1.0000 0.80390  0.19900  0.45340  Biso   1.000  H
  C33      1.0000 0.81330  0.10270  0.38930  Biso   1.000  C
  H21      1.0000 0.80850  0.11590  0.35070  Biso   1.000  H
  C34      1.0000 0.82290  0.03390  0.38470  Biso   1.000  C
  C35      1.0000 0.82940  0.21910  0.69120  Biso   1.000  C
  H22      1.0000 0.81330  0.20360  0.72400  Biso   1.000  H
  C36      1.0000 0.87350  0.29080  0.71070  Biso   1.000  C
  C37      1.0000 0.89690  0.31340  0.66280  Biso   1.000  C
  H23      1.0000 0.92710  0.36240  0.67620  Biso   1.000  H
  C38      1.0000 0.87620  0.26420  0.59540  Biso   1.000  C
  H24      1.0000 0.89230  0.27960  0.56260  Biso   1.000  H
  C39      1.0000 0.83210  0.19250  0.57590  Biso   1.000  C
  C40      1.0000 0.80870  0.16990  0.62380  Biso   1.000  C
  H25      1.0000 0.77850  0.12090  0.61050  Biso   1.000  H
  C41      1.0000 0.90500  0.34000  0.78500  Biso   1.000  C
  C42      1.0000 0.72280  0.90200  0.26810  Biso   1.000  C
  C43      1.0000 0.70700  0.84300  0.20200  Biso   1.000  C
  H26      1.0000 0.74570  0.83810  0.17990  Biso   1.000  H
  C44      1.0000 0.63100  0.79370  0.17280  Biso   1.000  C
  H27      1.0000 0.61700  0.75380  0.13000  Biso   1.000  H
  C45      1.0000 0.57600  0.80520  0.20890  Biso   1.000  C
  C46      1.0000 0.58900  0.86700  0.27300  Biso   1.000  C
  H28      1.0000 0.54820  0.87610  0.29270  Biso   1.000  H
  C47      1.0000 0.66600  0.91200  0.30200  Biso   1.000  C
  H29      1.0000 0.68020  0.95000  0.34540  Biso   1.000  H
  C48      1.0000 0.43140  0.79320  0.18500  Biso   1.000  C
  H30      1.0000 0.44150  0.84490  0.20690  Biso   1.000  H
  C49      1.0000 0.35430  0.74890  0.15740  Biso   1.000  C
  H31      1.0000 0.31170  0.77040  0.16030  Biso   1.000  H
  C50      1.0000 0.33960  0.67330  0.12540  Biso   1.000  C
  C51      1.0000 0.40200  0.64190  0.12110  Biso   1.000  C
  H32      1.0000 0.39190  0.59020  0.09920  Biso   1.000  H
  C52      1.0000 0.47910  0.68620  0.14880  Biso   1.000  C
  H33      1.0000 0.52170  0.66470  0.14580  Biso   1.000  H
  C53      1.0000 0.49380  0.76180  0.18070  Biso   1.000  C
  C54      1.0000 0.88800  0.79300  0.40000  Biso   1.000  C
  H34      1.0000 0.86240  0.78590  0.43450  Biso   1.000  H
  C55      1.0000 0.25100  0.62440  0.08890  Biso   1.000  C
  C56      1.0000 0.16200  0.44970  0.16080  Biso   1.000  C
  C57      1.0000 0.21010  0.43140  0.21780  Biso   1.000  C
  C58      1.0000 0.18680  0.43420  0.27470  Biso   1.000  C
  H35      1.0000 0.14370  0.45350  0.28160  Biso   1.000  H
  C59      1.0000 0.22660  0.40870  0.32150  Biso   1.000  C
  H36      1.0000 0.21070  0.41060  0.36030  Biso   1.000  H
  C60      1.0000 0.28970  0.38050  0.31130  Biso   1.000  C
  C61      1.0000 0.31300  0.37780  0.25440  Biso   1.000  C
  H37      1.0000 0.35610  0.35850  0.24750  Biso   1.000  H
  C62      1.0000 0.27320  0.40320  0.20760  Biso   1.000  C
  H38      1.0000 0.28920  0.40140  0.16870  Biso   1.000  H
  C63      1.0000 0.38790  0.29040  0.45020  Biso   1.000  C
  C64      1.0000 0.43680  0.32570  0.42350  Biso   1.000  C
  H39      1.0000 0.49180  0.32970  0.43710  Biso   1.000  H
  C65      1.0000 0.40540  0.35520  0.37700  Biso   1.000  C
  H40      1.0000 0.43890  0.37940  0.35870  Biso   1.000  H
  C66      1.0000 0.32500  0.34930  0.35710  Biso   1.000  C
  C67      1.0000 0.27610  0.31400  0.38380  Biso   1.000  C
  H41      1.0000 0.22120  0.31000  0.37030  Biso   1.000  H
  C68      1.0000 0.30750  0.28450  0.43040  Biso   1.000  C
  H42      1.0000 0.27400  0.26030  0.44860  Biso   1.000  H
  C69      1.0000 0.39100  0.29050  0.57870  Biso   1.000  C
  C70      1.0000 0.38950  0.26100  0.62810  Biso   1.000  C
  H43      1.0000 0.40770  0.21860  0.62540  Biso   1.000  H
  C71      1.0000 0.36140  0.29350  0.68140  Biso   1.000  C
  H44      1.0000 0.36040  0.27340  0.71520  Biso   1.000  H
  C72      1.0000 0.33470  0.35550  0.68540  Biso   1.000  C
  C73      1.0000 0.33620  0.38500  0.63600  Biso   1.000  C
  H45      1.0000 0.31800  0.42740  0.63860  Biso   1.000  H
  C74      1.0000 0.36430  0.35240  0.58260  Biso   1.000  C
  H46      1.0000 0.36530  0.37260  0.54880  Biso   1.000  H
  C75      1.0000 0.29200  0.38600  0.73000  Biso   1.000  C
  C76      1.0000 0.29860  0.37110  0.79250  Biso   1.000  C
  H47      1.0000 0.33260  0.34180  0.80170  Biso   1.000  H
  C77      1.0000 0.25950  0.39570  0.83860  Biso   1.000  C
  H48      1.0000 0.26760  0.38380  0.87810  Biso   1.000  H
  C78      1.0000 0.20740  0.43850  0.82750  Biso   1.000  C
  C79      1.0000 0.19800  0.45820  0.77200  Biso   1.000  C
  H49      1.0000 0.16580  0.48860  0.76300  Biso   1.000  H
  C80      1.0000 0.24400  0.42800  0.72800  Biso   1.000  C
  H50      1.0000 0.23680  0.44120  0.68920  Biso   1.000  H
  C81      1.0000 0.97400  0.85600  0.42400  Biso   1.000  C
  H51      1.0000 0.00870  0.88500  0.47210  Biso   1.000  H
  C82      1.0000 0.00200  0.84500  0.35700  Biso   1.000  C
  H52      1.0000 0.05730  0.85860  0.35750  Biso   1.000  H
  C83      1.0000 0.83600  0.80500  0.32700  Biso   1.000  C
  H53      1.0000 0.77890  0.80210  0.31770  Biso   1.000  H
  C84      1.0000 0.93800  0.77100  0.30800  Biso   1.000  C
  H54      1.0000 0.95790  0.74000  0.27290  Biso   1.000  H
  C85      1.0000 0.86600  0.79210  0.27700  Biso   1.000  C
  H55      1.0000 0.83620  0.77420  0.22700  Biso   1.000  H
  C86      1.0000 0.92300  0.73400  0.36000  Biso   1.000  C
  H56      1.0000 0.88550  0.68500  0.33670  Biso   1.000  H
  H57      1.0000 0.97300  0.73150  0.38930  Biso   1.000  H
  C87      1.0000 0.64400  0.40500  0.66400  Biso   1.000  C
  H58      1.0000 0.65460  0.45970  0.68020  Biso   1.000  H
  C88      1.0000 0.56000  0.36000  0.64200  Biso   1.000  C
  H59      1.0000 0.51430  0.38130  0.64640  Biso   1.000  H
  C89      1.0000 0.56900  0.28700  0.65700  Biso   1.000  C
  H60      1.0000 0.53090  0.25870  0.67130  Biso   1.000  H
  C90      1.0000 0.68700  0.37000  0.71500  Biso   1.000  C
  H61      1.0000 0.67040  0.38160  0.75640  Biso   1.000  H
  H62      1.0000 0.74480  0.38730  0.72780  Biso   1.000  H
  C91      1.0000 0.65300  0.28500  0.66600  Biso   1.000  C
  H63      1.0000 0.67050  0.25000  0.68620  Biso   1.000  H
  C92      1.0000 0.67500  0.28200  0.60000  Biso   1.000  C
  H64      1.0000 0.70940  0.25220  0.58150  Biso   1.000  H
  Rh3      1.0000 0.07930  0.09290  0.65260  Biso   1.000  Rh
  Rh4      1.0000 0.44140  0.72990  0.45230  Biso   1.000  Rh
  Zr4      1.0000 0.07441  0.63288  0.05739  Biso   1.000  Zr
  Zr5      1.0000 0.00075  0.50355  0.88868  Biso   1.000  Zr
  Zr6      1.0000 0.87188  0.53231  0.98577  Biso   1.000  Zr
  Cl3      1.0000 0.41680  0.77090  0.55670  Biso   1.000  Cl
  Cl4      1.0000 0.98270  0.97840  0.58700  Biso   1.000  Cl
  P3       1.0000 0.57410  0.75390  0.49150  Biso   1.000  P
  P4       1.0000 0.17040  0.04000  0.69230  Biso   1.000  P
  O17      1.0000 0.95620  0.26800  0.91970  Biso   1.000  O
  C93      1.0000 0.97310  0.23800  0.86440  Biso   1.000  C
  O18      1.0000 0.05010  0.25220  0.87370  Biso   1.000  O
  O19      1.0000 0.97270  0.58320  0.07750  Biso   1.000  O
  O20      1.0000 0.09880  0.55280  0.97840  Biso   1.000  O
  O21      1.0000 0.97230  0.58780  0.96410  Biso   1.000  O
  O22      1.0000 0.89940  0.45580  0.90920  Biso   1.000  O
  O23      1.0000 0.75690  0.44570  0.93610  Biso   1.000  O
  O24      1.0000 0.79600  0.33520  0.90600  Biso   1.000  O
  O25      1.0000 0.81990  0.55020  0.89260  Biso   1.000  O
  O26      1.0000 0.90150  0.53250  0.82820  Biso   1.000  O
  O27      1.0000 0.81750  0.54780  0.07030  Biso   1.000  O
  O28      1.0000 0.89820  0.52440  0.15120  Biso   1.000  O
  O29      1.0000 0.11200  0.68540  0.17570  Biso   1.000  O
  O30      1.0000 0.05730  0.59740  0.20980  Biso   1.000  O
  O31      1.0000 0.05660  0.60710  0.87780  Biso   1.000  O
  O32      1.0000 0.10930  0.69000  0.98960  Biso   1.000  O
  C94      1.0000 0.08930  0.66850  0.93000  Biso   1.000  C
  C95      1.0000 0.83900  0.53790  0.11800  Biso   1.000  C
  C96      1.0000 0.10140  0.73120  0.89790  Biso   1.000  C
  C97      1.0000 0.05980  0.71730  0.83060  Biso   1.000  C
  H65      1.0000 0.02410  0.67050  0.80230  Biso   1.000  H
  C98      1.0000 0.07050  0.77180  0.80470  Biso   1.000  C
  H66      1.0000 0.04210  0.76230  0.75860  Biso   1.000  H
  C99      1.0000 0.12270  0.84020  0.84610  Biso   1.000  C
  C100     1.0000 0.16430  0.85420  0.91340  Biso   1.000  C
  H67      1.0000 0.20000  0.90100  0.94170  Biso   1.000  H
  C101     1.0000 0.15370  0.79970  0.93930  Biso   1.000  C
  H68      1.0000 0.18210  0.80920  0.98540  Biso   1.000  H
  C102     1.0000 0.81500  0.03820  0.70580  Biso   1.000  C
  C103     1.0000 0.78900  0.08200  0.75600  Biso   1.000  C
  H69      1.0000 0.73520  0.06990  0.75370  Biso   1.000  H
  C104     1.0000 0.84200  0.14420  0.80920  Biso   1.000  C
  H70      1.0000 0.82440  0.17420  0.84340  Biso   1.000  H
  C105     1.0000 0.92070  0.16220  0.81250  Biso   1.000  C
  C106     1.0000 0.94640  0.11820  0.76240  Biso   1.000  C
  H71      1.0000 0.00020  0.13060  0.76460  Biso   1.000  H
  C107     1.0000 0.89300  0.05630  0.70910  Biso   1.000  C
  H72      1.0000 0.91100  0.02620  0.67490  Biso   1.000  H
  C108     1.0000 0.31400  0.63500  0.38500  Biso   1.000  C
  H73      1.0000 0.28210  0.60870  0.40700  Biso   1.000  H
  C109     1.0000 0.13300  0.89500  0.81900  Biso   1.000  C
  C110     1.0000 0.07600  0.91000  0.77600  Biso   1.000  C
  H74      1.0000 0.02210  0.88590  0.76710  Biso   1.000  H
  C111     1.0000 0.20600  0.94100  0.82400  Biso   1.000  C
  H75      1.0000 0.25020  0.93910  0.85650  Biso   1.000  H
  C112     1.0000 0.22700  0.98800  0.79200  Biso   1.000  C
  H76      1.0000 0.27920  0.01400  0.79950  Biso   1.000  H
  C113     1.0000 0.09100  0.95700  0.74400  Biso   1.000  C
  H77      1.0000 0.04750  0.96650  0.71680  Biso   1.000  H
  C114     1.0000 0.16600  0.99200  0.75100  Biso   1.000  C
  C115     1.0000 0.63700  0.84900  0.54120  Biso   1.000  C
  C116     1.0000 0.71390  0.86560  0.53950  Biso   1.000  C
  H78      1.0000 0.72820  0.83500  0.50310  Biso   1.000  H
  C117     1.0000 0.76990  0.92710  0.59090  Biso   1.000  C
  H79      1.0000 0.82250  0.93850  0.58970  Biso   1.000  H
  C118     1.0000 0.74900  0.97200  0.64400  Biso   1.000  C
  C119     1.0000 0.67200  0.95530  0.64580  Biso   1.000  C
  H80      1.0000 0.65790  0.98600  0.68210  Biso   1.000  H
  C120     1.0000 0.61620  0.89380  0.59440  Biso   1.000  C
  H81      1.0000 0.56360  0.88240  0.59560  Biso   1.000  H
  C121     1.0000 0.17020  0.98540  0.55890  Biso   1.000  C
  H82      1.0000 0.16360  0.03240  0.56200  Biso   1.000  H
  C122     1.0000 0.17290  0.93600  0.49790  Biso   1.000  C
  H83      1.0000 0.16820  0.94920  0.45930  Biso   1.000  H
  C123     1.0000 0.18260  0.86730  0.49330  Biso   1.000  C
  C124     1.0000 0.18950  0.84790  0.54970  Biso   1.000  C
  H84      1.0000 0.19610  0.80100  0.54660  Biso   1.000  H
  C125     1.0000 0.18670  0.89730  0.61070  Biso   1.000  C
  H85      1.0000 0.19150  0.88410  0.64930  Biso   1.000  H
  C126     1.0000 0.17710  0.96610  0.61530  Biso   1.000  C
  C127     1.0000 0.17060  0.78090  0.30880  Biso   1.000  C
  H86      1.0000 0.18670  0.79640  0.27600  Biso   1.000  H
  C128     1.0000 0.12650  0.70920  0.28930  Biso   1.000  C
  C129     1.0000 0.10310  0.68660  0.33720  Biso   1.000  C
  H87      1.0000 0.07290  0.63760  0.32380  Biso   1.000  H
  C130     1.0000 0.12380  0.73580  0.40460  Biso   1.000  C
  H88      1.0000 0.10770  0.72040  0.43740  Biso   1.000  H
  C131     1.0000 0.16790  0.80750  0.42410  Biso   1.000  C
  C132     1.0000 0.19130  0.83010  0.37620  Biso   1.000  C
  H89      1.0000 0.22150  0.87910  0.38950  Biso   1.000  H
  C133     1.0000 0.09500  0.66000  0.21500  Biso   1.000  C
  C134     1.0000 0.27720  0.09800  0.73190  Biso   1.000  C
  C135     1.0000 0.29300  0.15700  0.79800  Biso   1.000  C
  H90      1.0000 0.25430  0.16190  0.82010  Biso   1.000  H
  C136     1.0000 0.36900  0.20630  0.82720  Biso   1.000  C
  H91      1.0000 0.38300  0.24620  0.87000  Biso   1.000  H
  C137     1.0000 0.42400  0.19480  0.79110  Biso   1.000  C
  C138     1.0000 0.41100  0.13300  0.72700  Biso   1.000  C
  H92      1.0000 0.45180  0.12390  0.70730  Biso   1.000  H
  C139     1.0000 0.33400  0.08800  0.69800  Biso   1.000  C
  H93      1.0000 0.31980  0.05000  0.65460  Biso   1.000  H
  C140     1.0000 0.56860  0.20680  0.81500  Biso   1.000  C
  H94      1.0000 0.55850  0.15510  0.79310  Biso   1.000  H
  C141     1.0000 0.64570  0.25110  0.84260  Biso   1.000  C
  H95      1.0000 0.68830  0.22960  0.83970  Biso   1.000  H
  C142     1.0000 0.66040  0.32670  0.87460  Biso   1.000  C
  C143     1.0000 0.59800  0.35810  0.87890  Biso   1.000  C
  H96      1.0000 0.60810  0.40980  0.90080  Biso   1.000  H
  C144     1.0000 0.52090  0.31380  0.85120  Biso   1.000  C
  H97      1.0000 0.47830  0.33530  0.85420  Biso   1.000  H
  C145     1.0000 0.50620  0.23820  0.81930  Biso   1.000  C
  C146     1.0000 0.11200  0.20700  0.60000  Biso   1.000  C
  H98      1.0000 0.13760  0.21410  0.56550  Biso   1.000  H
  C147     1.0000 0.74900  0.37560  0.91110  Biso   1.000  C
  C148     1.0000 0.83800  0.55030  0.83920  Biso   1.000  C
  C149     1.0000 0.78990  0.56860  0.78220  Biso   1.000  C
  C150     1.0000 0.81320  0.56580  0.72530  Biso   1.000  C
  H99      1.0000 0.85630  0.54650  0.71840  Biso   1.000  H
  C151     1.0000 0.77340  0.59130  0.67850  Biso   1.000  C
  H100     1.0000 0.78930  0.58940  0.63970  Biso   1.000  H
  C152     1.0000 0.71030  0.61950  0.68870  Biso   1.000  C
  C153     1.0000 0.68700  0.62220  0.74560  Biso   1.000  C
  H101     1.0000 0.64390  0.64150  0.75250  Biso   1.000  H
  C154     1.0000 0.72680  0.59680  0.79240  Biso   1.000  C
  H102     1.0000 0.71080  0.59860  0.83130  Biso   1.000  H
  C155     1.0000 0.61210  0.70960  0.54980  Biso   1.000  C
  C156     1.0000 0.56320  0.67430  0.57650  Biso   1.000  C
  H103     1.0000 0.50820  0.67030  0.56290  Biso   1.000  H
  C157     1.0000 0.59460  0.64480  0.62300  Biso   1.000  C
  H104     1.0000 0.56110  0.62060  0.64130  Biso   1.000  H
  C158     1.0000 0.67500  0.65070  0.64290  Biso   1.000  C
  C159     1.0000 0.72390  0.68600  0.61620  Biso   1.000  C
  H105     1.0000 0.77880  0.69000  0.62970  Biso   1.000  H
  C160     1.0000 0.69250  0.71550  0.56960  Biso   1.000  C
  H106     1.0000 0.72600  0.73970  0.55140  Biso   1.000  H
  C161     1.0000 0.60900  0.70950  0.42130  Biso   1.000  C
  C162     1.0000 0.61050  0.73900  0.37190  Biso   1.000  C
  H107     1.0000 0.59230  0.78140  0.37460  Biso   1.000  H
  C163     1.0000 0.63860  0.70650  0.31860  Biso   1.000  C
  H108     1.0000 0.63960  0.72660  0.28480  Biso   1.000  H
  C164     1.0000 0.66530  0.64450  0.31460  Biso   1.000  C
  C165     1.0000 0.66380  0.61500  0.36400  Biso   1.000  C
  H109     1.0000 0.68200  0.57260  0.36140  Biso   1.000  H
  C166     1.0000 0.63570  0.64760  0.41740  Biso   1.000  C
  H110     1.0000 0.63470  0.62740  0.45120  Biso   1.000  H
  C167     1.0000 0.70800  0.61400  0.27000  Biso   1.000  C
  C168     1.0000 0.70140  0.62890  0.20750  Biso   1.000  C
  H111     1.0000 0.66740  0.65820  0.19830  Biso   1.000  H
  C169     1.0000 0.74050  0.60430  0.16140  Biso   1.000  C
  H112     1.0000 0.73240  0.61620  0.12190  Biso   1.000  H
  C170     1.0000 0.79260  0.56150  0.17250  Biso   1.000  C
  C171     1.0000 0.80200  0.54180  0.22800  Biso   1.000  C
  H113     1.0000 0.83420  0.51140  0.23700  Biso   1.000  H
  C172     1.0000 0.75600  0.57200  0.27200  Biso   1.000  C
  H114     1.0000 0.76320  0.55880  0.31080  Biso   1.000  H
  C173     1.0000 0.02600  0.14400  0.57600  Biso   1.000  C
  H115     1.0000 0.99130  0.11500  0.52790  Biso   1.000  H
  C174     1.0000 0.99800  0.15500  0.64300  Biso   1.000  C
  H116     1.0000 0.94270  0.14140  0.64250  Biso   1.000  H
  C175     1.0000 0.16400  0.19500  0.67300  Biso   1.000  C
  H117     1.0000 0.22110  0.19790  0.68230  Biso   1.000  H
  C176     1.0000 0.06200  0.22900  0.69200  Biso   1.000  C
  H118     1.0000 0.04210  0.26000  0.72710  Biso   1.000  H
  C177     1.0000 0.13400  0.20790  0.72300  Biso   1.000  C
  H119     1.0000 0.16380  0.22580  0.77300  Biso   1.000  H
  C178     1.0000 0.07700  0.26600  0.64000  Biso   1.000  C
  H120     1.0000 0.11450  0.31500  0.66330  Biso   1.000  H
  H121     1.0000 0.02700  0.26850  0.61070  Biso   1.000  H
  C179     1.0000 0.35600  0.59500  0.33600  Biso   1.000  C
  H122     1.0000 0.34540  0.54030  0.31980  Biso   1.000  H
  C180     1.0000 0.44000  0.64000  0.35800  Biso   1.000  C
  H123     1.0000 0.48570  0.61870  0.35360  Biso   1.000  H
  C181     1.0000 0.43100  0.71300  0.34300  Biso   1.000  C
  H124     1.0000 0.46910  0.74130  0.32870  Biso   1.000  H
  C182     1.0000 0.31300  0.63000  0.28500  Biso   1.000  C
  H125     1.0000 0.32960  0.61840  0.24360  Biso   1.000  H
  H126     1.0000 0.25520  0.61270  0.27220  Biso   1.000  H
  C183     1.0000 0.34700  0.71500  0.33400  Biso   1.000  C
  H127     1.0000 0.32950  0.75000  0.31380  Biso   1.000  H
  C184     1.0000 0.32500  0.71800  0.40000  Biso   1.000  C
  H128     1.0000 0.29060  0.74780  0.41850  Biso   1.000  H
