data_image0
_cell_length_a       10.931
_cell_length_b       16.2099
_cell_length_c       43.602
_cell_angle_alpha    90
_cell_angle_beta     92.754
_cell_angle_gamma    90

_symmetry_space_group_name_H-M    "P 1"
_symmetry_int_tables_number       1

loop_
  _symmetry_equiv_pos_as_xyz
  'x, y, z'

loop_
  _atom_site_label
  _atom_site_occupancy
  _atom_site_fract_x
  _atom_site_fract_y
  _atom_site_fract_z
  _atom_site_thermal_displace_type
  _atom_site_B_iso_or_equiv
  _atom_site_type_symbol
  C1       1.0000 0.32360  0.76520  0.25763  Biso   1.000  C
  C2       1.0000 0.31080  0.76680  0.29178  Biso   1.000  C
  C3       1.0000 0.35650  0.70130  0.30867  Biso   1.000  C
  H1       1.0000 0.38970  0.65640  0.29870  Biso   1.000  H
  C4       1.0000 0.35380  0.70110  0.34093  Biso   1.000  C
  H2       1.0000 0.38480  0.65600  0.35200  Biso   1.000  H
  C5       1.0000 0.30620  0.76640  0.35622  Biso   1.000  C
  C6       1.0000 0.19520  0.90160  0.35423  Biso   1.000  C
  H3       1.0000 0.19330  0.90230  0.37550  Biso   1.000  H
  C7       1.0000 0.14230  0.96470  0.33766  Biso   1.000  C
  H4       1.0000 0.10650  0.00850  0.34770  Biso   1.000  H
  C8       1.0000 0.14190  0.96370  0.30515  Biso   1.000  C
  H5       1.0000 0.10480  0.00650  0.29390  Biso   1.000  H
  C9       1.0000 0.19590  0.90020  0.29027  Biso   1.000  C
  H6       1.0000 0.19400  0.89960  0.26890  Biso   1.000  H
  C10      1.0000 0.25490  0.83490  0.30704  Biso   1.000  C
  C11      1.0000 0.25350  0.83440  0.33951  Biso   1.000  C
  C12      1.0000 0.31210  0.76240  0.39066  Biso   1.000  C
  C13      1.0000 0.54800  0.76620  0.19886  Biso   1.000  C
  C14      1.0000 0.68590  0.77050  0.20251  Biso   1.000  C
  C15      1.0000 0.75130  0.70380  0.19323  Biso   1.000  C
  H7       1.0000 0.71010  0.65660  0.18640  Biso   1.000  H
  C16      1.0000 0.87900  0.70560  0.19381  Biso   1.000  C
  H8       1.0000 0.92130  0.65920  0.18760  Biso   1.000  H
  C17      1.0000 0.94380  0.77440  0.20336  Biso   1.000  C
  C18      1.0000 0.93750  0.91990  0.22434  Biso   1.000  C
  H9       1.0000 0.02250  0.92320  0.22460  Biso   1.000  H
  C19      1.0000 0.87220  0.98600  0.23405  Biso   1.000  C
  H10      1.0000 0.91290  0.03390  0.24040  Biso   1.000  H
  C20      1.0000 0.74450  0.98200  0.23457  Biso   1.000  C
  H11      1.0000 0.70090  0.02700  0.24150  Biso   1.000  H
  C21      1.0000 0.68350  0.91250  0.22497  Biso   1.000  C
  H12      1.0000 0.59870  0.91010  0.22590  Biso   1.000  H
  C22      1.0000 0.74860  0.84310  0.21348  Biso   1.000  C
  C23      1.0000 0.87910  0.84620  0.21384  Biso   1.000  C
  C24      1.0000 0.08160  0.76910  0.20208  Biso   1.000  C
  C25      1.0000 0.28920  0.78160  0.14003  Biso   1.000  C
  C26      1.0000 0.27850  0.77730  0.10544  Biso   1.000  C
  C27      1.0000 0.32150  0.70680  0.09256  Biso   1.000  C
  H13      1.0000 0.35000  0.66410  0.10520  Biso   1.000  H
  C28      1.0000 0.32360  0.69740  0.06062  Biso   1.000  C
  H14      1.0000 0.35020  0.64800  0.05240  Biso   1.000  H
  C29      1.0000 0.28680  0.76050  0.04140  Biso   1.000  C
  C30      1.0000 0.18340  0.89690  0.03409  Biso   1.000  C
  H15      1.0000 0.18560  0.89150  0.01290  Biso   1.000  H
  C31      1.0000 0.13200  0.96440  0.04622  Biso   1.000  C
  H16      1.0000 0.10090  0.00560  0.03320  Biso   1.000  H
  C32      1.0000 0.12450  0.97380  0.07802  Biso   1.000  C
  H17      1.0000 0.08910  0.02090  0.08590  Biso   1.000  H
  C33      1.0000 0.16930  0.91330  0.09742  Biso   1.000  C
  H18      1.0000 0.16100  0.91900  0.11840  Biso   1.000  H
  C34      1.0000 0.22820  0.84220  0.08614  Biso   1.000  C
  C35      1.0000 0.23480  0.83350  0.05376  Biso   1.000  C
  C36      1.0000 0.30760  0.75060  0.00769  Biso   1.000  C
  C37      1.0000 0.55100  0.75510  0.94792  Biso   1.000  C
  C38      1.0000 0.68710  0.75100  0.94427  Biso   1.000  C
  C39      1.0000 0.75850  0.81280  0.95702  Biso   1.000  C
  H19      1.0000 0.72170  0.85840  0.96570  Biso   1.000  H
  C40      1.0000 0.88670  0.80780  0.95711  Biso   1.000  C
  H20      1.0000 0.93360  0.84880  0.96680  Biso   1.000  H
  C41      1.0000 0.94410  0.74380  0.94317  Biso   1.000  C
  C42      1.0000 0.92330  0.61490  0.91110  Biso   1.000  C
  H21      1.0000 0.00790  0.61100  0.91020  Biso   1.000  H
  C43      1.0000 0.85100  0.55720  0.89628  Biso   1.000  C
  H22      1.0000 0.88700  0.51490  0.88550  Biso   1.000  H
  C44      1.0000 0.72330  0.56110  0.89709  Biso   1.000  C
  H23      1.0000 0.67500  0.52180  0.88680  Biso   1.000  H
  C45      1.0000 0.66990  0.62260  0.91303  Biso   1.000  C
  H24      1.0000 0.58500  0.62460  0.91360  Biso   1.000  H
  C46      1.0000 0.74210  0.68410  0.92882  Biso   1.000  C
  C47      1.0000 0.87270  0.68030  0.92788  Biso   1.000  C
  C48      1.0000 0.08310  0.74360  0.94591  Biso   1.000  C
  C49      1.0000 0.42230  0.51540  0.19169  Biso   1.000  C
  H25      1.0000 0.49470  0.54490  0.19470  Biso   1.000  H
  C50      1.0000 0.42830  0.43180  0.18659  Biso   1.000  C
  H26      1.0000 0.50400  0.40580  0.18620  Biso   1.000  H
  C51      1.0000 0.32240  0.38630  0.18205  Biso   1.000  C
  C52      1.0000 0.21250  0.42790  0.18311  Biso   1.000  C
  H27      1.0000 0.13890  0.39940  0.18030  Biso   1.000  H
  C53      1.0000 0.21190  0.51230  0.18838  Biso   1.000  C
  H28      1.0000 0.13720  0.53950  0.18910  Biso   1.000  H
  C54      1.0000 0.32600  0.29510  0.17683  Biso   1.000  C
  H29      1.0000 0.39380  0.28150  0.16420  Biso   1.000  H
  H30      1.0000 0.25080  0.27750  0.16600  Biso   1.000  H
  C55      1.0000 0.34100  0.24970  0.20774  Biso   1.000  C
  H31      1.0000 0.41830  0.26610  0.21780  Biso   1.000  H
  H32      1.0000 0.27620  0.26730  0.22070  Biso   1.000  H
  C56      1.0000 0.33830  0.15700  0.20546  Biso   1.000  C
  C57      1.0000 0.31590  0.11590  0.17752  Biso   1.000  C
  H33      1.0000 0.30470  0.14550  0.15930  Biso   1.000  H
  C58      1.0000 0.31070  0.03110  0.17737  Biso   1.000  C
  H34      1.0000 0.29360  0.00460  0.15880  Biso   1.000  H
  C59      1.0000 0.35490  0.02400  0.22897  Biso   1.000  C
  H35      1.0000 0.36970  0.99280  0.24670  Biso   1.000  H
  C60      1.0000 0.36080  0.10870  0.23138  Biso   1.000  C
  H36      1.0000 0.37980  0.13330  0.25030  Biso   1.000  H
  C61      1.0000 0.34490  0.49470  0.98119  Biso   1.000  C
  H37      1.0000 0.33890  0.52670  0.99870  Biso   1.000  H
  C62      1.0000 0.36120  0.41130  0.98458  Biso   1.000  C
  H38      1.0000 0.36820  0.38810  0.00410  Biso   1.000  H
  C63      1.0000 0.36730  0.36200  0.95910  Biso   1.000  C
  C64      1.0000 0.35850  0.40090  0.93061  Biso   1.000  C
  H39      1.0000 0.36230  0.37000  0.91270  Biso   1.000  H
  C65      1.0000 0.34420  0.48490  0.92899  Biso   1.000  C
  H40      1.0000 0.33940  0.50990  0.90980  Biso   1.000  H
  C66      1.0000 0.38700  0.27020  0.96230  Biso   1.000  C
  H41      1.0000 0.43780  0.25110  0.94610  Biso   1.000  H
  H42      1.0000 0.42980  0.25870  0.98180  Biso   1.000  H
  C67      1.0000 0.26940  0.22500  0.96055  Biso   1.000  C
  H43      1.0000 0.22110  0.24410  0.94270  Biso   1.000  H
  H44      1.0000 0.22450  0.23810  0.97860  Biso   1.000  H
  C68      1.0000 0.28340  0.13240  0.95852  Biso   1.000  C
  C69      1.0000 0.18840  0.08530  0.94809  Biso   1.000  C
  H45      1.0000 0.11350  0.11020  0.94300  Biso   1.000  H
  C70      1.0000 0.19980  0.00180  0.94487  Biso   1.000  C
  H46      1.0000 0.13100  0.97150  0.93840  Biso   1.000  H
  C71      1.0000 0.39980  0.00590  0.96142  Biso   1.000  C
  H47      1.0000 0.47300  0.97870  0.96640  Biso   1.000  H
  C72      1.0000 0.39390  0.09060  0.96563  Biso   1.000  C
  H48      1.0000 0.46250  0.11960  0.97310  Biso   1.000  H
  N1       1.0000 0.32920  0.98450  0.20272  Biso   1.000  N
  N2       1.0000 0.31510  0.55570  0.19239  Biso   1.000  N
  N3       1.0000 0.33700  0.53210  0.95391  Biso   1.000  N
  N4       1.0000 0.30380  0.96210  0.95049  Biso   1.000  N
  O1       1.0000 0.49230  0.83070  0.19073  Biso   1.000  O
  O2       1.0000 0.49850  0.69730  0.20357  Biso   1.000  O
  O3       1.0000 0.35590  0.83080  0.24461  Biso   1.000  O
  O4       1.0000 0.30540  0.69710  0.24470  Biso   1.000  O
  O5       1.0000 0.12610  0.69930  0.19716  Biso   1.000  O
  O6       1.0000 0.14400  0.83340  0.20604  Biso   1.000  O
  O7       1.0000 0.28020  0.85120  0.15295  Biso   1.000  O
  O8       1.0000 0.30960  0.71550  0.15401  Biso   1.000  O
  O9       1.0000 0.49910  0.69130  0.95729  Biso   1.000  O
  O10      1.0000 0.49840  0.82350  0.94180  Biso   1.000  O
  O11      1.0000 0.29080  0.67970  0.99639  Biso   1.000  O
  O12      1.0000 0.34470  0.81280  0.99341  Biso   1.000  O
  O13      1.0000 0.13970  0.67750  0.94185  Biso   1.000  O
  O14      1.0000 0.13430  0.81190  0.95265  Biso   1.000  O
  O15      1.0000 0.34330  0.82630  0.40544  Biso   1.000  O
  O16      1.0000 0.28580  0.69280  0.40251  Biso   1.000  O
  Zn1      1.0000 0.31886  0.86031  0.19890  Biso   1.000  Zn
  Zn2      1.0000 0.31172  0.67943  0.19850  Biso   1.000  Zn
  Zn3      1.0000 0.32004  0.65574  0.95168  Biso   1.000  Zn
  Zn4      1.0000 0.31540  0.83730  0.94787  Biso   1.000  Zn
  C73      1.0000 0.32360  0.73480  0.75763  Biso   1.000  C
  C74      1.0000 0.31080  0.73320  0.79178  Biso   1.000  C
  C75      1.0000 0.35650  0.79870  0.80867  Biso   1.000  C
  H49      1.0000 0.38970  0.84360  0.79870  Biso   1.000  H
  C76      1.0000 0.35380  0.79890  0.84093  Biso   1.000  C
  H50      1.0000 0.38480  0.84400  0.85200  Biso   1.000  H
  C77      1.0000 0.30620  0.73360  0.85622  Biso   1.000  C
  C78      1.0000 0.19520  0.59840  0.85423  Biso   1.000  C
  H51      1.0000 0.19330  0.59770  0.87550  Biso   1.000  H
  C79      1.0000 0.14230  0.53530  0.83766  Biso   1.000  C
  H52      1.0000 0.10650  0.49150  0.84770  Biso   1.000  H
  C80      1.0000 0.14190  0.53630  0.80515  Biso   1.000  C
  H53      1.0000 0.10480  0.49350  0.79390  Biso   1.000  H
  C81      1.0000 0.19590  0.59980  0.79027  Biso   1.000  C
  H54      1.0000 0.19400  0.60040  0.76890  Biso   1.000  H
  C82      1.0000 0.25490  0.66510  0.80704  Biso   1.000  C
  C83      1.0000 0.25350  0.66560  0.83951  Biso   1.000  C
  C84      1.0000 0.31210  0.73760  0.89066  Biso   1.000  C
  C85      1.0000 0.54800  0.73380  0.69886  Biso   1.000  C
  C86      1.0000 0.68590  0.72950  0.70251  Biso   1.000  C
  C87      1.0000 0.75130  0.79620  0.69323  Biso   1.000  C
  H55      1.0000 0.71010  0.84340  0.68640  Biso   1.000  H
  C88      1.0000 0.87900  0.79440  0.69381  Biso   1.000  C
  H56      1.0000 0.92130  0.84080  0.68760  Biso   1.000  H
  C89      1.0000 0.94380  0.72560  0.70336  Biso   1.000  C
  C90      1.0000 0.93750  0.58010  0.72434  Biso   1.000  C
  H57      1.0000 0.02250  0.57680  0.72460  Biso   1.000  H
  C91      1.0000 0.87220  0.51400  0.73405  Biso   1.000  C
  H58      1.0000 0.91290  0.46610  0.74040  Biso   1.000  H
  C92      1.0000 0.74450  0.51800  0.73457  Biso   1.000  C
  H59      1.0000 0.70090  0.47300  0.74150  Biso   1.000  H
  C93      1.0000 0.68350  0.58750  0.72497  Biso   1.000  C
  H60      1.0000 0.59870  0.58990  0.72590  Biso   1.000  H
  C94      1.0000 0.74860  0.65690  0.71348  Biso   1.000  C
  C95      1.0000 0.87910  0.65380  0.71384  Biso   1.000  C
  C96      1.0000 0.08160  0.73090  0.70208  Biso   1.000  C
  C97      1.0000 0.28920  0.71840  0.64003  Biso   1.000  C
  C98      1.0000 0.27850  0.72270  0.60544  Biso   1.000  C
  C99      1.0000 0.32150  0.79320  0.59256  Biso   1.000  C
  H61      1.0000 0.35000  0.83590  0.60520  Biso   1.000  H
  C100     1.0000 0.32360  0.80260  0.56062  Biso   1.000  C
  H62      1.0000 0.35020  0.85200  0.55240  Biso   1.000  H
  C101     1.0000 0.28680  0.73950  0.54140  Biso   1.000  C
  C102     1.0000 0.18340  0.60310  0.53409  Biso   1.000  C
  H63      1.0000 0.18560  0.60850  0.51290  Biso   1.000  H
  C103     1.0000 0.13200  0.53560  0.54622  Biso   1.000  C
  H64      1.0000 0.10090  0.49440  0.53320  Biso   1.000  H
  C104     1.0000 0.12450  0.52620  0.57802  Biso   1.000  C
  H65      1.0000 0.08910  0.47910  0.58590  Biso   1.000  H
  C105     1.0000 0.16930  0.58670  0.59742  Biso   1.000  C
  H66      1.0000 0.16100  0.58100  0.61840  Biso   1.000  H
  C106     1.0000 0.22820  0.65780  0.58614  Biso   1.000  C
  C107     1.0000 0.23480  0.66650  0.55376  Biso   1.000  C
  C108     1.0000 0.30760  0.74940  0.50769  Biso   1.000  C
  C109     1.0000 0.55100  0.74490  0.44792  Biso   1.000  C
  C110     1.0000 0.68710  0.74900  0.44427  Biso   1.000  C
  C111     1.0000 0.75850  0.68720  0.45702  Biso   1.000  C
  H67      1.0000 0.72170  0.64160  0.46570  Biso   1.000  H
  C112     1.0000 0.88670  0.69220  0.45711  Biso   1.000  C
  H68      1.0000 0.93360  0.65120  0.46680  Biso   1.000  H
  C113     1.0000 0.94410  0.75620  0.44317  Biso   1.000  C
  C114     1.0000 0.92330  0.88510  0.41110  Biso   1.000  C
  H69      1.0000 0.00790  0.88900  0.41020  Biso   1.000  H
  C115     1.0000 0.85100  0.94280  0.39628  Biso   1.000  C
  H70      1.0000 0.88700  0.98510  0.38550  Biso   1.000  H
  C116     1.0000 0.72330  0.93890  0.39709  Biso   1.000  C
  H71      1.0000 0.67500  0.97820  0.38680  Biso   1.000  H
  C117     1.0000 0.66990  0.87740  0.41303  Biso   1.000  C
  H72      1.0000 0.58500  0.87540  0.41360  Biso   1.000  H
  C118     1.0000 0.74210  0.81590  0.42882  Biso   1.000  C
  C119     1.0000 0.87270  0.81970  0.42788  Biso   1.000  C
  C120     1.0000 0.08310  0.75640  0.44591  Biso   1.000  C
  C121     1.0000 0.42230  0.98460  0.69169  Biso   1.000  C
  H73      1.0000 0.49470  0.95510  0.69470  Biso   1.000  H
  C122     1.0000 0.42830  0.06820  0.68659  Biso   1.000  C
  H74      1.0000 0.50400  0.09420  0.68620  Biso   1.000  H
  C123     1.0000 0.32240  0.11370  0.68205  Biso   1.000  C
  C124     1.0000 0.21250  0.07210  0.68311  Biso   1.000  C
  H75      1.0000 0.13890  0.10060  0.68030  Biso   1.000  H
  C125     1.0000 0.21190  0.98770  0.68838  Biso   1.000  C
  H76      1.0000 0.13720  0.96050  0.68910  Biso   1.000  H
  C126     1.0000 0.32600  0.20490  0.67683  Biso   1.000  C
  H77      1.0000 0.39380  0.21850  0.66420  Biso   1.000  H
  H78      1.0000 0.25080  0.22250  0.66600  Biso   1.000  H
  C127     1.0000 0.34100  0.25030  0.70774  Biso   1.000  C
  H79      1.0000 0.41830  0.23390  0.71780  Biso   1.000  H
  H80      1.0000 0.27620  0.23270  0.72070  Biso   1.000  H
  C128     1.0000 0.33830  0.34300  0.70546  Biso   1.000  C
  C129     1.0000 0.31590  0.38410  0.67752  Biso   1.000  C
  H81      1.0000 0.30470  0.35450  0.65930  Biso   1.000  H
  C130     1.0000 0.31070  0.46890  0.67737  Biso   1.000  C
  H82      1.0000 0.29360  0.49540  0.65880  Biso   1.000  H
  C131     1.0000 0.35490  0.47600  0.72897  Biso   1.000  C
  H83      1.0000 0.36970  0.50720  0.74670  Biso   1.000  H
  C132     1.0000 0.36080  0.39130  0.73138  Biso   1.000  C
  H84      1.0000 0.37980  0.36670  0.75030  Biso   1.000  H
  C133     1.0000 0.34490  0.00530  0.48119  Biso   1.000  C
  H85      1.0000 0.33890  0.97330  0.49870  Biso   1.000  H
  C134     1.0000 0.36120  0.08870  0.48458  Biso   1.000  C
  H86      1.0000 0.36820  0.11190  0.50410  Biso   1.000  H
  C135     1.0000 0.36730  0.13800  0.45910  Biso   1.000  C
  C136     1.0000 0.35850  0.09910  0.43061  Biso   1.000  C
  H87      1.0000 0.36230  0.13000  0.41270  Biso   1.000  H
  C137     1.0000 0.34420  0.01510  0.42899  Biso   1.000  C
  H88      1.0000 0.33940  0.99010  0.40980  Biso   1.000  H
  C138     1.0000 0.38700  0.22980  0.46230  Biso   1.000  C
  H89      1.0000 0.43780  0.24890  0.44610  Biso   1.000  H
  H90      1.0000 0.42980  0.24130  0.48180  Biso   1.000  H
  C139     1.0000 0.26940  0.27500  0.46055  Biso   1.000  C
  H91      1.0000 0.22110  0.25590  0.44270  Biso   1.000  H
  H92      1.0000 0.22450  0.26190  0.47860  Biso   1.000  H
  C140     1.0000 0.28340  0.36760  0.45852  Biso   1.000  C
  C141     1.0000 0.18840  0.41470  0.44809  Biso   1.000  C
  H93      1.0000 0.11350  0.38980  0.44300  Biso   1.000  H
  C142     1.0000 0.19980  0.49820  0.44487  Biso   1.000  C
  H94      1.0000 0.13100  0.52850  0.43840  Biso   1.000  H
  C143     1.0000 0.39980  0.49410  0.46142  Biso   1.000  C
  H95      1.0000 0.47300  0.52130  0.46640  Biso   1.000  H
  C144     1.0000 0.39390  0.40940  0.46563  Biso   1.000  C
  H96      1.0000 0.46250  0.38040  0.47310  Biso   1.000  H
  N5       1.0000 0.32920  0.51550  0.70272  Biso   1.000  N
  N6       1.0000 0.31510  0.94430  0.69239  Biso   1.000  N
  N7       1.0000 0.33700  0.96790  0.45391  Biso   1.000  N
  N8       1.0000 0.30380  0.53790  0.45049  Biso   1.000  N
  O17      1.0000 0.49230  0.66930  0.69073  Biso   1.000  O
  O18      1.0000 0.49850  0.80270  0.70357  Biso   1.000  O
  O19      1.0000 0.35590  0.66920  0.74461  Biso   1.000  O
  O20      1.0000 0.30540  0.80290  0.74470  Biso   1.000  O
  O21      1.0000 0.12610  0.80070  0.69716  Biso   1.000  O
  O22      1.0000 0.14400  0.66660  0.70604  Biso   1.000  O
  O23      1.0000 0.28020  0.64880  0.65295  Biso   1.000  O
  O24      1.0000 0.30960  0.78450  0.65401  Biso   1.000  O
  O25      1.0000 0.49910  0.80870  0.45729  Biso   1.000  O
  O26      1.0000 0.49840  0.67650  0.44180  Biso   1.000  O
  O27      1.0000 0.29080  0.82030  0.49639  Biso   1.000  O
  O28      1.0000 0.34470  0.68720  0.49341  Biso   1.000  O
  O29      1.0000 0.13970  0.82250  0.44185  Biso   1.000  O
  O30      1.0000 0.13430  0.68810  0.45265  Biso   1.000  O
  O31      1.0000 0.34330  0.67370  0.90544  Biso   1.000  O
  O32      1.0000 0.28580  0.80720  0.90251  Biso   1.000  O
  Zn5      1.0000 0.31886  0.63969  0.69890  Biso   1.000  Zn
  Zn6      1.0000 0.31172  0.82057  0.69850  Biso   1.000  Zn
  Zn7      1.0000 0.32004  0.84426  0.45168  Biso   1.000  Zn
  Zn8      1.0000 0.31540  0.66270  0.44787  Biso   1.000  Zn
  C145     1.0000 0.67640  0.26520  0.24237  Biso   1.000  C
  C146     1.0000 0.68920  0.26680  0.20822  Biso   1.000  C
  C147     1.0000 0.64350  0.20130  0.19133  Biso   1.000  C
  H97      1.0000 0.61030  0.15640  0.20130  Biso   1.000  H
  C148     1.0000 0.64620  0.20110  0.15907  Biso   1.000  C
  H98      1.0000 0.61520  0.15600  0.14800  Biso   1.000  H
  C149     1.0000 0.69380  0.26640  0.14378  Biso   1.000  C
  C150     1.0000 0.80480  0.40160  0.14577  Biso   1.000  C
  H99      1.0000 0.80670  0.40230  0.12450  Biso   1.000  H
  C151     1.0000 0.85770  0.46470  0.16234  Biso   1.000  C
  H100     1.0000 0.89350  0.50850  0.15230  Biso   1.000  H
  C152     1.0000 0.85810  0.46370  0.19485  Biso   1.000  C
  H101     1.0000 0.89520  0.50650  0.20610  Biso   1.000  H
  C153     1.0000 0.80410  0.40020  0.20973  Biso   1.000  C
  H102     1.0000 0.80600  0.39960  0.23110  Biso   1.000  H
  C154     1.0000 0.74510  0.33490  0.19296  Biso   1.000  C
  C155     1.0000 0.74650  0.33440  0.16049  Biso   1.000  C
  C156     1.0000 0.68790  0.26240  0.10934  Biso   1.000  C
  C157     1.0000 0.45200  0.26620  0.30114  Biso   1.000  C
  C158     1.0000 0.31410  0.27050  0.29749  Biso   1.000  C
  C159     1.0000 0.24870  0.20380  0.30677  Biso   1.000  C
  H103     1.0000 0.28990  0.15660  0.31360  Biso   1.000  H
  C160     1.0000 0.12100  0.20560  0.30619  Biso   1.000  C
  H104     1.0000 0.07870  0.15920  0.31240  Biso   1.000  H
  C161     1.0000 0.05620  0.27440  0.29664  Biso   1.000  C
  C162     1.0000 0.06250  0.41990  0.27566  Biso   1.000  C
  H105     1.0000 0.97750  0.42320  0.27540  Biso   1.000  H
  C163     1.0000 0.12780  0.48600  0.26595  Biso   1.000  C
  H106     1.0000 0.08710  0.53390  0.25960  Biso   1.000  H
  C164     1.0000 0.25550  0.48200  0.26543  Biso   1.000  C
  H107     1.0000 0.29910  0.52700  0.25850  Biso   1.000  H
  C165     1.0000 0.31650  0.41250  0.27503  Biso   1.000  C
  H108     1.0000 0.40130  0.41010  0.27410  Biso   1.000  H
  C166     1.0000 0.25140  0.34310  0.28652  Biso   1.000  C
  C167     1.0000 0.12090  0.34620  0.28616  Biso   1.000  C
  C168     1.0000 0.91840  0.26910  0.29792  Biso   1.000  C
  C169     1.0000 0.71080  0.28160  0.35997  Biso   1.000  C
  C170     1.0000 0.72150  0.27730  0.39456  Biso   1.000  C
  C171     1.0000 0.67850  0.20680  0.40744  Biso   1.000  C
  H109     1.0000 0.65000  0.16410  0.39480  Biso   1.000  H
  C172     1.0000 0.67640  0.19740  0.43938  Biso   1.000  C
  H110     1.0000 0.64980  0.14800  0.44760  Biso   1.000  H
  C173     1.0000 0.71320  0.26050  0.45860  Biso   1.000  C
  C174     1.0000 0.81660  0.39690  0.46591  Biso   1.000  C
  H111     1.0000 0.81440  0.39150  0.48710  Biso   1.000  H
  C175     1.0000 0.86800  0.46440  0.45378  Biso   1.000  C
  H112     1.0000 0.89910  0.50560  0.46680  Biso   1.000  H
  C176     1.0000 0.87550  0.47380  0.42198  Biso   1.000  C
  H113     1.0000 0.91090  0.52090  0.41410  Biso   1.000  H
  C177     1.0000 0.83070  0.41330  0.40258  Biso   1.000  C
  H114     1.0000 0.83900  0.41900  0.38160  Biso   1.000  H
  C178     1.0000 0.77180  0.34220  0.41386  Biso   1.000  C
  C179     1.0000 0.76520  0.33350  0.44624  Biso   1.000  C
  C180     1.0000 0.69240  0.25060  0.49231  Biso   1.000  C
  C181     1.0000 0.44900  0.25510  0.55208  Biso   1.000  C
  C182     1.0000 0.31290  0.25100  0.55573  Biso   1.000  C
  C183     1.0000 0.24150  0.31280  0.54298  Biso   1.000  C
  H115     1.0000 0.27830  0.35840  0.53430  Biso   1.000  H
  C184     1.0000 0.11330  0.30780  0.54289  Biso   1.000  C
  H116     1.0000 0.06640  0.34880  0.53320  Biso   1.000  H
  C185     1.0000 0.05590  0.24380  0.55683  Biso   1.000  C
  C186     1.0000 0.07670  0.11490  0.58890  Biso   1.000  C
  H117     1.0000 0.99210  0.11100  0.58980  Biso   1.000  H
  C187     1.0000 0.14900  0.05720  0.60372  Biso   1.000  C
  H118     1.0000 0.11300  0.01490  0.61450  Biso   1.000  H
  C188     1.0000 0.27670  0.06110  0.60291  Biso   1.000  C
  H119     1.0000 0.32500  0.02180  0.61320  Biso   1.000  H
  C189     1.0000 0.33010  0.12260  0.58697  Biso   1.000  C
  H120     1.0000 0.41500  0.12460  0.58640  Biso   1.000  H
  C190     1.0000 0.25790  0.18410  0.57118  Biso   1.000  C
  C191     1.0000 0.12730  0.18030  0.57212  Biso   1.000  C
  C192     1.0000 0.91690  0.24360  0.55409  Biso   1.000  C
  C193     1.0000 0.57770  0.01540  0.30831  Biso   1.000  C
  H121     1.0000 0.50530  0.04490  0.30530  Biso   1.000  H
  C194     1.0000 0.57170  0.93180  0.31341  Biso   1.000  C
  H122     1.0000 0.49600  0.90580  0.31380  Biso   1.000  H
  C195     1.0000 0.67760  0.88630  0.31795  Biso   1.000  C
  C196     1.0000 0.78750  0.92790  0.31689  Biso   1.000  C
  H123     1.0000 0.86110  0.89940  0.31970  Biso   1.000  H
  C197     1.0000 0.78810  0.01230  0.31162  Biso   1.000  C
  H124     1.0000 0.86280  0.03950  0.31090  Biso   1.000  H
  C198     1.0000 0.67400  0.79510  0.32317  Biso   1.000  C
  H125     1.0000 0.60620  0.78150  0.33580  Biso   1.000  H
  H126     1.0000 0.74920  0.77750  0.33400  Biso   1.000  H
  C199     1.0000 0.65900  0.74970  0.29226  Biso   1.000  C
  H127     1.0000 0.58170  0.76610  0.28220  Biso   1.000  H
  H128     1.0000 0.72380  0.76730  0.27930  Biso   1.000  H
  C200     1.0000 0.66170  0.65700  0.29454  Biso   1.000  C
  C201     1.0000 0.68410  0.61590  0.32248  Biso   1.000  C
  H129     1.0000 0.69530  0.64550  0.34070  Biso   1.000  H
  C202     1.0000 0.68930  0.53110  0.32263  Biso   1.000  C
  H130     1.0000 0.70640  0.50460  0.34120  Biso   1.000  H
  C203     1.0000 0.64510  0.52400  0.27103  Biso   1.000  C
  H131     1.0000 0.63030  0.49280  0.25330  Biso   1.000  H
  C204     1.0000 0.63920  0.60870  0.26862  Biso   1.000  C
  H132     1.0000 0.62020  0.63330  0.24970  Biso   1.000  H
  C205     1.0000 0.65510  0.99470  0.51881  Biso   1.000  C
  H133     1.0000 0.66110  0.02670  0.50130  Biso   1.000  H
  C206     1.0000 0.63880  0.91130  0.51542  Biso   1.000  C
  H134     1.0000 0.63180  0.88810  0.49590  Biso   1.000  H
  C207     1.0000 0.63270  0.86200  0.54090  Biso   1.000  C
  C208     1.0000 0.64150  0.90090  0.56939  Biso   1.000  C
  H135     1.0000 0.63770  0.87000  0.58730  Biso   1.000  H
  C209     1.0000 0.65580  0.98490  0.57101  Biso   1.000  C
  H136     1.0000 0.66060  0.00990  0.59020  Biso   1.000  H
  C210     1.0000 0.61300  0.77020  0.53770  Biso   1.000  C
  H137     1.0000 0.56220  0.75110  0.55390  Biso   1.000  H
  H138     1.0000 0.57020  0.75870  0.51820  Biso   1.000  H
  C211     1.0000 0.73060  0.72500  0.53945  Biso   1.000  C
  H139     1.0000 0.77890  0.74410  0.55730  Biso   1.000  H
  H140     1.0000 0.77550  0.73810  0.52140  Biso   1.000  H
  C212     1.0000 0.71660  0.63240  0.54148  Biso   1.000  C
  C213     1.0000 0.81160  0.58530  0.55191  Biso   1.000  C
  H141     1.0000 0.88650  0.61020  0.55700  Biso   1.000  H
  C214     1.0000 0.80020  0.50180  0.55513  Biso   1.000  C
  H142     1.0000 0.86900  0.47150  0.56160  Biso   1.000  H
  C215     1.0000 0.60020  0.50590  0.53858  Biso   1.000  C
  H143     1.0000 0.52700  0.47870  0.53360  Biso   1.000  H
  C216     1.0000 0.60610  0.59060  0.53437  Biso   1.000  C
  H144     1.0000 0.53750  0.61960  0.52690  Biso   1.000  H
  N9       1.0000 0.67080  0.48450  0.29728  Biso   1.000  N
  N10      1.0000 0.68490  0.05570  0.30761  Biso   1.000  N
  N11      1.0000 0.66300  0.03210  0.54609  Biso   1.000  N
  N12      1.0000 0.69620  0.46210  0.54951  Biso   1.000  N
  O33      1.0000 0.50770  0.33070  0.30927  Biso   1.000  O
  O34      1.0000 0.50150  0.19730  0.29643  Biso   1.000  O
  O35      1.0000 0.64410  0.33080  0.25539  Biso   1.000  O
  O36      1.0000 0.69460  0.19710  0.25530  Biso   1.000  O
  O37      1.0000 0.87390  0.19930  0.30284  Biso   1.000  O
  O38      1.0000 0.85600  0.33340  0.29396  Biso   1.000  O
  O39      1.0000 0.71980  0.35120  0.34705  Biso   1.000  O
  O40      1.0000 0.69040  0.21550  0.34599  Biso   1.000  O
  O41      1.0000 0.50090  0.19130  0.54271  Biso   1.000  O
  O42      1.0000 0.50160  0.32350  0.55820  Biso   1.000  O
  O43      1.0000 0.70920  0.17970  0.50361  Biso   1.000  O
  O44      1.0000 0.65530  0.31280  0.50659  Biso   1.000  O
  O45      1.0000 0.86030  0.17750  0.55815  Biso   1.000  O
  O46      1.0000 0.86570  0.31190  0.54735  Biso   1.000  O
  O47      1.0000 0.65670  0.32630  0.09456  Biso   1.000  O
  O48      1.0000 0.71420  0.19280  0.09749  Biso   1.000  O
  Zn9      1.0000 0.68114  0.36031  0.30110  Biso   1.000  Zn
  Zn10     1.0000 0.68828  0.17943  0.30150  Biso   1.000  Zn
  Zn11     1.0000 0.67996  0.15574  0.54832  Biso   1.000  Zn
  Zn12     1.0000 0.68460  0.33730  0.55213  Biso   1.000  Zn
  C217     1.0000 0.67640  0.23480  0.74237  Biso   1.000  C
  C218     1.0000 0.68920  0.23320  0.70822  Biso   1.000  C
  C219     1.0000 0.64350  0.29870  0.69133  Biso   1.000  C
  H145     1.0000 0.61030  0.34360  0.70130  Biso   1.000  H
  C220     1.0000 0.64620  0.29890  0.65907  Biso   1.000  C
  H146     1.0000 0.61520  0.34400  0.64800  Biso   1.000  H
  C221     1.0000 0.69380  0.23360  0.64378  Biso   1.000  C
  C222     1.0000 0.80480  0.09840  0.64577  Biso   1.000  C
  H147     1.0000 0.80670  0.09770  0.62450  Biso   1.000  H
  C223     1.0000 0.85770  0.03530  0.66234  Biso   1.000  C
  H148     1.0000 0.89350  0.99150  0.65230  Biso   1.000  H
  C224     1.0000 0.85810  0.03630  0.69485  Biso   1.000  C
  H149     1.0000 0.89520  0.99350  0.70610  Biso   1.000  H
  C225     1.0000 0.80410  0.09980  0.70973  Biso   1.000  C
  H150     1.0000 0.80600  0.10040  0.73110  Biso   1.000  H
  C226     1.0000 0.74510  0.16510  0.69296  Biso   1.000  C
  C227     1.0000 0.74650  0.16560  0.66049  Biso   1.000  C
  C228     1.0000 0.68790  0.23760  0.60934  Biso   1.000  C
  C229     1.0000 0.45200  0.23380  0.80114  Biso   1.000  C
  C230     1.0000 0.31410  0.22950  0.79749  Biso   1.000  C
  C231     1.0000 0.24870  0.29620  0.80677  Biso   1.000  C
  H151     1.0000 0.28990  0.34340  0.81360  Biso   1.000  H
  C232     1.0000 0.12100  0.29440  0.80619  Biso   1.000  C
  H152     1.0000 0.07870  0.34080  0.81240  Biso   1.000  H
  C233     1.0000 0.05620  0.22560  0.79664  Biso   1.000  C
  C234     1.0000 0.06250  0.08010  0.77566  Biso   1.000  C
  H153     1.0000 0.97750  0.07680  0.77540  Biso   1.000  H
  C235     1.0000 0.12780  0.01400  0.76595  Biso   1.000  C
  H154     1.0000 0.08710  0.96610  0.75960  Biso   1.000  H
  C236     1.0000 0.25550  0.01800  0.76543  Biso   1.000  C
  H155     1.0000 0.29910  0.97300  0.75850  Biso   1.000  H
  C237     1.0000 0.31650  0.08750  0.77503  Biso   1.000  C
  H156     1.0000 0.40130  0.08990  0.77410  Biso   1.000  H
  C238     1.0000 0.25140  0.15690  0.78652  Biso   1.000  C
  C239     1.0000 0.12090  0.15380  0.78616  Biso   1.000  C
  C240     1.0000 0.91840  0.23090  0.79792  Biso   1.000  C
  C241     1.0000 0.71080  0.21840  0.85997  Biso   1.000  C
  C242     1.0000 0.72150  0.22270  0.89456  Biso   1.000  C
  C243     1.0000 0.67850  0.29320  0.90744  Biso   1.000  C
  H157     1.0000 0.65000  0.33590  0.89480  Biso   1.000  H
  C244     1.0000 0.67640  0.30260  0.93938  Biso   1.000  C
  H158     1.0000 0.64980  0.35200  0.94760  Biso   1.000  H
  C245     1.0000 0.71320  0.23950  0.95860  Biso   1.000  C
  C246     1.0000 0.81660  0.10310  0.96591  Biso   1.000  C
  H159     1.0000 0.81440  0.10850  0.98710  Biso   1.000  H
  C247     1.0000 0.86800  0.03560  0.95378  Biso   1.000  C
  H160     1.0000 0.89910  0.99440  0.96680  Biso   1.000  H
  C248     1.0000 0.87550  0.02620  0.92198  Biso   1.000  C
  H161     1.0000 0.91090  0.97910  0.91410  Biso   1.000  H
  C249     1.0000 0.83070  0.08670  0.90258  Biso   1.000  C
  H162     1.0000 0.83900  0.08100  0.88160  Biso   1.000  H
  C250     1.0000 0.77180  0.15780  0.91386  Biso   1.000  C
  C251     1.0000 0.76520  0.16650  0.94624  Biso   1.000  C
  C252     1.0000 0.69240  0.24940  0.99231  Biso   1.000  C
  C253     1.0000 0.44900  0.24490  0.05208  Biso   1.000  C
  C254     1.0000 0.31290  0.24900  0.05573  Biso   1.000  C
  C255     1.0000 0.24150  0.18720  0.04298  Biso   1.000  C
  H163     1.0000 0.27830  0.14160  0.03430  Biso   1.000  H
  C256     1.0000 0.11330  0.19220  0.04289  Biso   1.000  C
  H164     1.0000 0.06640  0.15120  0.03320  Biso   1.000  H
  C257     1.0000 0.05590  0.25620  0.05683  Biso   1.000  C
  C258     1.0000 0.07670  0.38510  0.08890  Biso   1.000  C
  H165     1.0000 0.99210  0.38900  0.08980  Biso   1.000  H
  C259     1.0000 0.14900  0.44280  0.10372  Biso   1.000  C
  H166     1.0000 0.11300  0.48510  0.11450  Biso   1.000  H
  C260     1.0000 0.27670  0.43890  0.10291  Biso   1.000  C
  H167     1.0000 0.32500  0.47820  0.11320  Biso   1.000  H
  C261     1.0000 0.33010  0.37740  0.08697  Biso   1.000  C
  H168     1.0000 0.41500  0.37540  0.08640  Biso   1.000  H
  C262     1.0000 0.25790  0.31590  0.07118  Biso   1.000  C
  C263     1.0000 0.12730  0.31970  0.07212  Biso   1.000  C
  C264     1.0000 0.91690  0.25640  0.05409  Biso   1.000  C
  C265     1.0000 0.57770  0.48460  0.80831  Biso   1.000  C
  H169     1.0000 0.50530  0.45510  0.80530  Biso   1.000  H
  C266     1.0000 0.57170  0.56820  0.81341  Biso   1.000  C
  H170     1.0000 0.49600  0.59420  0.81380  Biso   1.000  H
  C267     1.0000 0.67760  0.61370  0.81795  Biso   1.000  C
  C268     1.0000 0.78750  0.57210  0.81689  Biso   1.000  C
  H171     1.0000 0.86110  0.60060  0.81970  Biso   1.000  H
  C269     1.0000 0.78810  0.48770  0.81162  Biso   1.000  C
  H172     1.0000 0.86280  0.46050  0.81090  Biso   1.000  H
  C270     1.0000 0.67400  0.70490  0.82317  Biso   1.000  C
  H173     1.0000 0.60620  0.71850  0.83580  Biso   1.000  H
  H174     1.0000 0.74920  0.72250  0.83400  Biso   1.000  H
  C271     1.0000 0.65900  0.75030  0.79226  Biso   1.000  C
  H175     1.0000 0.58170  0.73390  0.78220  Biso   1.000  H
  H176     1.0000 0.72380  0.73270  0.77930  Biso   1.000  H
  C272     1.0000 0.66170  0.84300  0.79454  Biso   1.000  C
  C273     1.0000 0.68410  0.88410  0.82248  Biso   1.000  C
  H177     1.0000 0.69530  0.85450  0.84070  Biso   1.000  H
  C274     1.0000 0.68930  0.96890  0.82263  Biso   1.000  C
  H178     1.0000 0.70640  0.99540  0.84120  Biso   1.000  H
  C275     1.0000 0.64510  0.97600  0.77103  Biso   1.000  C
  H179     1.0000 0.63030  0.00720  0.75330  Biso   1.000  H
  C276     1.0000 0.63920  0.89130  0.76862  Biso   1.000  C
  H180     1.0000 0.62020  0.86670  0.74970  Biso   1.000  H
  C277     1.0000 0.65510  0.50530  0.01881  Biso   1.000  C
  H181     1.0000 0.66110  0.47330  0.00130  Biso   1.000  H
  C278     1.0000 0.63880  0.58870  0.01542  Biso   1.000  C
  H182     1.0000 0.63180  0.61190  0.99590  Biso   1.000  H
  C279     1.0000 0.63270  0.63800  0.04090  Biso   1.000  C
  C280     1.0000 0.64150  0.59910  0.06939  Biso   1.000  C
  H183     1.0000 0.63770  0.63000  0.08730  Biso   1.000  H
  C281     1.0000 0.65580  0.51510  0.07101  Biso   1.000  C
  H184     1.0000 0.66060  0.49010  0.09020  Biso   1.000  H
  C282     1.0000 0.61300  0.72980  0.03770  Biso   1.000  C
  H185     1.0000 0.56220  0.74890  0.05390  Biso   1.000  H
  H186     1.0000 0.57020  0.74130  0.01820  Biso   1.000  H
  C283     1.0000 0.73060  0.77500  0.03945  Biso   1.000  C
  H187     1.0000 0.77890  0.75590  0.05730  Biso   1.000  H
  H188     1.0000 0.77550  0.76190  0.02140  Biso   1.000  H
  C284     1.0000 0.71660  0.86760  0.04148  Biso   1.000  C
  C285     1.0000 0.81160  0.91470  0.05191  Biso   1.000  C
  H189     1.0000 0.88650  0.88980  0.05700  Biso   1.000  H
  C286     1.0000 0.80020  0.99820  0.05513  Biso   1.000  C
  H190     1.0000 0.86900  0.02850  0.06160  Biso   1.000  H
  C287     1.0000 0.60020  0.99410  0.03858  Biso   1.000  C
  H191     1.0000 0.52700  0.02130  0.03360  Biso   1.000  H
  C288     1.0000 0.60610  0.90940  0.03437  Biso   1.000  C
  H192     1.0000 0.53750  0.88040  0.02690  Biso   1.000  H
  N13      1.0000 0.67080  0.01550  0.79728  Biso   1.000  N
  N14      1.0000 0.68490  0.44430  0.80761  Biso   1.000  N
  N15      1.0000 0.66300  0.46790  0.04609  Biso   1.000  N
  N16      1.0000 0.69620  0.03790  0.04951  Biso   1.000  N
  O49      1.0000 0.50770  0.16930  0.80927  Biso   1.000  O
  O50      1.0000 0.50150  0.30270  0.79643  Biso   1.000  O
  O51      1.0000 0.64410  0.16920  0.75539  Biso   1.000  O
  O52      1.0000 0.69460  0.30290  0.75530  Biso   1.000  O
  O53      1.0000 0.87390  0.30070  0.80284  Biso   1.000  O
  O54      1.0000 0.85600  0.16660  0.79396  Biso   1.000  O
  O55      1.0000 0.71980  0.14880  0.84705  Biso   1.000  O
  O56      1.0000 0.69040  0.28450  0.84599  Biso   1.000  O
  O57      1.0000 0.50090  0.30870  0.04271  Biso   1.000  O
  O58      1.0000 0.50160  0.17650  0.05820  Biso   1.000  O
  O59      1.0000 0.70920  0.32030  0.00361  Biso   1.000  O
  O60      1.0000 0.65530  0.18720  0.00659  Biso   1.000  O
  O61      1.0000 0.86030  0.32250  0.05815  Biso   1.000  O
  O62      1.0000 0.86570  0.18810  0.04735  Biso   1.000  O
  O63      1.0000 0.65670  0.17370  0.59456  Biso   1.000  O
  O64      1.0000 0.71420  0.30720  0.59749  Biso   1.000  O
  Zn13     1.0000 0.68114  0.13969  0.80110  Biso   1.000  Zn
  Zn14     1.0000 0.68828  0.32057  0.80150  Biso   1.000  Zn
  Zn15     1.0000 0.67996  0.34426  0.04832  Biso   1.000  Zn
  Zn16     1.0000 0.68460  0.16270  0.05213  Biso   1.000  Zn
