data_image0
_cell_length_a       24.05
_cell_length_b       12.458
_cell_length_c       18.14
_cell_angle_alpha    90
_cell_angle_beta     104.466
_cell_angle_gamma    90

_symmetry_space_group_name_H-M    "P 1"
_symmetry_int_tables_number       1

loop_
  _symmetry_equiv_pos_as_xyz
  'x, y, z'

loop_
  _atom_site_label
  _atom_site_occupancy
  _atom_site_fract_x
  _atom_site_fract_y
  _atom_site_fract_z
  _atom_site_thermal_displace_type
  _atom_site_B_iso_or_equiv
  _atom_site_type_symbol
  Na1      1.0000 0.08198  0.02470  0.10670  Biso   1.000  Na
  Fe1      1.0000 0.64219  0.23009  0.58440  Biso   1.000  Fe
  Zn1      1.0000 0.14402  0.16886  0.23442  Biso   1.000  Zn
  C1       1.0000 0.20660  0.06820  0.13780  Biso   1.000  C
  C2       1.0000 0.26300  0.02260  0.13630  Biso   1.000  C
  C3       1.0000 0.26920  0.95540  0.07730  Biso   1.000  C
  H1       1.0000 0.23760  0.93980  0.03740  Biso   1.000  H
  C4       1.0000 0.32200  0.91250  0.07830  Biso   1.000  C
  C5       1.0000 0.36870  0.93120  0.14080  Biso   1.000  C
  H2       1.0000 0.40400  0.89950  0.14210  Biso   1.000  H
  C6       1.0000 0.36340  0.99620  0.20070  Biso   1.000  C
  C7       1.0000 0.30990  0.04310  0.19540  Biso   1.000  C
  H3       1.0000 0.30580  0.09020  0.23340  Biso   1.000  H
  C8       1.0000 0.33220  0.84430  0.01490  Biso   1.000  C
  C9       1.0000 0.41370  0.01050  0.26600  Biso   1.000  C
  H4       1.0000 0.42500  0.94180  0.29030  Biso   1.000  H
  H5       1.0000 0.44570  0.03870  0.24850  Biso   1.000  H
  C10      1.0000 0.44420  0.10570  0.38380  Biso   1.000  C
  C11      1.0000 0.49820  0.06790  0.39540  Biso   1.000  C
  H6       1.0000 0.50800  0.02140  0.36060  Biso   1.000  H
  C12      1.0000 0.53950  0.10020  0.46130  Biso   1.000  C
  C13      1.0000 0.52490  0.17110  0.51560  Biso   1.000  C
  C14      1.0000 0.46760  0.20600  0.50270  Biso   1.000  C
  C15      1.0000 0.42820  0.17320  0.43650  Biso   1.000  C
  H7       1.0000 0.39040  0.19690  0.42710  Biso   1.000  H
  C16      1.0000 0.44880  0.28350  0.55760  Biso   1.000  C
  C17      1.0000 0.47760  0.39230  0.55520  Biso   1.000  C
  H8       1.0000 0.51850  0.38310  0.56780  Biso   1.000  H
  H9       1.0000 0.46740  0.43990  0.59130  Biso   1.000  H
  H10      1.0000 0.46500  0.42220  0.50500  Biso   1.000  H
  C18      1.0000 0.38490  0.30250  0.53840  Biso   1.000  C
  H11      1.0000 0.36540  0.23540  0.53930  Biso   1.000  H
  H12      1.0000 0.37280  0.33370  0.48860  Biso   1.000  H
  H13      1.0000 0.37580  0.35040  0.57520  Biso   1.000  H
  C19      1.0000 0.46610  0.23650  0.64200  Biso   1.000  C
  H14      1.0000 0.44790  0.16810  0.64300  Biso   1.000  H
  H15      1.0000 0.45380  0.28520  0.67580  Biso   1.000  H
  H16      1.0000 0.50700  0.22790  0.65800  Biso   1.000  H
  C20      1.0000 0.59700  0.05590  0.47160  Biso   1.000  C
  H17      1.0000 0.60110  0.99530  0.44360  Biso   1.000  H
  C21      1.0000 0.69610  0.03850  0.53060  Biso   1.000  C
  H18      1.0000 0.72390  0.07940  0.51150  Biso   1.000  H
  H19      1.0000 0.69140  0.96860  0.50630  Biso   1.000  H
  C22      1.0000 0.71560  0.02710  0.61670  Biso   1.000  C
  H20      1.0000 0.69370  0.97120  0.63380  Biso   1.000  H
  H21      1.0000 0.75590  0.00770  0.63180  Biso   1.000  H
  C23      1.0000 0.74030  0.15660  0.71580  Biso   1.000  C
  H22      1.0000 0.76960  0.10850  0.73670  Biso   1.000  H
  C24      1.0000 0.73730  0.25130  0.75790  Biso   1.000  C
  C25      1.0000 0.77970  0.26140  0.82970  Biso   1.000  C
  H23      1.0000 0.80570  0.20630  0.84730  Biso   1.000  H
  C26      1.0000 0.78100  0.35270  0.87090  Biso   1.000  C
  C27      1.0000 0.74250  0.43460  0.84500  Biso   1.000  C
  H24      1.0000 0.74450  0.49630  0.87440  Biso   1.000  H
  C28      1.0000 0.70040  0.42860  0.77620  Biso   1.000  C
  C29      1.0000 0.69720  0.33280  0.73320  Biso   1.000  C
  C30      1.0000 0.65730  0.52180  0.74980  Biso   1.000  C
  C31      1.0000 0.65950  0.55660  0.66920  Biso   1.000  C
  H25      1.0000 0.69770  0.58020  0.67000  Biso   1.000  H
  H26      1.0000 0.63300  0.61430  0.65240  Biso   1.000  H
  H27      1.0000 0.64940  0.49690  0.63500  Biso   1.000  H
  C32      1.0000 0.59700  0.48300  0.74800  Biso   1.000  C
  H28      1.0000 0.57010  0.54050  0.73150  Biso   1.000  H
  H29      1.0000 0.59550  0.46020  0.79800  Biso   1.000  H
  H30      1.0000 0.58720  0.42390  0.71320  Biso   1.000  H
  C33      1.0000 0.67130  0.62140  0.80140  Biso   1.000  C
  H31      1.0000 0.70940  0.64590  0.80260  Biso   1.000  H
  H32      1.0000 0.66920  0.60300  0.85200  Biso   1.000  H
  H33      1.0000 0.64420  0.67730  0.78180  Biso   1.000  H
  C34      1.0000 0.85200  0.28240  0.97310  Biso   1.000  C
  H34      1.0000 0.87500  0.25690  0.93970  Biso   1.000  H
  H35      1.0000 0.82680  0.22460  0.98010  Biso   1.000  H
  C35      1.0000 0.89080  0.31340  0.04900  Biso   1.000  C
  C36      1.0000 0.94470  0.26460  0.07020  Biso   1.000  C
  H36      1.0000 0.95570  0.21870  0.03590  Biso   1.000  H
  C37      1.0000 0.98160  0.28150  0.13890  Biso   1.000  C
  C38      1.0000 0.96520  0.34960  0.18750  Biso   1.000  C
  H37      1.0000 0.98990  0.36150  0.23510  Biso   1.000  H
  C39      1.0000 0.91480  0.40030  0.16920  Biso   1.000  C
  C40      1.0000 0.87620  0.38180  0.10070  Biso   1.000  C
  H38      1.0000 0.84050  0.41520  0.08930  Biso   1.000  H
  C41      1.0000 0.89670  0.47560  0.22440  Biso   1.000  C
  C42      1.0000 0.04190  0.23010  0.15750  Biso   1.000  C
  N1       1.0000 0.70660  0.13060  0.65140  Biso   1.000  N
  N2       1.0000 0.64210  0.09440  0.51650  Biso   1.000  N
  O1       1.0000 0.20350  0.13680  0.18590  Biso   1.000  O
  O2       1.0000 0.16370  0.02640  0.09310  Biso   1.000  O
  O3       1.0000 0.28980  0.80150  0.96790  Biso   1.000  O
  O4       1.0000 0.38200  0.83190  0.00790  Biso   1.000  O
  O5       1.0000 0.05230  0.17250  0.10550  Biso   1.000  O
  O6       1.0000 0.06920  0.23470  0.21710  Biso   1.000  O
  O7       1.0000 0.92850  0.47560  0.28910  Biso   1.000  O
  O8       1.0000 0.86080  0.54160  0.19910  Biso   1.000  O
  O9       1.0000 0.39964  0.08290  0.31960  Biso   1.000  O
  O10      1.0000 0.81930  0.37010  0.93980  Biso   1.000  O
  O11      1.0000 0.56406  0.19680  0.57830  Biso   1.000  O
  O12      1.0000 0.65612  0.32130  0.66880  Biso   1.000  O
  Na2      1.0000 0.91802  0.52470  0.39330  Biso   1.000  Na
  Fe2      1.0000 0.35781  0.73009  0.91560  Biso   1.000  Fe
  Zn2      1.0000 0.85598  0.66886  0.26558  Biso   1.000  Zn
  C43      1.0000 0.79340  0.56820  0.36220  Biso   1.000  C
  C44      1.0000 0.73700  0.52260  0.36370  Biso   1.000  C
  C45      1.0000 0.73080  0.45540  0.42270  Biso   1.000  C
  H39      1.0000 0.76240  0.43980  0.46260  Biso   1.000  H
  C46      1.0000 0.67800  0.41250  0.42170  Biso   1.000  C
  C47      1.0000 0.63130  0.43120  0.35920  Biso   1.000  C
  H40      1.0000 0.59600  0.39950  0.35790  Biso   1.000  H
  C48      1.0000 0.63660  0.49620  0.29930  Biso   1.000  C
  C49      1.0000 0.69010  0.54310  0.30460  Biso   1.000  C
  H41      1.0000 0.69420  0.59020  0.26660  Biso   1.000  H
  C50      1.0000 0.66780  0.34430  0.48510  Biso   1.000  C
  C51      1.0000 0.58630  0.51050  0.23400  Biso   1.000  C
  H42      1.0000 0.57500  0.44180  0.20970  Biso   1.000  H
  H43      1.0000 0.55430  0.53870  0.25150  Biso   1.000  H
  C52      1.0000 0.55580  0.60570  0.11620  Biso   1.000  C
  C53      1.0000 0.50180  0.56790  0.10460  Biso   1.000  C
  H44      1.0000 0.49200  0.52140  0.13940  Biso   1.000  H
  C54      1.0000 0.46050  0.60020  0.03870  Biso   1.000  C
  C55      1.0000 0.47510  0.67110  0.98440  Biso   1.000  C
  C56      1.0000 0.53240  0.70600  0.99730  Biso   1.000  C
  C57      1.0000 0.57180  0.67320  0.06350  Biso   1.000  C
  H45      1.0000 0.60960  0.69690  0.07290  Biso   1.000  H
  C58      1.0000 0.55120  0.78350  0.94240  Biso   1.000  C
  C59      1.0000 0.52240  0.89230  0.94480  Biso   1.000  C
  H46      1.0000 0.48150  0.88310  0.93220  Biso   1.000  H
  H47      1.0000 0.53260  0.93990  0.90870  Biso   1.000  H
  H48      1.0000 0.53500  0.92220  0.99500  Biso   1.000  H
  C60      1.0000 0.61510  0.80250  0.96160  Biso   1.000  C
  H49      1.0000 0.63460  0.73540  0.96070  Biso   1.000  H
  H50      1.0000 0.62720  0.83370  0.01140  Biso   1.000  H
  H51      1.0000 0.62420  0.85040  0.92480  Biso   1.000  H
  C61      1.0000 0.53390  0.73650  0.85800  Biso   1.000  C
  H52      1.0000 0.55210  0.66810  0.85700  Biso   1.000  H
  H53      1.0000 0.54620  0.78520  0.82420  Biso   1.000  H
  H54      1.0000 0.49300  0.72790  0.84200  Biso   1.000  H
  C62      1.0000 0.40300  0.55590  0.02840  Biso   1.000  C
  H55      1.0000 0.39890  0.49530  0.05640  Biso   1.000  H
  C63      1.0000 0.30390  0.53850  0.96940  Biso   1.000  C
  H56      1.0000 0.27610  0.57940  0.98850  Biso   1.000  H
  H57      1.0000 0.30860  0.46860  0.99370  Biso   1.000  H
  C64      1.0000 0.28440  0.52710  0.88330  Biso   1.000  C
  H58      1.0000 0.30630  0.47120  0.86620  Biso   1.000  H
  H59      1.0000 0.24410  0.50770  0.86820  Biso   1.000  H
  C65      1.0000 0.25970  0.65660  0.78420  Biso   1.000  C
  H60      1.0000 0.23040  0.60850  0.76330  Biso   1.000  H
  C66      1.0000 0.26270  0.75130  0.74210  Biso   1.000  C
  C67      1.0000 0.22030  0.76140  0.67030  Biso   1.000  C
  H61      1.0000 0.19430  0.70630  0.65270  Biso   1.000  H
  C68      1.0000 0.21900  0.85270  0.62910  Biso   1.000  C
  C69      1.0000 0.25750  0.93460  0.65500  Biso   1.000  C
  H62      1.0000 0.25550  0.99630  0.62560  Biso   1.000  H
  C70      1.0000 0.29960  0.92860  0.72380  Biso   1.000  C
  C71      1.0000 0.30280  0.83280  0.76680  Biso   1.000  C
  C72      1.0000 0.34270  0.02180  0.75020  Biso   1.000  C
  C73      1.0000 0.34050  0.05660  0.83080  Biso   1.000  C
  H63      1.0000 0.30230  0.08020  0.83000  Biso   1.000  H
  H64      1.0000 0.36700  0.11430  0.84760  Biso   1.000  H
  H65      1.0000 0.35060  0.99690  0.86500  Biso   1.000  H
  C74      1.0000 0.40300  0.98300  0.75200  Biso   1.000  C
  H66      1.0000 0.42990  0.04050  0.76850  Biso   1.000  H
  H67      1.0000 0.40450  0.96020  0.70200  Biso   1.000  H
  H68      1.0000 0.41280  0.92390  0.78680  Biso   1.000  H
  C75      1.0000 0.32870  0.12140  0.69860  Biso   1.000  C
  H69      1.0000 0.29060  0.14590  0.69740  Biso   1.000  H
  H70      1.0000 0.33080  0.10300  0.64800  Biso   1.000  H
  H71      1.0000 0.35580  0.17730  0.71820  Biso   1.000  H
  C76      1.0000 0.14800  0.78240  0.52690  Biso   1.000  C
  H72      1.0000 0.12500  0.75690  0.56030  Biso   1.000  H
  H73      1.0000 0.17320  0.72460  0.51990  Biso   1.000  H
  C77      1.0000 0.10920  0.81340  0.45100  Biso   1.000  C
  C78      1.0000 0.05530  0.76460  0.42980  Biso   1.000  C
  H74      1.0000 0.04430  0.71870  0.46410  Biso   1.000  H
  C79      1.0000 0.01840  0.78150  0.36110  Biso   1.000  C
  C80      1.0000 0.03480  0.84960  0.31250  Biso   1.000  C
  H75      1.0000 0.01010  0.86150  0.26490  Biso   1.000  H
  C81      1.0000 0.08520  0.90030  0.33080  Biso   1.000  C
  C82      1.0000 0.12380  0.88180  0.39930  Biso   1.000  C
  H76      1.0000 0.15950  0.91520  0.41070  Biso   1.000  H
  C83      1.0000 0.10330  0.97560  0.27560  Biso   1.000  C
  C84      1.0000 0.95810  0.73010  0.34250  Biso   1.000  C
  N3       1.0000 0.29340  0.63060  0.84860  Biso   1.000  N
  N4       1.0000 0.35790  0.59440  0.98350  Biso   1.000  N
  O13      1.0000 0.79650  0.63680  0.31410  Biso   1.000  O
  O14      1.0000 0.83630  0.52640  0.40690  Biso   1.000  O
  O15      1.0000 0.71020  0.30150  0.53210  Biso   1.000  O
  O16      1.0000 0.61800  0.33190  0.49210  Biso   1.000  O
  O17      1.0000 0.94770  0.67250  0.39450  Biso   1.000  O
  O18      1.0000 0.93080  0.73470  0.28290  Biso   1.000  O
  O19      1.0000 0.07150  0.97560  0.21090  Biso   1.000  O
  O20      1.0000 0.13920  0.04160  0.30090  Biso   1.000  O
  O21      1.0000 0.60036  0.58290  0.18040  Biso   1.000  O
  O22      1.0000 0.18070  0.87010  0.56020  Biso   1.000  O
  O23      1.0000 0.43594  0.69680  0.92170  Biso   1.000  O
  O24      1.0000 0.34388  0.82130  0.83120  Biso   1.000  O
  Na3      1.0000 0.91802  0.97530  0.89330  Biso   1.000  Na
  Fe3      1.0000 0.35781  0.76991  0.41560  Biso   1.000  Fe
  Zn3      1.0000 0.85598  0.83114  0.76558  Biso   1.000  Zn
  C85      1.0000 0.79340  0.93180  0.86220  Biso   1.000  C
  C86      1.0000 0.73700  0.97740  0.86370  Biso   1.000  C
  C87      1.0000 0.73080  0.04460  0.92270  Biso   1.000  C
  H77      1.0000 0.76240  0.06020  0.96260  Biso   1.000  H
  C88      1.0000 0.67800  0.08750  0.92170  Biso   1.000  C
  C89      1.0000 0.63130  0.06880  0.85920  Biso   1.000  C
  H78      1.0000 0.59600  0.10050  0.85790  Biso   1.000  H
  C90      1.0000 0.63660  0.00380  0.79930  Biso   1.000  C
  C91      1.0000 0.69010  0.95690  0.80460  Biso   1.000  C
  H79      1.0000 0.69420  0.90980  0.76660  Biso   1.000  H
  C92      1.0000 0.66780  0.15570  0.98510  Biso   1.000  C
  C93      1.0000 0.58630  0.98950  0.73400  Biso   1.000  C
  H80      1.0000 0.57500  0.05820  0.70970  Biso   1.000  H
  H81      1.0000 0.55430  0.96130  0.75150  Biso   1.000  H
  C94      1.0000 0.55580  0.89430  0.61620  Biso   1.000  C
  C95      1.0000 0.50180  0.93210  0.60460  Biso   1.000  C
  H82      1.0000 0.49200  0.97860  0.63940  Biso   1.000  H
  C96      1.0000 0.46050  0.89980  0.53870  Biso   1.000  C
  C97      1.0000 0.47510  0.82890  0.48440  Biso   1.000  C
  C98      1.0000 0.53240  0.79400  0.49730  Biso   1.000  C
  C99      1.0000 0.57180  0.82680  0.56350  Biso   1.000  C
  H83      1.0000 0.60960  0.80310  0.57290  Biso   1.000  H
  C100     1.0000 0.55120  0.71650  0.44240  Biso   1.000  C
  C101     1.0000 0.52240  0.60770  0.44480  Biso   1.000  C
  H84      1.0000 0.48150  0.61690  0.43220  Biso   1.000  H
  H85      1.0000 0.53260  0.56010  0.40870  Biso   1.000  H
  H86      1.0000 0.53500  0.57780  0.49500  Biso   1.000  H
  C102     1.0000 0.61510  0.69750  0.46160  Biso   1.000  C
  H87      1.0000 0.63460  0.76460  0.46070  Biso   1.000  H
  H88      1.0000 0.62720  0.66630  0.51140  Biso   1.000  H
  H89      1.0000 0.62420  0.64960  0.42480  Biso   1.000  H
  C103     1.0000 0.53390  0.76350  0.35800  Biso   1.000  C
  H90      1.0000 0.55210  0.83190  0.35700  Biso   1.000  H
  H91      1.0000 0.54620  0.71480  0.32420  Biso   1.000  H
  H92      1.0000 0.49300  0.77210  0.34200  Biso   1.000  H
  C104     1.0000 0.40300  0.94410  0.52840  Biso   1.000  C
  H93      1.0000 0.39890  0.00470  0.55640  Biso   1.000  H
  C105     1.0000 0.30390  0.96150  0.46940  Biso   1.000  C
  H94      1.0000 0.27610  0.92060  0.48850  Biso   1.000  H
  H95      1.0000 0.30860  0.03140  0.49370  Biso   1.000  H
  C106     1.0000 0.28440  0.97290  0.38330  Biso   1.000  C
  H96      1.0000 0.30630  0.02880  0.36620  Biso   1.000  H
  H97      1.0000 0.24410  0.99230  0.36820  Biso   1.000  H
  C107     1.0000 0.25970  0.84340  0.28420  Biso   1.000  C
  H98      1.0000 0.23040  0.89150  0.26330  Biso   1.000  H
  C108     1.0000 0.26270  0.74870  0.24210  Biso   1.000  C
  C109     1.0000 0.22030  0.73860  0.17030  Biso   1.000  C
  H99      1.0000 0.19430  0.79370  0.15270  Biso   1.000  H
  C110     1.0000 0.21900  0.64730  0.12910  Biso   1.000  C
  C111     1.0000 0.25750  0.56540  0.15500  Biso   1.000  C
  H100     1.0000 0.25550  0.50370  0.12560  Biso   1.000  H
  C112     1.0000 0.29960  0.57140  0.22380  Biso   1.000  C
  C113     1.0000 0.30280  0.66720  0.26680  Biso   1.000  C
  C114     1.0000 0.34270  0.47820  0.25020  Biso   1.000  C
  C115     1.0000 0.34050  0.44340  0.33080  Biso   1.000  C
  H101     1.0000 0.30230  0.41980  0.33000  Biso   1.000  H
  H102     1.0000 0.36700  0.38570  0.34760  Biso   1.000  H
  H103     1.0000 0.35060  0.50310  0.36500  Biso   1.000  H
  C116     1.0000 0.40300  0.51700  0.25200  Biso   1.000  C
  H104     1.0000 0.42990  0.45950  0.26850  Biso   1.000  H
  H105     1.0000 0.40450  0.53980  0.20200  Biso   1.000  H
  H106     1.0000 0.41280  0.57610  0.28680  Biso   1.000  H
  C117     1.0000 0.32870  0.37860  0.19860  Biso   1.000  C
  H107     1.0000 0.29060  0.35410  0.19740  Biso   1.000  H
  H108     1.0000 0.33080  0.39700  0.14800  Biso   1.000  H
  H109     1.0000 0.35580  0.32270  0.21820  Biso   1.000  H
  C118     1.0000 0.14800  0.71760  0.02690  Biso   1.000  C
  H110     1.0000 0.12500  0.74310  0.06030  Biso   1.000  H
  H111     1.0000 0.17320  0.77540  0.01990  Biso   1.000  H
  C119     1.0000 0.10920  0.68660  0.95100  Biso   1.000  C
  C120     1.0000 0.05530  0.73540  0.92980  Biso   1.000  C
  H112     1.0000 0.04430  0.78130  0.96410  Biso   1.000  H
  C121     1.0000 0.01840  0.71850  0.86110  Biso   1.000  C
  C122     1.0000 0.03480  0.65040  0.81250  Biso   1.000  C
  H113     1.0000 0.01010  0.63850  0.76490  Biso   1.000  H
  C123     1.0000 0.08520  0.59970  0.83080  Biso   1.000  C
  C124     1.0000 0.12380  0.61820  0.89930  Biso   1.000  C
  H114     1.0000 0.15950  0.58480  0.91070  Biso   1.000  H
  C125     1.0000 0.10330  0.52440  0.77560  Biso   1.000  C
  C126     1.0000 0.95810  0.76990  0.84250  Biso   1.000  C
  N5       1.0000 0.29340  0.86940  0.34860  Biso   1.000  N
  N6       1.0000 0.35790  0.90560  0.48350  Biso   1.000  N
  O25      1.0000 0.79650  0.86320  0.81410  Biso   1.000  O
  O26      1.0000 0.83630  0.97360  0.90690  Biso   1.000  O
  O27      1.0000 0.71020  0.19850  0.03210  Biso   1.000  O
  O28      1.0000 0.61800  0.16810  0.99210  Biso   1.000  O
  O29      1.0000 0.94770  0.82750  0.89450  Biso   1.000  O
  O30      1.0000 0.93080  0.76530  0.78290  Biso   1.000  O
  O31      1.0000 0.07150  0.52440  0.71090  Biso   1.000  O
  O32      1.0000 0.13920  0.45840  0.80090  Biso   1.000  O
  O33      1.0000 0.60036  0.91710  0.68040  Biso   1.000  O
  O34      1.0000 0.18070  0.62990  0.06020  Biso   1.000  O
  O35      1.0000 0.43594  0.80320  0.42170  Biso   1.000  O
  O36      1.0000 0.34388  0.67870  0.33120  Biso   1.000  O
  Na4      1.0000 0.08198  0.47530  0.60670  Biso   1.000  Na
  Fe4      1.0000 0.64219  0.26991  0.08440  Biso   1.000  Fe
  Zn4      1.0000 0.14402  0.33114  0.73442  Biso   1.000  Zn
  C127     1.0000 0.20660  0.43180  0.63780  Biso   1.000  C
  C128     1.0000 0.26300  0.47740  0.63630  Biso   1.000  C
  C129     1.0000 0.26920  0.54460  0.57730  Biso   1.000  C
  H115     1.0000 0.23760  0.56020  0.53740  Biso   1.000  H
  C130     1.0000 0.32200  0.58750  0.57830  Biso   1.000  C
  C131     1.0000 0.36870  0.56880  0.64080  Biso   1.000  C
  H116     1.0000 0.40400  0.60050  0.64210  Biso   1.000  H
  C132     1.0000 0.36340  0.50380  0.70070  Biso   1.000  C
  C133     1.0000 0.30990  0.45690  0.69540  Biso   1.000  C
  H117     1.0000 0.30580  0.40980  0.73340  Biso   1.000  H
  C134     1.0000 0.33220  0.65570  0.51490  Biso   1.000  C
  C135     1.0000 0.41370  0.48950  0.76600  Biso   1.000  C
  H118     1.0000 0.42500  0.55820  0.79030  Biso   1.000  H
  H119     1.0000 0.44570  0.46130  0.74850  Biso   1.000  H
  C136     1.0000 0.44420  0.39430  0.88380  Biso   1.000  C
  C137     1.0000 0.49820  0.43210  0.89540  Biso   1.000  C
  H120     1.0000 0.50800  0.47860  0.86060  Biso   1.000  H
  C138     1.0000 0.53950  0.39980  0.96130  Biso   1.000  C
  C139     1.0000 0.52490  0.32890  0.01560  Biso   1.000  C
  C140     1.0000 0.46760  0.29400  0.00270  Biso   1.000  C
  C141     1.0000 0.42820  0.32680  0.93650  Biso   1.000  C
  H121     1.0000 0.39040  0.30310  0.92710  Biso   1.000  H
  C142     1.0000 0.44880  0.21650  0.05760  Biso   1.000  C
  C143     1.0000 0.47760  0.10770  0.05520  Biso   1.000  C
  H122     1.0000 0.51850  0.11690  0.06780  Biso   1.000  H
  H123     1.0000 0.46740  0.06010  0.09130  Biso   1.000  H
  H124     1.0000 0.46500  0.07780  0.00500  Biso   1.000  H
  C144     1.0000 0.38490  0.19750  0.03840  Biso   1.000  C
  H125     1.0000 0.36540  0.26460  0.03930  Biso   1.000  H
  H126     1.0000 0.37280  0.16630  0.98860  Biso   1.000  H
  H127     1.0000 0.37580  0.14960  0.07520  Biso   1.000  H
  C145     1.0000 0.46610  0.26350  0.14200  Biso   1.000  C
  H128     1.0000 0.44790  0.33190  0.14300  Biso   1.000  H
  H129     1.0000 0.45380  0.21480  0.17580  Biso   1.000  H
  H130     1.0000 0.50700  0.27210  0.15800  Biso   1.000  H
  C146     1.0000 0.59700  0.44410  0.97160  Biso   1.000  C
  H131     1.0000 0.60110  0.50470  0.94360  Biso   1.000  H
  C147     1.0000 0.69610  0.46150  0.03060  Biso   1.000  C
  H132     1.0000 0.72390  0.42060  0.01150  Biso   1.000  H
  H133     1.0000 0.69140  0.53140  0.00630  Biso   1.000  H
  C148     1.0000 0.71560  0.47290  0.11670  Biso   1.000  C
  H134     1.0000 0.69370  0.52880  0.13380  Biso   1.000  H
  H135     1.0000 0.75590  0.49230  0.13180  Biso   1.000  H
  C149     1.0000 0.74030  0.34340  0.21580  Biso   1.000  C
  H136     1.0000 0.76960  0.39150  0.23670  Biso   1.000  H
  C150     1.0000 0.73730  0.24870  0.25790  Biso   1.000  C
  C151     1.0000 0.77970  0.23860  0.32970  Biso   1.000  C
  H137     1.0000 0.80570  0.29370  0.34730  Biso   1.000  H
  C152     1.0000 0.78100  0.14730  0.37090  Biso   1.000  C
  C153     1.0000 0.74250  0.06540  0.34500  Biso   1.000  C
  H138     1.0000 0.74450  0.00370  0.37440  Biso   1.000  H
  C154     1.0000 0.70040  0.07140  0.27620  Biso   1.000  C
  C155     1.0000 0.69720  0.16720  0.23320  Biso   1.000  C
  C156     1.0000 0.65730  0.97820  0.24980  Biso   1.000  C
  C157     1.0000 0.65950  0.94340  0.16920  Biso   1.000  C
  H139     1.0000 0.69770  0.91980  0.17000  Biso   1.000  H
  H140     1.0000 0.63300  0.88570  0.15240  Biso   1.000  H
  H141     1.0000 0.64940  0.00310  0.13500  Biso   1.000  H
  C158     1.0000 0.59700  0.01700  0.24800  Biso   1.000  C
  H142     1.0000 0.57010  0.95950  0.23150  Biso   1.000  H
  H143     1.0000 0.59550  0.03980  0.29800  Biso   1.000  H
  H144     1.0000 0.58720  0.07610  0.21320  Biso   1.000  H
  C159     1.0000 0.67130  0.87860  0.30140  Biso   1.000  C
  H145     1.0000 0.70940  0.85410  0.30260  Biso   1.000  H
  H146     1.0000 0.66920  0.89700  0.35200  Biso   1.000  H
  H147     1.0000 0.64420  0.82270  0.28180  Biso   1.000  H
  C160     1.0000 0.85200  0.21760  0.47310  Biso   1.000  C
  H148     1.0000 0.87500  0.24310  0.43970  Biso   1.000  H
  H149     1.0000 0.82680  0.27540  0.48010  Biso   1.000  H
  C161     1.0000 0.89080  0.18660  0.54900  Biso   1.000  C
  C162     1.0000 0.94470  0.23540  0.57020  Biso   1.000  C
  H150     1.0000 0.95570  0.28130  0.53590  Biso   1.000  H
  C163     1.0000 0.98160  0.21850  0.63890  Biso   1.000  C
  C164     1.0000 0.96520  0.15040  0.68750  Biso   1.000  C
  H151     1.0000 0.98990  0.13850  0.73510  Biso   1.000  H
  C165     1.0000 0.91480  0.09970  0.66920  Biso   1.000  C
  C166     1.0000 0.87620  0.11820  0.60070  Biso   1.000  C
  H152     1.0000 0.84050  0.08480  0.58930  Biso   1.000  H
  C167     1.0000 0.89670  0.02440  0.72440  Biso   1.000  C
  C168     1.0000 0.04190  0.26990  0.65750  Biso   1.000  C
  N7       1.0000 0.70660  0.36940  0.15140  Biso   1.000  N
  N8       1.0000 0.64210  0.40560  0.01650  Biso   1.000  N
  O37      1.0000 0.20350  0.36320  0.68590  Biso   1.000  O
  O38      1.0000 0.16370  0.47360  0.59310  Biso   1.000  O
  O39      1.0000 0.28980  0.69850  0.46790  Biso   1.000  O
  O40      1.0000 0.38200  0.66810  0.50790  Biso   1.000  O
  O41      1.0000 0.05230  0.32750  0.60550  Biso   1.000  O
  O42      1.0000 0.06920  0.26530  0.71710  Biso   1.000  O
  O43      1.0000 0.92850  0.02440  0.78910  Biso   1.000  O
  O44      1.0000 0.86080  0.95840  0.69910  Biso   1.000  O
  O45      1.0000 0.39964  0.41710  0.81960  Biso   1.000  O
  O46      1.0000 0.81930  0.12990  0.43980  Biso   1.000  O
  O47      1.0000 0.56406  0.30320  0.07830  Biso   1.000  O
  O48      1.0000 0.65612  0.17870  0.16880  Biso   1.000  O
