data_image0
_cell_length_a       24.576
_cell_length_b       12.416
_cell_length_c       18.094
_cell_angle_alpha    90
_cell_angle_beta     102.534
_cell_angle_gamma    90

_symmetry_space_group_name_H-M    "P 1"
_symmetry_int_tables_number       1

loop_
  _symmetry_equiv_pos_as_xyz
  'x, y, z'

loop_
  _atom_site_label
  _atom_site_occupancy
  _atom_site_fract_x
  _atom_site_fract_y
  _atom_site_fract_z
  _atom_site_thermal_displace_type
  _atom_site_B_iso_or_equiv
  _atom_site_type_symbol
  Fe1      1.0000 0.13949  0.26931  0.07877  Biso   1.000  Fe
  Cd1      1.0000 0.63076  0.32710  0.71056  Biso   1.000  Cd
  C1       1.0000 0.83370  0.65400  0.52130  Biso   1.000  C
  C2       1.0000 0.82580  0.58300  0.58680  Biso   1.000  C
  C3       1.0000 0.77560  0.53760  0.58780  Biso   1.000  C
  H1       1.0000 0.74460  0.55240  0.54940  Biso   1.000  H
  C4       1.0000 0.77090  0.46770  0.64760  Biso   1.000  C
  C5       1.0000 0.81680  0.45120  0.70640  Biso   1.000  C
  H2       1.0000 0.81400  0.40490  0.74580  Biso   1.000  H
  C6       1.0000 0.86720  0.50330  0.70700  Biso   1.000  C
  C7       1.0000 0.87120  0.56800  0.64580  Biso   1.000  C
  H3       1.0000 0.90480  0.60160  0.64460  Biso   1.000  H
  C8       1.0000 0.71820  0.41840  0.65450  Biso   1.000  C
  C9       1.0000 0.91650  0.49040  0.77150  Biso   1.000  C
  H4       1.0000 0.94800  0.46340  0.75270  Biso   1.000  H
  H5       1.0000 0.92660  0.55980  0.79500  Biso   1.000  H
  C10      1.0000 0.94620  0.39510  0.88670  Biso   1.000  C
  C11      1.0000 0.93170  0.32630  0.94060  Biso   1.000  C
  H6       1.0000 0.89530  0.30080  0.93280  Biso   1.000  H
  C12      1.0000 0.96990  0.29470  0.00530  Biso   1.000  C
  C13      1.0000 0.02570  0.32940  0.01450  Biso   1.000  C
  C14      1.0000 0.03980  0.39970  0.95940  Biso   1.000  C
  C15      1.0000 0.00010  0.43270  0.89620  Biso   1.000  C
  H7       1.0000 0.00980  0.47930  0.86090  Biso   1.000  H
  C16      1.0000 0.95210  0.21760  0.06270  Biso   1.000  C
  C17      1.0000 0.88890  0.19900  0.04530  Biso   1.000  C
  H8       1.0000 0.87960  0.15090  0.08220  Biso   1.000  H
  H9       1.0000 0.87730  0.16800  0.99570  Biso   1.000  H
  H10      1.0000 0.87020  0.26650  0.04700  Biso   1.000  H
  C18      1.0000 0.98000  0.10830  0.05800  Biso   1.000  C
  H11      1.0000 0.96920  0.05920  0.09320  Biso   1.000  H
  H12      1.0000 0.01980  0.11710  0.07020  Biso   1.000  H
  H13      1.0000 0.96860  0.08020  0.00760  Biso   1.000  H
  C19      1.0000 0.96880  0.26190  0.14410  Biso   1.000  C
  H14      1.0000 0.95700  0.21250  0.17840  Biso   1.000  H
  H15      1.0000 0.95120  0.33040  0.14670  Biso   1.000  H
  H16      1.0000 0.00850  0.27030  0.15800  Biso   1.000  H
  C20      1.0000 0.09510  0.44310  0.96730  Biso   1.000  C
  H17      1.0000 0.09910  0.50390  0.93890  Biso   1.000  H
  C21      1.0000 0.19130  0.46160  0.02200  Biso   1.000  C
  H18      1.0000 0.18660  0.53120  0.99710  Biso   1.000  H
  H19      1.0000 0.21840  0.42030  0.00220  Biso   1.000  H
  C22      1.0000 0.21040  0.47540  0.10750  Biso   1.000  C
  H20      1.0000 0.24950  0.49520  0.12060  Biso   1.000  H
  H21      1.0000 0.18890  0.53160  0.12520  Biso   1.000  H
  C23      1.0000 0.23400  0.34570  0.20700  Biso   1.000  C
  H22      1.0000 0.26160  0.39510  0.22740  Biso   1.000  H
  C24      1.0000 0.23150  0.24960  0.24970  Biso   1.000  C
  C25      1.0000 0.19280  0.16590  0.22580  Biso   1.000  C
  C26      1.0000 0.19570  0.07050  0.26870  Biso   1.000  C
  C27      1.0000 0.23620  0.06560  0.33440  Biso   1.000  C
  H23      1.0000 0.23860  0.00340  0.36360  Biso   1.000  H
  C28      1.0000 0.27340  0.14810  0.35950  Biso   1.000  C
  C29      1.0000 0.27180  0.24140  0.31780  Biso   1.000  C
  H24      1.0000 0.29670  0.29740  0.33420  Biso   1.000  H
  C30      1.0000 0.15420  0.97660  0.24300  Biso   1.000  C
  C31      1.0000 0.15950  0.93990  0.16270  Biso   1.000  C
  H25      1.0000 0.13420  0.88160  0.14610  Biso   1.000  H
  H26      1.0000 0.19700  0.91640  0.16440  Biso   1.000  H
  H27      1.0000 0.15070  0.99910  0.12800  Biso   1.000  H
  C32      1.0000 0.09670  0.01470  0.24360  Biso   1.000  C
  H28      1.0000 0.07060  0.95730  0.22770  Biso   1.000  H
  H29      1.0000 0.08740  0.07460  0.20970  Biso   1.000  H
  H30      1.0000 0.09500  0.03670  0.29390  Biso   1.000  H
  C33      1.0000 0.16720  0.88110  0.29680  Biso   1.000  C
  H31      1.0000 0.14110  0.82410  0.27950  Biso   1.000  H
  H32      1.0000 0.16420  0.90290  0.34670  Biso   1.000  H
  H33      1.0000 0.20430  0.85620  0.29810  Biso   1.000  H
  C34      1.0000 0.34200  0.22060  0.45970  Biso   1.000  C
  H34      1.0000 0.31760  0.27720  0.47030  Biso   1.000  H
  H35      1.0000 0.36350  0.24830  0.42480  Biso   1.000  H
  C35      1.0000 0.38050  0.18310  0.53240  Biso   1.000  C
  C36      1.0000 0.36580  0.10880  0.58010  Biso   1.000  C
  H36      1.0000 0.33080  0.07700  0.56690  Biso   1.000  H
  C37      1.0000 0.40120  0.07920  0.64720  Biso   1.000  C
  C38      1.0000 0.45170  0.13110  0.66920  Biso   1.000  C
  H37      1.0000 0.47520  0.11420  0.71530  Biso   1.000  H
  C39      1.0000 0.46740  0.20730  0.62350  Biso   1.000  C
  C40      1.0000 0.43240  0.23330  0.55470  Biso   1.000  C
  H38      1.0000 0.44350  0.28430  0.52340  Biso   1.000  H
  C41      1.0000 0.38540  0.99190  0.69470  Biso   1.000  C
  C42      1.0000 0.52350  0.25680  0.64790  Biso   1.000  C
  N1       1.0000 0.13890  0.40530  0.00980  Biso   1.000  N
  N2       1.0000 0.20150  0.37080  0.14280  Biso   1.000  N
  O1       1.0000 0.71690  0.35010  0.70510  Biso   1.000  O
  O2       1.0000 0.79370  0.69480  0.47750  Biso   1.000  O
  O3       1.0000 0.88250  0.66730  0.51030  Biso   1.000  O
  O4       1.0000 0.90403  0.41850  0.82530  Biso   1.000  O
  O5       1.0000 0.06369  0.30010  0.07580  Biso   1.000  O
  O6       1.0000 0.15381  0.17760  0.16300  Biso   1.000  O
  O7       1.0000 0.31060  0.13040  0.42830  Biso   1.000  O
  O8       1.0000 0.35180  0.92030  0.66800  Biso   1.000  O
  O9       1.0000 0.55130  0.23910  0.71170  Biso   1.000  O
  O10      1.0000 0.53850  0.31610  0.60370  Biso   1.000  O
  O11      1.0000 0.67780  0.44260  0.61300  Biso   1.000  O
  O12      1.0000 0.40780  0.98170  0.75750  Biso   1.000  O
  Fe2      1.0000 0.86051  0.76931  0.42123  Biso   1.000  Fe
  Cd2      1.0000 0.36924  0.82710  0.78944  Biso   1.000  Cd
  C43      1.0000 0.16630  0.15400  0.97870  Biso   1.000  C
  C44      1.0000 0.17420  0.08300  0.91320  Biso   1.000  C
  C45      1.0000 0.22440  0.03760  0.91220  Biso   1.000  C
  H39      1.0000 0.25540  0.05240  0.95060  Biso   1.000  H
  C46      1.0000 0.22910  0.96770  0.85240  Biso   1.000  C
  C47      1.0000 0.18320  0.95120  0.79360  Biso   1.000  C
  H40      1.0000 0.18600  0.90490  0.75420  Biso   1.000  H
  C48      1.0000 0.13280  0.00330  0.79300  Biso   1.000  C
  C49      1.0000 0.12880  0.06800  0.85420  Biso   1.000  C
  H41      1.0000 0.09520  0.10160  0.85540  Biso   1.000  H
  C50      1.0000 0.28180  0.91840  0.84550  Biso   1.000  C
  C51      1.0000 0.08350  0.99040  0.72850  Biso   1.000  C
  H42      1.0000 0.05200  0.96340  0.74730  Biso   1.000  H
  H43      1.0000 0.07340  0.05980  0.70500  Biso   1.000  H
  C52      1.0000 0.05380  0.89510  0.61330  Biso   1.000  C
  C53      1.0000 0.06830  0.82630  0.55940  Biso   1.000  C
  H44      1.0000 0.10470  0.80080  0.56720  Biso   1.000  H
  C54      1.0000 0.03010  0.79470  0.49470  Biso   1.000  C
  C55      1.0000 0.97430  0.82940  0.48550  Biso   1.000  C
  C56      1.0000 0.96020  0.89970  0.54060  Biso   1.000  C
  C57      1.0000 0.99990  0.93270  0.60380  Biso   1.000  C
  H45      1.0000 0.99020  0.97930  0.63910  Biso   1.000  H
  C58      1.0000 0.04790  0.71760  0.43730  Biso   1.000  C
  C59      1.0000 0.11110  0.69900  0.45470  Biso   1.000  C
  H46      1.0000 0.12040  0.65090  0.41780  Biso   1.000  H
  H47      1.0000 0.12270  0.66800  0.50430  Biso   1.000  H
  H48      1.0000 0.12980  0.76650  0.45300  Biso   1.000  H
  C60      1.0000 0.02000  0.60830  0.44200  Biso   1.000  C
  H49      1.0000 0.03080  0.55920  0.40680  Biso   1.000  H
  H50      1.0000 0.98020  0.61710  0.42980  Biso   1.000  H
  H51      1.0000 0.03140  0.58020  0.49240  Biso   1.000  H
  C61      1.0000 0.03120  0.76190  0.35590  Biso   1.000  C
  H52      1.0000 0.04300  0.71250  0.32160  Biso   1.000  H
  H53      1.0000 0.04880  0.83040  0.35330  Biso   1.000  H
  H54      1.0000 0.99150  0.77030  0.34200  Biso   1.000  H
  C62      1.0000 0.90490  0.94310  0.53270  Biso   1.000  C
  H55      1.0000 0.90090  0.00390  0.56110  Biso   1.000  H
  C63      1.0000 0.80870  0.96160  0.47800  Biso   1.000  C
  H56      1.0000 0.81340  0.03120  0.50290  Biso   1.000  H
  H57      1.0000 0.78160  0.92030  0.49780  Biso   1.000  H
  C64      1.0000 0.78960  0.97540  0.39250  Biso   1.000  C
  H58      1.0000 0.75050  0.99520  0.37940  Biso   1.000  H
  H59      1.0000 0.81110  0.03160  0.37480  Biso   1.000  H
  C65      1.0000 0.76600  0.84570  0.29300  Biso   1.000  C
  H60      1.0000 0.73840  0.89510  0.27260  Biso   1.000  H
  C66      1.0000 0.76850  0.74960  0.25030  Biso   1.000  C
  C67      1.0000 0.80720  0.66590  0.27420  Biso   1.000  C
  C68      1.0000 0.80430  0.57050  0.23130  Biso   1.000  C
  C69      1.0000 0.76380  0.56560  0.16560  Biso   1.000  C
  H61      1.0000 0.76140  0.50340  0.13640  Biso   1.000  H
  C70      1.0000 0.72660  0.64810  0.14050  Biso   1.000  C
  C71      1.0000 0.72820  0.74140  0.18220  Biso   1.000  C
  H62      1.0000 0.70330  0.79740  0.16580  Biso   1.000  H
  C72      1.0000 0.84580  0.47660  0.25700  Biso   1.000  C
  C73      1.0000 0.84050  0.43990  0.33730  Biso   1.000  C
  H63      1.0000 0.86580  0.38160  0.35390  Biso   1.000  H
  H64      1.0000 0.80300  0.41640  0.33560  Biso   1.000  H
  H65      1.0000 0.84930  0.49910  0.37200  Biso   1.000  H
  C74      1.0000 0.90330  0.51470  0.25640  Biso   1.000  C
  H66      1.0000 0.92940  0.45730  0.27230  Biso   1.000  H
  H67      1.0000 0.91260  0.57460  0.29030  Biso   1.000  H
  H68      1.0000 0.90500  0.53670  0.20610  Biso   1.000  H
  C75      1.0000 0.83280  0.38110  0.20320  Biso   1.000  C
  H69      1.0000 0.85890  0.32410  0.22050  Biso   1.000  H
  H70      1.0000 0.83580  0.40290  0.15330  Biso   1.000  H
  H71      1.0000 0.79570  0.35620  0.20190  Biso   1.000  H
  C76      1.0000 0.65800  0.72060  0.04030  Biso   1.000  C
  H72      1.0000 0.68240  0.77720  0.02970  Biso   1.000  H
  H73      1.0000 0.63650  0.74830  0.07520  Biso   1.000  H
  C77      1.0000 0.61950  0.68310  0.96760  Biso   1.000  C
  C78      1.0000 0.63420  0.60880  0.91990  Biso   1.000  C
  H74      1.0000 0.66920  0.57700  0.93310  Biso   1.000  H
  C79      1.0000 0.59880  0.57920  0.85280  Biso   1.000  C
  C80      1.0000 0.54830  0.63110  0.83080  Biso   1.000  C
  H75      1.0000 0.52480  0.61420  0.78470  Biso   1.000  H
  C81      1.0000 0.53260  0.70730  0.87650  Biso   1.000  C
  C82      1.0000 0.56760  0.73330  0.94530  Biso   1.000  C
  H76      1.0000 0.55650  0.78430  0.97660  Biso   1.000  H
  C83      1.0000 0.61460  0.49190  0.80530  Biso   1.000  C
  C84      1.0000 0.47650  0.75680  0.85210  Biso   1.000  C
  N3       1.0000 0.86110  0.90530  0.49020  Biso   1.000  N
  N4       1.0000 0.79850  0.87080  0.35720  Biso   1.000  N
  O13      1.0000 0.28310  0.85010  0.79490  Biso   1.000  O
  O14      1.0000 0.20630  0.19480  0.02250  Biso   1.000  O
  O15      1.0000 0.11750  0.16730  0.98970  Biso   1.000  O
  O16      1.0000 0.09597  0.91850  0.67470  Biso   1.000  O
  O17      1.0000 0.93631  0.80010  0.42420  Biso   1.000  O
  O18      1.0000 0.84619  0.67760  0.33700  Biso   1.000  O
  O19      1.0000 0.68940  0.63040  0.07170  Biso   1.000  O
  O20      1.0000 0.64820  0.42030  0.83200  Biso   1.000  O
  O21      1.0000 0.44870  0.73910  0.78830  Biso   1.000  O
  O22      1.0000 0.46150  0.81610  0.89630  Biso   1.000  O
  O23      1.0000 0.32220  0.94260  0.88700  Biso   1.000  O
  O24      1.0000 0.59220  0.48170  0.74250  Biso   1.000  O
  Fe3      1.0000 0.86051  0.73069  0.92123  Biso   1.000  Fe
  Cd3      1.0000 0.36924  0.67290  0.28944  Biso   1.000  Cd
  C85      1.0000 0.16630  0.34600  0.47870  Biso   1.000  C
  C86      1.0000 0.17420  0.41700  0.41320  Biso   1.000  C
  C87      1.0000 0.22440  0.46240  0.41220  Biso   1.000  C
  H77      1.0000 0.25540  0.44760  0.45060  Biso   1.000  H
  C88      1.0000 0.22910  0.53230  0.35240  Biso   1.000  C
  C89      1.0000 0.18320  0.54880  0.29360  Biso   1.000  C
  H78      1.0000 0.18600  0.59510  0.25420  Biso   1.000  H
  C90      1.0000 0.13280  0.49670  0.29300  Biso   1.000  C
  C91      1.0000 0.12880  0.43200  0.35420  Biso   1.000  C
  H79      1.0000 0.09520  0.39840  0.35540  Biso   1.000  H
  C92      1.0000 0.28180  0.58160  0.34550  Biso   1.000  C
  C93      1.0000 0.08350  0.50960  0.22850  Biso   1.000  C
  H80      1.0000 0.05200  0.53660  0.24730  Biso   1.000  H
  H81      1.0000 0.07340  0.44020  0.20500  Biso   1.000  H
  C94      1.0000 0.05380  0.60490  0.11330  Biso   1.000  C
  C95      1.0000 0.06830  0.67370  0.05940  Biso   1.000  C
  H82      1.0000 0.10470  0.69920  0.06720  Biso   1.000  H
  C96      1.0000 0.03010  0.70530  0.99470  Biso   1.000  C
  C97      1.0000 0.97430  0.67060  0.98550  Biso   1.000  C
  C98      1.0000 0.96020  0.60030  0.04060  Biso   1.000  C
  C99      1.0000 0.99990  0.56730  0.10380  Biso   1.000  C
  H83      1.0000 0.99020  0.52070  0.13910  Biso   1.000  H
  C100     1.0000 0.04790  0.78240  0.93730  Biso   1.000  C
  C101     1.0000 0.11110  0.80100  0.95470  Biso   1.000  C
  H84      1.0000 0.12040  0.84910  0.91780  Biso   1.000  H
  H85      1.0000 0.12270  0.83200  0.00430  Biso   1.000  H
  H86      1.0000 0.12980  0.73350  0.95300  Biso   1.000  H
  C102     1.0000 0.02000  0.89170  0.94200  Biso   1.000  C
  H87      1.0000 0.03080  0.94080  0.90680  Biso   1.000  H
  H88      1.0000 0.98020  0.88290  0.92980  Biso   1.000  H
  H89      1.0000 0.03140  0.91980  0.99240  Biso   1.000  H
  C103     1.0000 0.03120  0.73810  0.85590  Biso   1.000  C
  H90      1.0000 0.04300  0.78750  0.82160  Biso   1.000  H
  H91      1.0000 0.04880  0.66960  0.85330  Biso   1.000  H
  H92      1.0000 0.99150  0.72970  0.84200  Biso   1.000  H
  C104     1.0000 0.90490  0.55690  0.03270  Biso   1.000  C
  H93      1.0000 0.90090  0.49610  0.06110  Biso   1.000  H
  C105     1.0000 0.80870  0.53840  0.97800  Biso   1.000  C
  H94      1.0000 0.81340  0.46880  0.00290  Biso   1.000  H
  H95      1.0000 0.78160  0.57970  0.99780  Biso   1.000  H
  C106     1.0000 0.78960  0.52460  0.89250  Biso   1.000  C
  H96      1.0000 0.75050  0.50480  0.87940  Biso   1.000  H
  H97      1.0000 0.81110  0.46840  0.87480  Biso   1.000  H
  C107     1.0000 0.76600  0.65430  0.79300  Biso   1.000  C
  H98      1.0000 0.73840  0.60490  0.77260  Biso   1.000  H
  C108     1.0000 0.76850  0.75040  0.75030  Biso   1.000  C
  C109     1.0000 0.80720  0.83410  0.77420  Biso   1.000  C
  C110     1.0000 0.80430  0.92950  0.73130  Biso   1.000  C
  C111     1.0000 0.76380  0.93440  0.66560  Biso   1.000  C
  H99      1.0000 0.76140  0.99660  0.63640  Biso   1.000  H
  C112     1.0000 0.72660  0.85190  0.64050  Biso   1.000  C
  C113     1.0000 0.72820  0.75860  0.68220  Biso   1.000  C
  H100     1.0000 0.70330  0.70260  0.66580  Biso   1.000  H
  C114     1.0000 0.84580  0.02340  0.75700  Biso   1.000  C
  C115     1.0000 0.84050  0.06010  0.83730  Biso   1.000  C
  H101     1.0000 0.86580  0.11840  0.85390  Biso   1.000  H
  H102     1.0000 0.80300  0.08360  0.83560  Biso   1.000  H
  H103     1.0000 0.84930  0.00090  0.87200  Biso   1.000  H
  C116     1.0000 0.90330  0.98530  0.75640  Biso   1.000  C
  H104     1.0000 0.92940  0.04270  0.77230  Biso   1.000  H
  H105     1.0000 0.91260  0.92540  0.79030  Biso   1.000  H
  H106     1.0000 0.90500  0.96330  0.70610  Biso   1.000  H
  C117     1.0000 0.83280  0.11890  0.70320  Biso   1.000  C
  H107     1.0000 0.85890  0.17590  0.72050  Biso   1.000  H
  H108     1.0000 0.83580  0.09710  0.65330  Biso   1.000  H
  H109     1.0000 0.79570  0.14380  0.70190  Biso   1.000  H
  C118     1.0000 0.65800  0.77940  0.54030  Biso   1.000  C
  H110     1.0000 0.68240  0.72280  0.52970  Biso   1.000  H
  H111     1.0000 0.63650  0.75170  0.57520  Biso   1.000  H
  C119     1.0000 0.61950  0.81690  0.46760  Biso   1.000  C
  C120     1.0000 0.63420  0.89120  0.41990  Biso   1.000  C
  H112     1.0000 0.66920  0.92300  0.43310  Biso   1.000  H
  C121     1.0000 0.59880  0.92080  0.35280  Biso   1.000  C
  C122     1.0000 0.54830  0.86890  0.33080  Biso   1.000  C
  H113     1.0000 0.52480  0.88580  0.28470  Biso   1.000  H
  C123     1.0000 0.53260  0.79270  0.37650  Biso   1.000  C
  C124     1.0000 0.56760  0.76670  0.44530  Biso   1.000  C
  H114     1.0000 0.55650  0.71570  0.47660  Biso   1.000  H
  C125     1.0000 0.61460  0.00810  0.30530  Biso   1.000  C
  C126     1.0000 0.47650  0.74320  0.35210  Biso   1.000  C
  N5       1.0000 0.86110  0.59470  0.99020  Biso   1.000  N
  N6       1.0000 0.79850  0.62920  0.85720  Biso   1.000  N
  O25      1.0000 0.28310  0.64990  0.29490  Biso   1.000  O
  O26      1.0000 0.20630  0.30520  0.52250  Biso   1.000  O
  O27      1.0000 0.11750  0.33270  0.48970  Biso   1.000  O
  O28      1.0000 0.09597  0.58150  0.17470  Biso   1.000  O
  O29      1.0000 0.93631  0.69990  0.92420  Biso   1.000  O
  O30      1.0000 0.84619  0.82240  0.83700  Biso   1.000  O
  O31      1.0000 0.68940  0.86960  0.57170  Biso   1.000  O
  O32      1.0000 0.64820  0.07970  0.33200  Biso   1.000  O
  O33      1.0000 0.44870  0.76090  0.28830  Biso   1.000  O
  O34      1.0000 0.46150  0.68390  0.39630  Biso   1.000  O
  O35      1.0000 0.32220  0.55740  0.38700  Biso   1.000  O
  O36      1.0000 0.59220  0.01830  0.24250  Biso   1.000  O
  Fe4      1.0000 0.13949  0.23069  0.57877  Biso   1.000  Fe
  Cd4      1.0000 0.63076  0.17290  0.21056  Biso   1.000  Cd
  C127     1.0000 0.83370  0.84600  0.02130  Biso   1.000  C
  C128     1.0000 0.82580  0.91700  0.08680  Biso   1.000  C
  C129     1.0000 0.77560  0.96240  0.08780  Biso   1.000  C
  H115     1.0000 0.74460  0.94760  0.04940  Biso   1.000  H
  C130     1.0000 0.77090  0.03230  0.14760  Biso   1.000  C
  C131     1.0000 0.81680  0.04880  0.20640  Biso   1.000  C
  H116     1.0000 0.81400  0.09510  0.24580  Biso   1.000  H
  C132     1.0000 0.86720  0.99670  0.20700  Biso   1.000  C
  C133     1.0000 0.87120  0.93200  0.14580  Biso   1.000  C
  H117     1.0000 0.90480  0.89840  0.14460  Biso   1.000  H
  C134     1.0000 0.71820  0.08160  0.15450  Biso   1.000  C
  C135     1.0000 0.91650  0.00960  0.27150  Biso   1.000  C
  H118     1.0000 0.94800  0.03660  0.25270  Biso   1.000  H
  H119     1.0000 0.92660  0.94020  0.29500  Biso   1.000  H
  C136     1.0000 0.94620  0.10490  0.38670  Biso   1.000  C
  C137     1.0000 0.93170  0.17370  0.44060  Biso   1.000  C
  H120     1.0000 0.89530  0.19920  0.43280  Biso   1.000  H
  C138     1.0000 0.96990  0.20530  0.50530  Biso   1.000  C
  C139     1.0000 0.02570  0.17060  0.51450  Biso   1.000  C
  C140     1.0000 0.03980  0.10030  0.45940  Biso   1.000  C
  C141     1.0000 0.00010  0.06730  0.39620  Biso   1.000  C
  H121     1.0000 0.00980  0.02070  0.36090  Biso   1.000  H
  C142     1.0000 0.95210  0.28240  0.56270  Biso   1.000  C
  C143     1.0000 0.88890  0.30100  0.54530  Biso   1.000  C
  H122     1.0000 0.87960  0.34910  0.58220  Biso   1.000  H
  H123     1.0000 0.87730  0.33200  0.49570  Biso   1.000  H
  H124     1.0000 0.87020  0.23350  0.54700  Biso   1.000  H
  C144     1.0000 0.98000  0.39170  0.55800  Biso   1.000  C
  H125     1.0000 0.96920  0.44080  0.59320  Biso   1.000  H
  H126     1.0000 0.01980  0.38290  0.57020  Biso   1.000  H
  H127     1.0000 0.96860  0.41980  0.50760  Biso   1.000  H
  C145     1.0000 0.96880  0.23810  0.64410  Biso   1.000  C
  H128     1.0000 0.95700  0.28750  0.67840  Biso   1.000  H
  H129     1.0000 0.95120  0.16960  0.64670  Biso   1.000  H
  H130     1.0000 0.00850  0.22970  0.65800  Biso   1.000  H
  C146     1.0000 0.09510  0.05690  0.46730  Biso   1.000  C
  H131     1.0000 0.09910  0.99610  0.43890  Biso   1.000  H
  C147     1.0000 0.19130  0.03840  0.52200  Biso   1.000  C
  H132     1.0000 0.18660  0.96880  0.49710  Biso   1.000  H
  H133     1.0000 0.21840  0.07970  0.50220  Biso   1.000  H
  C148     1.0000 0.21040  0.02460  0.60750  Biso   1.000  C
  H134     1.0000 0.24950  0.00480  0.62060  Biso   1.000  H
  H135     1.0000 0.18890  0.96840  0.62520  Biso   1.000  H
  C149     1.0000 0.23400  0.15430  0.70700  Biso   1.000  C
  H136     1.0000 0.26160  0.10490  0.72740  Biso   1.000  H
  C150     1.0000 0.23150  0.25040  0.74970  Biso   1.000  C
  C151     1.0000 0.19280  0.33410  0.72580  Biso   1.000  C
  C152     1.0000 0.19570  0.42950  0.76870  Biso   1.000  C
  C153     1.0000 0.23620  0.43440  0.83440  Biso   1.000  C
  H137     1.0000 0.23860  0.49660  0.86360  Biso   1.000  H
  C154     1.0000 0.27340  0.35190  0.85950  Biso   1.000  C
  C155     1.0000 0.27180  0.25860  0.81780  Biso   1.000  C
  H138     1.0000 0.29670  0.20260  0.83420  Biso   1.000  H
  C156     1.0000 0.15420  0.52340  0.74300  Biso   1.000  C
  C157     1.0000 0.15950  0.56010  0.66270  Biso   1.000  C
  H139     1.0000 0.13420  0.61840  0.64610  Biso   1.000  H
  H140     1.0000 0.19700  0.58360  0.66440  Biso   1.000  H
  H141     1.0000 0.15070  0.50090  0.62800  Biso   1.000  H
  C158     1.0000 0.09670  0.48530  0.74360  Biso   1.000  C
  H142     1.0000 0.07060  0.54270  0.72770  Biso   1.000  H
  H143     1.0000 0.08740  0.42540  0.70970  Biso   1.000  H
  H144     1.0000 0.09500  0.46330  0.79390  Biso   1.000  H
  C159     1.0000 0.16720  0.61890  0.79680  Biso   1.000  C
  H145     1.0000 0.14110  0.67590  0.77950  Biso   1.000  H
  H146     1.0000 0.16420  0.59710  0.84670  Biso   1.000  H
  H147     1.0000 0.20430  0.64380  0.79810  Biso   1.000  H
  C160     1.0000 0.34200  0.27940  0.95970  Biso   1.000  C
  H148     1.0000 0.31760  0.22280  0.97030  Biso   1.000  H
  H149     1.0000 0.36350  0.25170  0.92480  Biso   1.000  H
  C161     1.0000 0.38050  0.31690  0.03240  Biso   1.000  C
  C162     1.0000 0.36580  0.39120  0.08010  Biso   1.000  C
  H150     1.0000 0.33080  0.42300  0.06690  Biso   1.000  H
  C163     1.0000 0.40120  0.42080  0.14720  Biso   1.000  C
  C164     1.0000 0.45170  0.36890  0.16920  Biso   1.000  C
  H151     1.0000 0.47520  0.38580  0.21530  Biso   1.000  H
  C165     1.0000 0.46740  0.29270  0.12350  Biso   1.000  C
  C166     1.0000 0.43240  0.26670  0.05470  Biso   1.000  C
  H152     1.0000 0.44350  0.21570  0.02340  Biso   1.000  H
  C167     1.0000 0.38540  0.50810  0.19470  Biso   1.000  C
  C168     1.0000 0.52350  0.24320  0.14790  Biso   1.000  C
  N7       1.0000 0.13890  0.09470  0.50980  Biso   1.000  N
  N8       1.0000 0.20150  0.12920  0.64280  Biso   1.000  N
  O37      1.0000 0.71690  0.14990  0.20510  Biso   1.000  O
  O38      1.0000 0.79370  0.80520  0.97750  Biso   1.000  O
  O39      1.0000 0.88250  0.83270  0.01030  Biso   1.000  O
  O40      1.0000 0.90403  0.08150  0.32530  Biso   1.000  O
  O41      1.0000 0.06369  0.19990  0.57580  Biso   1.000  O
  O42      1.0000 0.15381  0.32240  0.66300  Biso   1.000  O
  O43      1.0000 0.31060  0.36960  0.92830  Biso   1.000  O
  O44      1.0000 0.35180  0.57970  0.16800  Biso   1.000  O
  O45      1.0000 0.55130  0.26090  0.21170  Biso   1.000  O
  O46      1.0000 0.53850  0.18390  0.10370  Biso   1.000  O
  O47      1.0000 0.67780  0.05740  0.11300  Biso   1.000  O
  O48      1.0000 0.40780  0.51830  0.25750  Biso   1.000  O
