data_image0
_cell_length_a       11.868
_cell_length_b       16.265
_cell_length_c       16.379
_cell_angle_alpha    108.099
_cell_angle_beta     102.855
_cell_angle_gamma    101.216

_symmetry_space_group_name_H-M    "P 1"
_symmetry_int_tables_number       1

loop_
  _symmetry_equiv_pos_as_xyz
  'x, y, z'

loop_
  _atom_site_label
  _atom_site_occupancy
  _atom_site_fract_x
  _atom_site_fract_y
  _atom_site_fract_z
  _atom_site_thermal_displace_type
  _atom_site_B_iso_or_equiv
  _atom_site_type_symbol
  Co1      1.0000 0.18269  0.89444  0.38414  Biso   1.000  Co
  O1       1.0000 0.48380  0.48810  0.15750  Biso   1.000  O
  C1       1.0000 0.45910  0.33990  0.05830  Biso   1.000  C
  O2       1.0000 0.47470  0.86480  0.41050  Biso   1.000  O
  C2       1.0000 0.40360  0.41240  0.10200  Biso   1.000  C
  H1       1.0000 0.35030  0.42460  0.05400  Biso   1.000  H
  H2       1.0000 0.35320  0.38940  0.13520  Biso   1.000  H
  O3       1.0000 0.27900  0.81010  0.33120  Biso   1.000  O
  C3       1.0000 0.44950  0.56390  0.19450  Biso   1.000  C
  O4       1.0000 0.67230  0.40530  0.12960  Biso   1.000  O
  C4       1.0000 0.54250  0.63470  0.25080  Biso   1.000  C
  H3       1.0000 0.62250  0.63060  0.25700  Biso   1.000  H
  O5       1.0000 0.01790  0.80600  0.27590  Biso   1.000  O
  O6       1.0000 0.04860  0.77800  0.39980  Biso   1.000  O
  C5       1.0000 0.40710  0.72150  0.29230  Biso   1.000  C
  O7       1.0000 0.41860  0.21030  0.92652  Biso   1.000  O
  C6       1.0000 0.31320  0.64900  0.23390  Biso   1.000  C
  H4       1.0000 0.23290  0.65220  0.22810  Biso   1.000  H
  O8       1.0000 0.32050  0.95766  0.52203  Biso   1.000  O
  C7       1.0000 0.33350  0.56950  0.18220  Biso   1.000  C
  H5       1.0000 0.26780  0.52050  0.13940  Biso   1.000  H
  O9       1.0000 0.14480  0.98790  0.50760  Biso   1.000  O
  C8       1.0000 0.38460  0.80550  0.34840  Biso   1.000  C
  O10      1.0000 0.36080  0.23670  0.11490  Biso   1.000  O
  C9       1.0000 0.58310  0.37960  0.04970  Biso   1.000  C
  H6       1.0000 0.60060  0.33390  0.00180  Biso   1.000  H
  H7       1.0000 0.58140  0.43250  0.03220  Biso   1.000  H
  O11      1.0000 0.21280  0.99530  0.33060  Biso   1.000  O
  C10      1.0000 0.74800  0.49130  0.17070  Biso   1.000  C
  O12      1.0000 0.41330  0.03470  0.38990  Biso   1.000  O
  C11      1.0000 0.78100  0.54650  0.12700  Biso   1.000  C
  H8       1.0000 0.74930  0.52640  0.06330  Biso   1.000  H
  C12      1.0000 0.86070  0.63210  0.17540  Biso   1.000  C
  H9       1.0000 0.88210  0.67020  0.14410  Biso   1.000  H
  C13      1.0000 0.90890  0.66270  0.26690  Biso   1.000  C
  C14      1.0000 0.87940  0.60630  0.31170  Biso   1.000  C
  H10      1.0000 0.91450  0.62540  0.37500  Biso   1.000  H
  C15      1.0000 0.79690  0.52040  0.26270  Biso   1.000  C
  H11      1.0000 0.77460  0.48200  0.29350  Biso   1.000  H
  C16      1.0000 0.99610  0.75390  0.31680  Biso   1.000  C
  C17      1.0000 0.37220  0.28370  0.96330  Biso   1.000  C
  H12      1.0000 0.29020  0.26080  0.96610  Biso   1.000  H
  H13      1.0000 0.36850  0.32080  0.92540  Biso   1.000  H
  C18      1.0000 0.36980  0.15890  0.83640  Biso   1.000  C
  C19      1.0000 0.43810  0.10550  0.79990  Biso   1.000  C
  H14      1.0000 0.51150  0.10500  0.83730  Biso   1.000  H
  C20      1.0000 0.39870  0.05350  0.70930  Biso   1.000  C
  H15      1.0000 0.44660  0.01870  0.68370  Biso   1.000  H
  C21      1.0000 0.28950  0.05160  0.65520  Biso   1.000  C
  C22      1.0000 0.21980  0.10320  0.69200  Biso   1.000  C
  H16      1.0000 0.14530  0.10220  0.65470  Biso   1.000  H
  C23      1.0000 0.25960  0.15680  0.78380  Biso   1.000  C
  H17      1.0000 0.21160  0.19120  0.80970  Biso   1.000  H
  C24      1.0000 0.24890  0.99700  0.55640  Biso   1.000  C
  C25      1.0000 0.47640  0.28200  0.11520  Biso   1.000  C
  H18      1.0000 0.51770  0.23750  0.08970  Biso   1.000  H
  H19      1.0000 0.52650  0.32050  0.17770  Biso   1.000  H
  C26      1.0000 0.35640  0.18830  0.16950  Biso   1.000  C
  C27      1.0000 0.24400  0.14440  0.16850  Biso   1.000  C
  H20      1.0000 0.17410  0.14760  0.12930  Biso   1.000  H
  C28      1.0000 0.23090  0.09670  0.22250  Biso   1.000  C
  H21      1.0000 0.15240  0.06920  0.22230  Biso   1.000  H
  C29      1.0000 0.32970  0.08790  0.27730  Biso   1.000  C
  C30      1.0000 0.44260  0.13090  0.27770  Biso   1.000  C
  H22      1.0000 0.51180  0.12590  0.31600  Biso   1.000  H
  C31      1.0000 0.45830  0.18100  0.22420  Biso   1.000  C
  H23      1.0000 0.53670  0.20960  0.22520  Biso   1.000  H
  C32      1.0000 0.31780  0.03600  0.33750  Biso   1.000  C
  C33      1.0000 0.52310  0.71470  0.30070  Biso   1.000  C
  H24      1.0000 0.58990  0.76460  0.34060  Biso   1.000  H
  Co2      1.0000 0.81731  0.10556  0.61586  Biso   1.000  Co
  O13      1.0000 0.51620  0.51190  0.84250  Biso   1.000  O
  C34      1.0000 0.54090  0.66010  0.94170  Biso   1.000  C
  O14      1.0000 0.52530  0.13520  0.58950  Biso   1.000  O
  C35      1.0000 0.59640  0.58760  0.89800  Biso   1.000  C
  H25      1.0000 0.64970  0.57540  0.94600  Biso   1.000  H
  H26      1.0000 0.64680  0.61060  0.86480  Biso   1.000  H
  O15      1.0000 0.72100  0.18990  0.66880  Biso   1.000  O
  C36      1.0000 0.55050  0.43610  0.80550  Biso   1.000  C
  O16      1.0000 0.32770  0.59470  0.87040  Biso   1.000  O
  C37      1.0000 0.45750  0.36530  0.74920  Biso   1.000  C
  H27      1.0000 0.37750  0.36940  0.74300  Biso   1.000  H
  O17      1.0000 0.98210  0.19400  0.72410  Biso   1.000  O
  O18      1.0000 0.95140  0.22200  0.60020  Biso   1.000  O
  C38      1.0000 0.59290  0.27850  0.70770  Biso   1.000  C
  O19      1.0000 0.58140  0.78970  0.07348  Biso   1.000  O
  C39      1.0000 0.68680  0.35100  0.76610  Biso   1.000  C
  H28      1.0000 0.76710  0.34780  0.77190  Biso   1.000  H
  O20      1.0000 0.67950  0.04234  0.47797  Biso   1.000  O
  C40      1.0000 0.66650  0.43050  0.81780  Biso   1.000  C
  H29      1.0000 0.73220  0.47950  0.86060  Biso   1.000  H
  O21      1.0000 0.85520  0.01210  0.49240  Biso   1.000  O
  C41      1.0000 0.61540  0.19450  0.65160  Biso   1.000  C
  O22      1.0000 0.63920  0.76330  0.88510  Biso   1.000  O
  C42      1.0000 0.41690  0.62040  0.95030  Biso   1.000  C
  H30      1.0000 0.39940  0.66610  0.99820  Biso   1.000  H
  H31      1.0000 0.41860  0.56750  0.96780  Biso   1.000  H
  O23      1.0000 0.78720  0.00470  0.66940  Biso   1.000  O
  C43      1.0000 0.25200  0.50870  0.82930  Biso   1.000  C
  O24      1.0000 0.58670  0.96530  0.61010  Biso   1.000  O
  C44      1.0000 0.21900  0.45350  0.87300  Biso   1.000  C
  H32      1.0000 0.25070  0.47360  0.93670  Biso   1.000  H
  C45      1.0000 0.13930  0.36790  0.82460  Biso   1.000  C
  H33      1.0000 0.11790  0.32980  0.85590  Biso   1.000  H
  C46      1.0000 0.09110  0.33730  0.73310  Biso   1.000  C
  C47      1.0000 0.12060  0.39370  0.68830  Biso   1.000  C
  H34      1.0000 0.08550  0.37460  0.62500  Biso   1.000  H
  C48      1.0000 0.20310  0.47960  0.73730  Biso   1.000  C
  H35      1.0000 0.22540  0.51800  0.70650  Biso   1.000  H
  C49      1.0000 0.00390  0.24610  0.68320  Biso   1.000  C
  C50      1.0000 0.62780  0.71630  0.03670  Biso   1.000  C
  H36      1.0000 0.70980  0.73920  0.03390  Biso   1.000  H
  H37      1.0000 0.63150  0.67920  0.07460  Biso   1.000  H
  C51      1.0000 0.63020  0.84110  0.16360  Biso   1.000  C
  C52      1.0000 0.56190  0.89450  0.20010  Biso   1.000  C
  H38      1.0000 0.48850  0.89500  0.16270  Biso   1.000  H
  C53      1.0000 0.60130  0.94650  0.29070  Biso   1.000  C
  H39      1.0000 0.55340  0.98130  0.31630  Biso   1.000  H
  C54      1.0000 0.71050  0.94840  0.34480  Biso   1.000  C
  C55      1.0000 0.78020  0.89680  0.30800  Biso   1.000  C
  H40      1.0000 0.85470  0.89780  0.34530  Biso   1.000  H
  C56      1.0000 0.74040  0.84320  0.21620  Biso   1.000  C
  H41      1.0000 0.78840  0.80880  0.19030  Biso   1.000  H
  C57      1.0000 0.75110  0.00300  0.44360  Biso   1.000  C
  C58      1.0000 0.52360  0.71800  0.88480  Biso   1.000  C
  H42      1.0000 0.48230  0.76250  0.91030  Biso   1.000  H
  H43      1.0000 0.47350  0.67950  0.82230  Biso   1.000  H
  C59      1.0000 0.64360  0.81170  0.83050  Biso   1.000  C
  C60      1.0000 0.75600  0.85560  0.83150  Biso   1.000  C
  H44      1.0000 0.82590  0.85240  0.87070  Biso   1.000  H
  C61      1.0000 0.76910  0.90330  0.77750  Biso   1.000  C
  H45      1.0000 0.84760  0.93080  0.77770  Biso   1.000  H
  C62      1.0000 0.67030  0.91210  0.72270  Biso   1.000  C
  C63      1.0000 0.55740  0.86910  0.72230  Biso   1.000  C
  H46      1.0000 0.48820  0.87410  0.68400  Biso   1.000  H
  C64      1.0000 0.54170  0.81900  0.77580  Biso   1.000  C
  H47      1.0000 0.46330  0.79040  0.77480  Biso   1.000  H
  C65      1.0000 0.68220  0.96400  0.66250  Biso   1.000  C
  C66      1.0000 0.47690  0.28530  0.69930  Biso   1.000  C
  H48      1.0000 0.41010  0.23540  0.65940  Biso   1.000  H
  Co3      1.0000 0.50000  0.00000  0.50000  Biso   1.000  Co
