data_OXALIJ_ion_b
_audit_creation_date              2014-07-02
_audit_creation_method            'Materials Studio'
_symmetry_space_group_name_H-M    'P1'
_symmetry_Int_Tables_number       1
_symmetry_cell_setting            triclinic
loop_
_symmetry_equiv_pos_as_xyz
  x,y,z
_cell_length_a                    11.9700
_cell_length_b                    16.3410
_cell_length_c                    16.4360
_cell_angle_alpha                 107.9130
_cell_angle_beta                  103.4000
_cell_angle_gamma                 100.5330
loop_
_atom_site_label
_atom_site_type_symbol
_atom_site_fract_x
_atom_site_fract_y
_atom_site_fract_z
_atom_site_U_iso_or_equiv
_atom_site_adp_type
_atom_site_occupancy
Cd1    Cd    0.19441   0.88805   0.39255   0.00000  Uiso   1.00
N2     N     0.06706   0.14812   0.47181   0.00000  Uiso   1.00
C3     C     0.46137   0.34234   0.05829   0.00000  Uiso   1.00
O4     O     0.48813   0.87959   0.41050   0.00000  Uiso   1.00
C5     C     0.41457   0.41898   0.10263   0.00000  Uiso   1.00
H6     H     0.31922   0.40889   0.08763   0.00000  Uiso   1.00
O7     O     0.29308   0.81300   0.34809   0.00000  Uiso   1.00
O8     O     0.67932   0.41267   0.13734   0.00000  Uiso   1.00
O9     O     0.03195   0.82515   0.29475   0.00000  Uiso   1.00
O10    O     0.09287   0.77594   0.39778   0.00000  Uiso   1.00
C11    C     0.42126   0.72934   0.30241   0.00000  Uiso   1.00
O12    O     0.41758   0.21020   0.92420   0.00000  Uiso   1.00
C13    C     0.32444   0.65832   0.23768   0.00000  Uiso   1.00
H14    H     0.23388   0.66432   0.22470   0.00000  Uiso   1.00
O15    O     0.33362   0.94217   0.51098   0.00000  Uiso   1.00
C16    C     0.34273   0.57781   0.18878   0.00000  Uiso   1.00
H17    H     0.26565   0.52619   0.13940   0.00000  Uiso   1.00
O18    O     0.16295   0.97265   0.49922   0.00000  Uiso   1.00
C19    C     0.40050   0.81263   0.35640   0.00000  Uiso   1.00
O20    O     0.35543   0.23805   0.11650   0.00000  Uiso   1.00
C21    C     0.58766   0.38309   0.05192   0.00000  Uiso   1.00
H22    H     0.61244   0.33171   0.00262   0.00000  Uiso   1.00
H23    H     0.58162   0.43759   0.02551   0.00000  Uiso   1.00
O24    O     0.22476   0.97264   0.32752   0.00000  Uiso   1.00
C25    C     0.75485   0.50143   0.17900   0.00000  Uiso   1.00
O26    O     0.41867   0.03877   0.40214   0.00000  Uiso   1.00
C27    C     0.78782   0.55692   0.13253   0.00000  Uiso   1.00
H28    H     0.75680   0.53307   0.05993   0.00000  Uiso   1.00
C29    C     0.86763   0.64327   0.17992   0.00000  Uiso   1.00
H30    H     0.89357   0.68327   0.14224   0.00000  Uiso   1.00
C31    C     0.91864   0.67543   0.27426   0.00000  Uiso   1.00
C32    C     0.88707   0.61884   0.31952   0.00000  Uiso   1.00
H33    H     0.92543   0.64019   0.39157   0.00000  Uiso   1.00
C34    C     0.80708   0.53333   0.27245   0.00000  Uiso   1.00
H35    H     0.78530   0.49096   0.30908   0.00000  Uiso   1.00
C36    C     1.01536   0.76189   0.32410   0.00000  Uiso   1.00
C37    C     0.37539   0.28535   0.96158   0.00000  Uiso   1.00
H38    H     0.37346   0.32716   0.91938   0.00000  Uiso   1.00
H39    H     0.28316   0.26131   0.96342   0.00000  Uiso   1.00
C40    C     0.37268   0.15863   0.83158   0.00000  Uiso   1.00
C41    C     0.44139   0.10516   0.79654   0.00000  Uiso   1.00
H42    H     0.52475   0.10566   0.84004   0.00000  Uiso   1.00
C43    C     0.40454   0.05105   0.70603   0.00000  Uiso   1.00
H44    H     0.45976   0.01113   0.68228   0.00000  Uiso   1.00
C45    C     0.29817   0.04835   0.64703   0.00000  Uiso   1.00
C46    C     0.22645   0.10080   0.68192   0.00000  Uiso   1.00
H47    H     0.14161   0.09840   0.63876   0.00000  Uiso   1.00
C48    C     0.26318   0.15546   0.77373   0.00000  Uiso   1.00
H49    H     0.20533   0.19315   0.79930   0.00000  Uiso   1.00
C50    C     0.26211   0.98904   0.55072   0.00000  Uiso   1.00
C51    C     0.47103   0.28315   0.11684   0.00000  Uiso   1.00
H52    H     0.51780   0.23267   0.09098   0.00000  Uiso   1.00
H53    H     0.52512   0.32689   0.18701   0.00000  Uiso   1.00
C54    C     0.35039   0.18580   0.17124   0.00000  Uiso   1.00
C55    C     0.23771   0.14115   0.17089   0.00000  Uiso   1.00
H56    H     0.15749   0.14603   0.12771   0.00000  Uiso   1.00
C57    C     0.22731   0.09009   0.22552   0.00000  Uiso   1.00
H58    H     0.13879   0.05674   0.22303   0.00000  Uiso   1.00
C59    C     0.32992   0.08341   0.28295   0.00000  Uiso   1.00
C60    C     0.44212   0.12872   0.28339   0.00000  Uiso   1.00
H61    H     0.52308   0.12629   0.32670   0.00000  Uiso   1.00
C62    C     0.45264   0.17731   0.22758   0.00000  Uiso   1.00
H63    H     0.54184   0.20797   0.22977   0.00000  Uiso   1.00
C64    C     0.32329   0.02909   0.34128   0.00000  Uiso   1.00
C65    C     0.01008   0.12352   0.37557   0.00000  Uiso   1.00
O66    O     0.49096   0.49066   0.15933   0.00000  Uiso   1.00
C67    C     0.45908   0.56668   0.20478   0.00000  Uiso   1.00
C68    C     0.53598   0.71792   0.31724   0.00000  Uiso   1.00
H69    H     0.61154   0.77048   0.36717   0.00000  Uiso   1.00
C70    C     0.55404   0.63778   0.26897   0.00000  Uiso   1.00
H71    H     0.64356   0.63080   0.28191   0.00000  Uiso   1.00
Cd72   Cd    0.80594   0.11109   0.60924   0.00000  Uiso   1.00
N73    N     0.91033   0.84910   0.52921   0.00000  Uiso   1.00
C74    C     0.53878   0.65747   0.94217   0.00000  Uiso   1.00
O75    O     0.50954   0.12169   0.58756   0.00000  Uiso   1.00
C76    C     0.58533   0.58064   0.89753   0.00000  Uiso   1.00
H77    H     0.68061   0.59053   0.91238   0.00000  Uiso   1.00
O78    O     0.70459   0.18323   0.65618   0.00000  Uiso   1.00
O79    O     0.32090   0.58712   0.86308   0.00000  Uiso   1.00
O80    O     0.97290   0.17240   0.70212   0.00000  Uiso   1.00
O81    O     0.89762   0.22859   0.60900   0.00000  Uiso   1.00
C82    C     0.57765   0.27020   0.69825   0.00000  Uiso   1.00
O83    O     0.58272   0.78976   0.07652   0.00000  Uiso   1.00
C84    C     0.67460   0.34111   0.76248   0.00000  Uiso   1.00
H85    H     0.76472   0.33425   0.77495   0.00000  Uiso   1.00
O86    O     0.66878   0.05786   0.49007   0.00000  Uiso   1.00
C87    C     0.65664   0.42178   0.81092   0.00000  Uiso   1.00
H88    H     0.73393   0.47311   0.85978   0.00000  Uiso   1.00
O89    O     0.83813   0.02387   0.50314   0.00000  Uiso   1.00
C90    C     0.59736   0.18658   0.64448   0.00000  Uiso   1.00
O91    O     0.64411   0.76133   0.88338   0.00000  Uiso   1.00
C92    C     0.41248   0.61679   0.94855   0.00000  Uiso   1.00
H93    H     0.38779   0.66838   0.99768   0.00000  Uiso   1.00
H94    H     0.41853   0.56240   0.97511   0.00000  Uiso   1.00
O95    O     0.77629   0.02926   0.67653   0.00000  Uiso   1.00
C96    C     0.24487   0.49853   0.82160   0.00000  Uiso   1.00
O97    O     0.58332   0.96038   0.60012   0.00000  Uiso   1.00
C98    C     0.21198   0.44319   0.86824   0.00000  Uiso   1.00
H99    H     0.24370   0.46696   0.94083   0.00000  Uiso   1.00
C100   C     0.13139   0.35713   0.82101   0.00000  Uiso   1.00
H101   H     0.10559   0.31715   0.85877   0.00000  Uiso   1.00
C102   C     0.07927   0.32535   0.72685   0.00000  Uiso   1.00
C103   C     0.11092   0.38166   0.68137   0.00000  Uiso   1.00
H104   H     0.07218   0.36017   0.60936   0.00000  Uiso   1.00
C105   C     0.19205   0.46675   0.72821   0.00000  Uiso   1.00
H106   H     0.21425   0.50885   0.69146   0.00000  Uiso   1.00
C107   C    -0.01792   0.23927   0.67757   0.00000  Uiso   1.00
C108   C     0.62501   0.71461   0.03884   0.00000  Uiso   1.00
H109   H     0.71699   0.73888   0.03679   0.00000  Uiso   1.00
H110   H     0.62741   0.67289   0.08108   0.00000  Uiso   1.00
C111   C     0.62885   0.84181   0.16902   0.00000  Uiso   1.00
C112   C     0.56080   0.89558   0.20462   0.00000  Uiso   1.00
H113   H     0.47687   0.89504   0.16156   0.00000  Uiso   1.00
C114   C     0.59823   0.94938   0.29528   0.00000  Uiso   1.00
H115   H     0.54302   0.98912   0.31935   0.00000  Uiso   1.00
C116   C     0.70428   0.95106   0.35417   0.00000  Uiso   1.00
C117   C     0.77651   0.89999   0.31833   0.00000  Uiso   1.00
H118   H     0.86161   0.90257   0.36120   0.00000  Uiso   1.00
C119   C     0.73899   0.84528   0.22638   0.00000  Uiso   1.00
H120   H     0.79644   0.80743   0.20068   0.00000  Uiso   1.00
C121   C     0.73961   0.00940   0.45095   0.00000  Uiso   1.00
C122   C     0.52881   0.71649   0.88348   0.00000  Uiso   1.00
H123   H     0.47442   0.67267   0.81342   0.00000  Uiso   1.00
H124   H     0.48230   0.76706   0.90952   0.00000  Uiso   1.00
C125   C     0.64911   0.81407   0.82927   0.00000  Uiso   1.00
C126   C     0.76183   0.85960   0.83116   0.00000  Uiso   1.00
H127   H     0.84160   0.85444   0.87384   0.00000  Uiso   1.00
C128   C     0.77305   0.91211   0.77848   0.00000  Uiso   1.00
H129   H     0.86106   0.94792   0.78323   0.00000  Uiso   1.00
C130   C     0.67109   0.91730   0.71961   0.00000  Uiso   1.00
C131   C     0.55813   0.87141   0.71738   0.00000  Uiso   1.00
H132   H     0.47709   0.87356   0.67311   0.00000  Uiso   1.00
C133   C     0.54699   0.82231   0.77258   0.00000  Uiso   1.00
H134   H     0.45794   0.79072   0.76950   0.00000  Uiso   1.00
C135   C     0.67877   0.97171   0.66205   0.00000  Uiso   1.00
C136   C     0.98955   0.87614   0.62079   0.00000  Uiso   1.00
O137   O     0.50884   0.50919   0.84054   0.00000  Uiso   1.00
C138   C     0.54034   0.43307   0.79502   0.00000  Uiso   1.00
C139   C     0.46299   0.28194   0.68278   0.00000  Uiso   1.00
H140   H     0.38708   0.22942   0.63291   0.00000  Uiso   1.00
C141   C     0.44514   0.36219   0.73073   0.00000  Uiso   1.00
H142   H     0.35551   0.36925   0.71749   0.00000  Uiso   1.00
Cd143  Cd    0.50022  -0.00043   0.50054   0.00000  Uiso   1.00
H144   H     0.10082   0.09694   0.48292   0.00000  Uiso   1.00
H145   H     0.00455   0.15782   0.50603   0.00000  Uiso   1.00
H146   H     0.00796   0.05347   0.33787   0.00000  Uiso   1.00
H147   H     0.06028   0.16876   0.34977   0.00000  Uiso   1.00
H148   H    -0.08334   0.12878   0.36251   0.00000  Uiso   1.00
H149   H     0.95629   0.87386   0.49118   0.00000  Uiso   1.00
H150   H     0.83630   0.87440   0.53020   0.00000  Uiso   1.00
H151   H     1.06474   0.93525   0.63621   0.00000  Uiso   1.00
H152   H     1.02674   0.82069   0.62941   0.00000  Uiso   1.00
H153   H     0.93988   0.89421   0.66973   0.00000  Uiso   1.00
H154   H     0.88056   0.77934   0.49960   0.00000  Uiso   1.00
H155   H     0.13728   0.20663   0.49726   0.00000  Uiso   1.00
loop_
_geom_bond_atom_site_label_1
_geom_bond_atom_site_label_2
_geom_bond_distance
_geom_bond_site_symmetry_2
_ccdc_geom_bond_type
Cd1    O7      1.952   .     S
Cd1    O9      2.056   .     S
Cd1    O10     2.043   .     S
Cd1    O15     2.061   .     S
Cd1    O18     2.033   .     S
Cd1    O24     2.022   .     S
N2     C65     1.462   .     S
N2     H144    1.039   .     S
N2     H145    1.042   .     S
N2     H155    1.045   .     S
C3     C5      1.516   .     S
C3     C21     1.577   .     S
C3     C51     1.561   .     S
C3     C37     1.560   1_554 S
O4     C19     1.280   .     A
O4     Cd143   2.017   1_565 S
C5     H6      1.080   .     S
C5     O66     1.272   .     D
O7     C19     1.263   .     A
O8     C21     1.443   .     S
O8     C25     1.419   .     S
O9     C36     1.272   1_455 S
O10    C36     1.269   1_455 S
C11    C13     1.414   .     A
C11    C19     1.478   .     S
C11    C68     1.395   .     A
O12    C37     1.431   .     S
O12    C40     1.408   .     S
C13    H14     1.084   .     S
C13    C16     1.400   .     A
O15    C50     1.392   .     S
O15    Cd143   2.112   1_565 S
C16    H17     1.081   .     S
C16    C67     1.412   .     A
O18    C50     1.215   .     D
O20    C51     1.442   .     S
O20    C54     1.422   .     S
C21    H22     1.111   .     S
C21    H23     1.111   .     S
O24    C64     1.282   1_565 S
C25    C27     1.413   .     A
C25    C34     1.402   .     A
O26    C64     1.279   .     A
O26    Cd143   2.028   .     S
C27    H28     1.081   .     S
C27    C29     1.413   .     A
C29    H30     1.082   .     S
C29    C31     1.413   .     A
C31    C32     1.406   .     A
C31    C36     1.503   .     S
C32    H33     1.082   .     S
C32    C34     1.404   .     A
C34    H35     1.083   .     S
C36    O9      1.272   1_655 S
C36    O10     1.269   1_655 S
C37    H38     1.113   .     S
C37    H39     1.113   .     S
C37    C3      1.560   1_556 S
C40    C41     1.394   .     A
C40    C48     1.411   .     A
C41    H42     1.082   .     S
C41    C43     1.391   .     A
C43    H44     1.066   .     S
C43    C45     1.394   .     A
C45    C46     1.413   .     A
C45    C50     1.489   1_545 S
C46    H47     1.082   .     S
C46    C48     1.410   .     A
C48    H49     1.080   .     S
C50    C45     1.489   1_565 S
C51    H52     1.113   .     S
C51    H53     1.113   .     S
C54    C55     1.409   .     A
C54    C62     1.411   .     A
C55    H56     1.086   .     S
C55    C57     1.412   .     A
C57    H58     1.085   .     S
C57    C59     1.409   .     A
C59    C60     1.407   .     A
C59    C64     1.499   .     S
C60    H61     1.077   .     S
C60    C62     1.397   .     A
C62    H63     1.081   .     S
C64    O24     1.282   1_545 S
C65    H146    1.114   .     S
C65    H147    1.112   .     S
C65    H148    1.113   .     S
O66    C67     1.408   .     S
C67    C70     1.401   .     A
C68    H69     1.081   .     S
C68    C70     1.391   .     A
C70    H71     1.077   .     S
Cd72   O78     1.963   .     S
Cd72   O80     2.059   .     S
Cd72   O81     2.032   .     S
Cd72   O86     2.056   .     S
Cd72   O89     2.050   .     S
Cd72   O95     2.014   .     S
N73    C136    1.462   .     S
N73    H149    1.044   .     S
N73    H150    1.045   .     S
N73    H154    1.046   .     S
C74    C76     1.518   .     S
C74    C92     1.577   .     S
C74    C122    1.561   .     S
C74    C108    1.561   1_556 S
O75    C90     1.277   .     A
O75    Cd143   2.032   .     S
C76    H77     1.080   .     S
C76    O137    1.272   .     D
O78    C90     1.267   .     A
O79    C92     1.443   .     S
O79    C96     1.419   .     S
O80    C107    1.272   1_655 A
O81    C107    1.269   1_655 S
C82    C84     1.411   .     A
C82    C90     1.475   .     S
C82    C139    1.396   .     A
O83    C108    1.433   .     S
O83    C111    1.408   .     S
C84    H85     1.084   .     S
C84    C87     1.398   .     A
O86    C121    1.394   .     S
O86    Cd143   2.137   .     S
C87    H88     1.078   .     S
C87    C138    1.413   .     A
O89    C121    1.219   .     D
O91    C122    1.440   .     S
O91    C125    1.419   .     S
C92    H93     1.110   .     S
C92    H94     1.111   .     S
O95    C135    1.279   1_545 D
C96    C98     1.413   .     A
C96    C105    1.402   .     A
O97    C135    1.282   .     A
O97    Cd143   2.050   1_565 A
C98    H99     1.081   .     S
C98    C100    1.413   .     A
C100   H101    1.083   .     S
C100   C102    1.412   .     A
C102   C103    1.406   .     A
C102   C107    1.501   .     S
C103   H104    1.081   .     S
C103   C105    1.404   .     A
C105   H106    1.083   .     S
C107   O80     1.272   1_455 A
C107   O81     1.269   1_455 S
C108   H109    1.112   .     S
C108   H110    1.112   .     S
C108   C74     1.561   1_554 S
C111   C112    1.394   .     A
C111   C119    1.412   .     A
C112   H113    1.083   .     S
C112   C114    1.391   .     A
C114   H115    1.065   .     S
C114   C116    1.397   .     A
C116   C117    1.410   .     A
C116   C121    1.492   1_565 S
C117   H118    1.081   .     S
C117   C119    1.412   .     A
C119   H120    1.079   .     S
C121   C116    1.492   1_545 S
C122   H123    1.112   .     S
C122   H124    1.112   .     S
C125   C126    1.405   .     A
C125   C133    1.411   .     A
C126   H127    1.080   .     S
C126   C128    1.405   .     A
C128   H129    1.080   .     S
C128   C130    1.405   .     A
C130   C131    1.408   .     A
C130   C135    1.491   .     S
C131   H132    1.083   .     S
C131   C133    1.396   .     A
C133   H134    1.078   .     S
C135   O95     1.279   1_565 D
C136   H151    1.110   .     S
C136   H152    1.112   .     S
C136   H153    1.108   .     S
O137   C138    1.407   .     S
C138   C141    1.401   .     A
C139   H140    1.082   .     S
C139   C141    1.390   .     A
C141   H142    1.079   .     S
Cd143  O4      2.017   1_545 S
Cd143  O15     2.112   1_545 S
Cd143  O97     2.050   1_545 A
