data_image0
_cell_length_a       10.6762
_cell_length_b       28.242
_cell_length_c       34.079
_cell_angle_alpha    90
_cell_angle_beta     90
_cell_angle_gamma    90

_symmetry_space_group_name_H-M    "P 1"
_symmetry_int_tables_number       1

loop_
  _symmetry_equiv_pos_as_xyz
  'x, y, z'

loop_
  _atom_site_label
  _atom_site_occupancy
  _atom_site_fract_x
  _atom_site_fract_y
  _atom_site_fract_z
  _atom_site_thermal_displace_type
  _atom_site_B_iso_or_equiv
  _atom_site_type_symbol
  O1       1.0000 0.65640  0.35741  0.05666  Biso   1.000  O
  C1       1.0000 0.52860  0.35850  0.99892  Biso   1.000  C
  O2       1.0000 0.85610  0.24089  0.20445  Biso   1.000  O
  C2       1.0000 0.58660  0.32768  0.03081  Biso   1.000  C
  H1       1.0000 0.52010  0.31100  0.04550  Biso   1.000  H
  H2       1.0000 0.64250  0.30370  0.01880  Biso   1.000  H
  O3       1.0000 0.96610  0.30789  0.20935  Biso   1.000  O
  C3       1.0000 0.62490  0.38927  0.97789  Biso   1.000  C
  H3       1.0000 0.58350  0.40820  0.95720  Biso   1.000  H
  H4       1.0000 0.66450  0.41130  0.99680  Biso   1.000  H
  O4       1.0000 0.71790  0.35930  0.96082  Biso   1.000  O
  C4       1.0000 0.46730  0.32415  0.96987  Biso   1.000  C
  H5       1.0000 0.53200  0.30380  0.95760  Biso   1.000  H
  H6       1.0000 0.40680  0.30350  0.98370  Biso   1.000  H
  O5       1.0000 0.96420  0.36847  0.79382  Biso   1.000  O
  C5       1.0000 0.43610  0.39332  0.01704  Biso   1.000  C
  H7       1.0000 0.48020  0.41430  0.03580  Biso   1.000  H
  H8       1.0000 0.39870  0.41330  0.99630  Biso   1.000  H
  O6       1.0000 0.89500  0.44203  0.79740  Biso   1.000  O
  C6       1.0000 0.70780  0.33658  0.08959  Biso   1.000  C
  O7       1.0000 0.40410  0.35121  0.94038  Biso   1.000  O
  C7       1.0000 0.69040  0.28978  0.10037  Biso   1.000  C
  H9       1.0000 0.64030  0.26940  0.08470  Biso   1.000  H
  O8       1.0000 0.10920  0.28770  0.78952  Biso   1.000  O
  C8       1.0000 0.74660  0.27319  0.13414  Biso   1.000  C
  H10      1.0000 0.73260  0.24130  0.14200  Biso   1.000  H
  O9       1.0000 0.22320  0.22283  0.79629  Biso   1.000  O
  C9       1.0000 0.82270  0.30178  0.15683  Biso   1.000  C
  O10      1.0000 0.34000  0.36759  0.03691  Biso   1.000  O
  C10      1.0000 0.84050  0.34845  0.14564  Biso   1.000  C
  H11      1.0000 0.89350  0.36830  0.16090  Biso   1.000  H
  O11      1.0000 0.20080  0.45826  0.20172  Biso   1.000  O
  C11      1.0000 0.78250  0.36663  0.11272  Biso   1.000  C
  H12      1.0000 0.79290  0.39900  0.10580  Biso   1.000  H
  O12      1.0000 0.11670  0.38687  0.20677  Biso   1.000  O
  C12      1.0000 0.88600  0.28153  0.19295  Biso   1.000  C
  C13      1.0000 0.76930  0.37329  0.92597  Biso   1.000  C
  C14      1.0000 0.82770  0.33752  0.90498  Biso   1.000  C
  H13      1.0000 0.83300  0.30640  0.91550  Biso   1.000  H
  C15      1.0000 0.87860  0.34773  0.86826  Biso   1.000  C
  H14      1.0000 0.91980  0.32350  0.85390  Biso   1.000  H
  O13      1.0000 0.61110  0.48920  0.72950  Biso   1.000  O
  C16      1.0000 0.86980  0.39243  0.85261  Biso   1.000  C
  O14      1.0000 0.66270  0.44530  0.77420  Biso   1.000  O
  C17      1.0000 0.81770  0.42827  0.87478  Biso   1.000  C
  H15      1.0000 0.81610  0.45960  0.86470  Biso   1.000  H
  C18      1.0000 0.76740  0.41931  0.91176  Biso   1.000  C
  H16      1.0000 0.73240  0.44420  0.92690  Biso   1.000  H
  C19      1.0000 0.91140  0.40173  0.81125  Biso   1.000  C
  C20      1.0000 0.35670  0.32735  0.90879  Biso   1.000  C
  C21      1.0000 0.37660  0.27977  0.90094  Biso   1.000  C
  H17      1.0000 0.42520  0.26100  0.91840  Biso   1.000  H
  C22      1.0000 0.32490  0.25978  0.86737  Biso   1.000  C
  H18      1.0000 0.34140  0.22750  0.86160  Biso   1.000  H
  C23      1.0000 0.25050  0.28554  0.84227  Biso   1.000  C
  C24      1.0000 0.22810  0.33312  0.85121  Biso   1.000  C
  H19      1.0000 0.17510  0.35130  0.83460  Biso   1.000  H
  C25      1.0000 0.28160  0.35401  0.88353  Biso   1.000  C
  H20      1.0000 0.26750  0.38660  0.88870  Biso   1.000  H
  C26      1.0000 0.19030  0.26338  0.80697  Biso   1.000  C
  C27      1.0000 0.30160  0.38338  0.07275  Biso   1.000  C
  C28      1.0000 0.22680  0.35187  0.09324  Biso   1.000  C
  H21      1.0000 0.20460  0.32240  0.08170  Biso   1.000  H
  C29      1.0000 0.18430  0.36295  0.13034  Biso   1.000  C
  H22      1.0000 0.13250  0.34130  0.14410  Biso   1.000  H
  C30      1.0000 0.21730  0.40588  0.14763  Biso   1.000  C
  C31      1.0000 0.28950  0.43768  0.12647  Biso   1.000  C
  H23      1.0000 0.31050  0.46740  0.13780  Biso   1.000  H
  C32      1.0000 0.33190  0.42690  0.08880  Biso   1.000  C
  H24      1.0000 0.38070  0.44900  0.07440  Biso   1.000  H
  C33      1.0000 0.17460  0.41779  0.18841  Biso   1.000  C
  O15      1.0000 0.34360  0.64259  0.55666  Biso   1.000  O
  C34      1.0000 0.47140  0.64150  0.49892  Biso   1.000  C
  O16      1.0000 0.14390  0.75911  0.70445  Biso   1.000  O
  C35      1.0000 0.41340  0.67232  0.53081  Biso   1.000  C
  H25      1.0000 0.47990  0.68900  0.54550  Biso   1.000  H
  H26      1.0000 0.35750  0.69630  0.51880  Biso   1.000  H
  O17      1.0000 0.03390  0.69211  0.70935  Biso   1.000  O
  C36      1.0000 0.37510  0.61073  0.47789  Biso   1.000  C
  H27      1.0000 0.41650  0.59180  0.45720  Biso   1.000  H
  H28      1.0000 0.33550  0.58870  0.49680  Biso   1.000  H
  O18      1.0000 0.28210  0.64070  0.46082  Biso   1.000  O
  C37      1.0000 0.53270  0.67585  0.46987  Biso   1.000  C
  H29      1.0000 0.46800  0.69620  0.45760  Biso   1.000  H
  H30      1.0000 0.59320  0.69650  0.48370  Biso   1.000  H
  O19      1.0000 0.03580  0.63153  0.29382  Biso   1.000  O
  C38      1.0000 0.56390  0.60668  0.51704  Biso   1.000  C
  H31      1.0000 0.51980  0.58570  0.53580  Biso   1.000  H
  H32      1.0000 0.60130  0.58670  0.49630  Biso   1.000  H
  O20      1.0000 0.10500  0.55797  0.29740  Biso   1.000  O
  C39      1.0000 0.29220  0.66342  0.58959  Biso   1.000  C
  O21      1.0000 0.59590  0.64879  0.44038  Biso   1.000  O
  C40      1.0000 0.30960  0.71022  0.60037  Biso   1.000  C
  H33      1.0000 0.35970  0.73060  0.58470  Biso   1.000  H
  O22      1.0000 0.89080  0.71230  0.28952  Biso   1.000  O
  C41      1.0000 0.25340  0.72681  0.63414  Biso   1.000  C
  H34      1.0000 0.26740  0.75870  0.64200  Biso   1.000  H
  O23      1.0000 0.77680  0.77717  0.29629  Biso   1.000  O
  C42      1.0000 0.17730  0.69822  0.65683  Biso   1.000  C
  O24      1.0000 0.66000  0.63241  0.53691  Biso   1.000  O
  C43      1.0000 0.15950  0.65155  0.64564  Biso   1.000  C
  H35      1.0000 0.10650  0.63170  0.66090  Biso   1.000  H
  O25      1.0000 0.79920  0.54174  0.70172  Biso   1.000  O
  C44      1.0000 0.21750  0.63337  0.61272  Biso   1.000  C
  H36      1.0000 0.20710  0.60100  0.60580  Biso   1.000  H
  O26      1.0000 0.88330  0.61313  0.70677  Biso   1.000  O
  C45      1.0000 0.11400  0.71847  0.69295  Biso   1.000  C
  C46      1.0000 0.23070  0.62671  0.42597  Biso   1.000  C
  C47      1.0000 0.17230  0.66248  0.40498  Biso   1.000  C
  H37      1.0000 0.16700  0.69360  0.41550  Biso   1.000  H
  C48      1.0000 0.12140  0.65227  0.36826  Biso   1.000  C
  H38      1.0000 0.08020  0.67650  0.35390  Biso   1.000  H
  O27      1.0000 0.38890  0.51080  0.22950  Biso   1.000  O
  C49      1.0000 0.13020  0.60757  0.35261  Biso   1.000  C
  O28      1.0000 0.33730  0.55470  0.27420  Biso   1.000  O
  C50      1.0000 0.18230  0.57173  0.37478  Biso   1.000  C
  H39      1.0000 0.18390  0.54040  0.36470  Biso   1.000  H
  C51      1.0000 0.23260  0.58069  0.41176  Biso   1.000  C
  H40      1.0000 0.26760  0.55580  0.42690  Biso   1.000  H
  C52      1.0000 0.08860  0.59827  0.31125  Biso   1.000  C
  C53      1.0000 0.64330  0.67265  0.40879  Biso   1.000  C
  C54      1.0000 0.62340  0.72023  0.40094  Biso   1.000  C
  H41      1.0000 0.57480  0.73900  0.41840  Biso   1.000  H
  C55      1.0000 0.67510  0.74022  0.36737  Biso   1.000  C
  H42      1.0000 0.65860  0.77250  0.36160  Biso   1.000  H
  C56      1.0000 0.74950  0.71446  0.34227  Biso   1.000  C
  C57      1.0000 0.77190  0.66688  0.35121  Biso   1.000  C
  H43      1.0000 0.82490  0.64870  0.33460  Biso   1.000  H
  C58      1.0000 0.71840  0.64599  0.38353  Biso   1.000  C
  H44      1.0000 0.73250  0.61340  0.38870  Biso   1.000  H
  C59      1.0000 0.80970  0.73662  0.30697  Biso   1.000  C
  C60      1.0000 0.69840  0.61662  0.57275  Biso   1.000  C
  C61      1.0000 0.77320  0.64813  0.59324  Biso   1.000  C
  H45      1.0000 0.79540  0.67760  0.58170  Biso   1.000  H
  C62      1.0000 0.81570  0.63705  0.63034  Biso   1.000  C
  H46      1.0000 0.86750  0.65870  0.64410  Biso   1.000  H
  C63      1.0000 0.78270  0.59412  0.64763  Biso   1.000  C
  C64      1.0000 0.71050  0.56232  0.62647  Biso   1.000  C
  H47      1.0000 0.68950  0.53260  0.63780  Biso   1.000  H
  C65      1.0000 0.66810  0.57310  0.58880  Biso   1.000  C
  H48      1.0000 0.61930  0.55100  0.57440  Biso   1.000  H
  C66      1.0000 0.82540  0.58221  0.68841  Biso   1.000  C
  O29      1.0000 0.34360  0.85741  0.44334  Biso   1.000  O
  C67      1.0000 0.47140  0.85850  0.50108  Biso   1.000  C
  O30      1.0000 0.14390  0.74089  0.29555  Biso   1.000  O
  C68      1.0000 0.41340  0.82768  0.46919  Biso   1.000  C
  H49      1.0000 0.47990  0.81100  0.45450  Biso   1.000  H
  H50      1.0000 0.35750  0.80370  0.48120  Biso   1.000  H
  O31      1.0000 0.03390  0.80789  0.29065  Biso   1.000  O
  C69      1.0000 0.37510  0.88927  0.52211  Biso   1.000  C
  H51      1.0000 0.41650  0.90820  0.54280  Biso   1.000  H
  H52      1.0000 0.33550  0.91130  0.50320  Biso   1.000  H
  O32      1.0000 0.28210  0.85930  0.53918  Biso   1.000  O
  C70      1.0000 0.53270  0.82415  0.53013  Biso   1.000  C
  H53      1.0000 0.46800  0.80380  0.54240  Biso   1.000  H
  H54      1.0000 0.59320  0.80350  0.51630  Biso   1.000  H
  O33      1.0000 0.03580  0.86847  0.70618  Biso   1.000  O
  C71      1.0000 0.56390  0.89332  0.48296  Biso   1.000  C
  H55      1.0000 0.51980  0.91430  0.46420  Biso   1.000  H
  H56      1.0000 0.60130  0.91330  0.50370  Biso   1.000  H
  O34      1.0000 0.10500  0.94203  0.70260  Biso   1.000  O
  C72      1.0000 0.29220  0.83658  0.41041  Biso   1.000  C
  O35      1.0000 0.59590  0.85121  0.55962  Biso   1.000  O
  C73      1.0000 0.30960  0.78978  0.39963  Biso   1.000  C
  H57      1.0000 0.35970  0.76940  0.41530  Biso   1.000  H
  O36      1.0000 0.89080  0.78770  0.71048  Biso   1.000  O
  C74      1.0000 0.25340  0.77319  0.36586  Biso   1.000  C
  H58      1.0000 0.26740  0.74130  0.35800  Biso   1.000  H
  O37      1.0000 0.77680  0.72283  0.70371  Biso   1.000  O
  C75      1.0000 0.17730  0.80178  0.34317  Biso   1.000  C
  O38      1.0000 0.66000  0.86759  0.46309  Biso   1.000  O
  C76      1.0000 0.15950  0.84845  0.35436  Biso   1.000  C
  H59      1.0000 0.10650  0.86830  0.33910  Biso   1.000  H
  O39      1.0000 0.79920  0.95826  0.29828  Biso   1.000  O
  C77      1.0000 0.21750  0.86663  0.38728  Biso   1.000  C
  H60      1.0000 0.20710  0.89900  0.39420  Biso   1.000  H
  O40      1.0000 0.88330  0.88687  0.29323  Biso   1.000  O
  C78      1.0000 0.11400  0.78153  0.30705  Biso   1.000  C
  C79      1.0000 0.23070  0.87329  0.57403  Biso   1.000  C
  C80      1.0000 0.17230  0.83752  0.59502  Biso   1.000  C
  H61      1.0000 0.16700  0.80640  0.58450  Biso   1.000  H
  C81      1.0000 0.12140  0.84773  0.63174  Biso   1.000  C
  H62      1.0000 0.08020  0.82350  0.64610  Biso   1.000  H
  O41      1.0000 0.38890  0.98920  0.77050  Biso   1.000  O
  C82      1.0000 0.13020  0.89243  0.64739  Biso   1.000  C
  O42      1.0000 0.33730  0.94530  0.72580  Biso   1.000  O
  C83      1.0000 0.18230  0.92827  0.62522  Biso   1.000  C
  H63      1.0000 0.18390  0.95960  0.63530  Biso   1.000  H
  C84      1.0000 0.23260  0.91931  0.58824  Biso   1.000  C
  H64      1.0000 0.26760  0.94420  0.57310  Biso   1.000  H
  C85      1.0000 0.08860  0.90173  0.68875  Biso   1.000  C
  C86      1.0000 0.64330  0.82735  0.59121  Biso   1.000  C
  C87      1.0000 0.62340  0.77977  0.59906  Biso   1.000  C
  H65      1.0000 0.57480  0.76100  0.58160  Biso   1.000  H
  C88      1.0000 0.67510  0.75978  0.63263  Biso   1.000  C
  H66      1.0000 0.65860  0.72750  0.63840  Biso   1.000  H
  C89      1.0000 0.74950  0.78554  0.65773  Biso   1.000  C
  C90      1.0000 0.77190  0.83312  0.64879  Biso   1.000  C
  H67      1.0000 0.82490  0.85130  0.66540  Biso   1.000  H
  C91      1.0000 0.71840  0.85401  0.61647  Biso   1.000  C
  H68      1.0000 0.73250  0.88660  0.61130  Biso   1.000  H
  C92      1.0000 0.80970  0.76338  0.69303  Biso   1.000  C
  C93      1.0000 0.69840  0.88338  0.42725  Biso   1.000  C
  C94      1.0000 0.77320  0.85187  0.40676  Biso   1.000  C
  H69      1.0000 0.79540  0.82240  0.41830  Biso   1.000  H
  C95      1.0000 0.81570  0.86295  0.36966  Biso   1.000  C
  H70      1.0000 0.86750  0.84130  0.35590  Biso   1.000  H
  C96      1.0000 0.78270  0.90588  0.35237  Biso   1.000  C
  C97      1.0000 0.71050  0.93768  0.37353  Biso   1.000  C
  H71      1.0000 0.68950  0.96740  0.36220  Biso   1.000  H
  C98      1.0000 0.66810  0.92690  0.41120  Biso   1.000  C
  H72      1.0000 0.61930  0.94900  0.42560  Biso   1.000  H
  C99      1.0000 0.82540  0.91779  0.31159  Biso   1.000  C
  O43      1.0000 0.65640  0.14259  0.94334  Biso   1.000  O
  C100     1.0000 0.52860  0.14150  0.00108  Biso   1.000  C
  O44      1.0000 0.85610  0.25911  0.79555  Biso   1.000  O
  C101     1.0000 0.58660  0.17232  0.96919  Biso   1.000  C
  H73      1.0000 0.52010  0.18900  0.95450  Biso   1.000  H
  H74      1.0000 0.64250  0.19630  0.98120  Biso   1.000  H
  O45      1.0000 0.96610  0.19211  0.79065  Biso   1.000  O
  C102     1.0000 0.62490  0.11073  0.02211  Biso   1.000  C
  H75      1.0000 0.58350  0.09180  0.04280  Biso   1.000  H
  H76      1.0000 0.66450  0.08870  0.00320  Biso   1.000  H
  O46      1.0000 0.71790  0.14070  0.03918  Biso   1.000  O
  C103     1.0000 0.46730  0.17585  0.03013  Biso   1.000  C
  H77      1.0000 0.53200  0.19620  0.04240  Biso   1.000  H
  H78      1.0000 0.40680  0.19650  0.01630  Biso   1.000  H
  O47      1.0000 0.96420  0.13153  0.20618  Biso   1.000  O
  C104     1.0000 0.43610  0.10668  0.98296  Biso   1.000  C
  H79      1.0000 0.48020  0.08570  0.96420  Biso   1.000  H
  H80      1.0000 0.39870  0.08670  0.00370  Biso   1.000  H
  O48      1.0000 0.89500  0.05797  0.20260  Biso   1.000  O
  C105     1.0000 0.70780  0.16342  0.91041  Biso   1.000  C
  O49      1.0000 0.40410  0.14879  0.05962  Biso   1.000  O
  C106     1.0000 0.69040  0.21022  0.89963  Biso   1.000  C
  H81      1.0000 0.64030  0.23060  0.91530  Biso   1.000  H
  O50      1.0000 0.10920  0.21230  0.21048  Biso   1.000  O
  C107     1.0000 0.74660  0.22681  0.86586  Biso   1.000  C
  H82      1.0000 0.73260  0.25870  0.85800  Biso   1.000  H
  O51      1.0000 0.22320  0.27717  0.20371  Biso   1.000  O
  C108     1.0000 0.82270  0.19822  0.84317  Biso   1.000  C
  O52      1.0000 0.34000  0.13241  0.96309  Biso   1.000  O
  C109     1.0000 0.84050  0.15155  0.85436  Biso   1.000  C
  H83      1.0000 0.89350  0.13170  0.83910  Biso   1.000  H
  O53      1.0000 0.20080  0.04174  0.79828  Biso   1.000  O
  C110     1.0000 0.78250  0.13337  0.88728  Biso   1.000  C
  H84      1.0000 0.79290  0.10100  0.89420  Biso   1.000  H
  O54      1.0000 0.11670  0.11313  0.79323  Biso   1.000  O
  C111     1.0000 0.88600  0.21847  0.80705  Biso   1.000  C
  C112     1.0000 0.76930  0.12671  0.07403  Biso   1.000  C
  C113     1.0000 0.82770  0.16248  0.09502  Biso   1.000  C
  H85      1.0000 0.83300  0.19360  0.08450  Biso   1.000  H
  C114     1.0000 0.87860  0.15227  0.13174  Biso   1.000  C
  H86      1.0000 0.91980  0.17650  0.14610  Biso   1.000  H
  O55      1.0000 0.61110  0.01080  0.27050  Biso   1.000  O
  C115     1.0000 0.86980  0.10757  0.14739  Biso   1.000  C
  O56      1.0000 0.66270  0.05470  0.22580  Biso   1.000  O
  C116     1.0000 0.81770  0.07173  0.12522  Biso   1.000  C
  H87      1.0000 0.81610  0.04040  0.13530  Biso   1.000  H
  C117     1.0000 0.76740  0.08069  0.08824  Biso   1.000  C
  H88      1.0000 0.73240  0.05580  0.07310  Biso   1.000  H
  C118     1.0000 0.91140  0.09827  0.18875  Biso   1.000  C
  C119     1.0000 0.35670  0.17265  0.09121  Biso   1.000  C
  C120     1.0000 0.37660  0.22023  0.09906  Biso   1.000  C
  H89      1.0000 0.42520  0.23900  0.08160  Biso   1.000  H
  C121     1.0000 0.32490  0.24022  0.13263  Biso   1.000  C
  H90      1.0000 0.34140  0.27250  0.13840  Biso   1.000  H
  C122     1.0000 0.25050  0.21446  0.15773  Biso   1.000  C
  C123     1.0000 0.22810  0.16688  0.14879  Biso   1.000  C
  H91      1.0000 0.17510  0.14870  0.16540  Biso   1.000  H
  C124     1.0000 0.28160  0.14599  0.11647  Biso   1.000  C
  H92      1.0000 0.26750  0.11340  0.11130  Biso   1.000  H
  C125     1.0000 0.19030  0.23662  0.19303  Biso   1.000  C
  C126     1.0000 0.30160  0.11662  0.92725  Biso   1.000  C
  C127     1.0000 0.22680  0.14813  0.90676  Biso   1.000  C
  H93      1.0000 0.20460  0.17760  0.91830  Biso   1.000  H
  C128     1.0000 0.18430  0.13705  0.86966  Biso   1.000  C
  H94      1.0000 0.13250  0.15870  0.85590  Biso   1.000  H
  C129     1.0000 0.21730  0.09412  0.85237  Biso   1.000  C
  C130     1.0000 0.28950  0.06232  0.87353  Biso   1.000  C
  H95      1.0000 0.31050  0.03260  0.86220  Biso   1.000  H
  C131     1.0000 0.33190  0.07310  0.91120  Biso   1.000  C
  H96      1.0000 0.38070  0.05100  0.92560  Biso   1.000  H
  C132     1.0000 0.17460  0.08221  0.81159  Biso   1.000  C
  O57      1.0000 0.34360  0.64259  0.94334  Biso   1.000  O
  C133     1.0000 0.47140  0.64150  0.00108  Biso   1.000  C
  O58      1.0000 0.14390  0.75911  0.79555  Biso   1.000  O
  C134     1.0000 0.41340  0.67232  0.96919  Biso   1.000  C
  H97      1.0000 0.47990  0.68900  0.95450  Biso   1.000  H
  H98      1.0000 0.35750  0.69630  0.98120  Biso   1.000  H
  O59      1.0000 0.03390  0.69211  0.79065  Biso   1.000  O
  C135     1.0000 0.37510  0.61073  0.02211  Biso   1.000  C
  H99      1.0000 0.41650  0.59180  0.04280  Biso   1.000  H
  H100     1.0000 0.33550  0.58870  0.00320  Biso   1.000  H
  O60      1.0000 0.28210  0.64070  0.03918  Biso   1.000  O
  C136     1.0000 0.53270  0.67585  0.03013  Biso   1.000  C
  H101     1.0000 0.46800  0.69620  0.04240  Biso   1.000  H
  H102     1.0000 0.59320  0.69650  0.01630  Biso   1.000  H
  O61      1.0000 0.03580  0.63153  0.20618  Biso   1.000  O
  C137     1.0000 0.56390  0.60668  0.98296  Biso   1.000  C
  H103     1.0000 0.51980  0.58570  0.96420  Biso   1.000  H
  H104     1.0000 0.60130  0.58670  0.00370  Biso   1.000  H
  O62      1.0000 0.10500  0.55797  0.20260  Biso   1.000  O
  C138     1.0000 0.29220  0.66342  0.91041  Biso   1.000  C
  O63      1.0000 0.59590  0.64879  0.05962  Biso   1.000  O
  C139     1.0000 0.30960  0.71022  0.89963  Biso   1.000  C
  H105     1.0000 0.35970  0.73060  0.91530  Biso   1.000  H
  O64      1.0000 0.89080  0.71230  0.21048  Biso   1.000  O
  C140     1.0000 0.25340  0.72681  0.86586  Biso   1.000  C
  H106     1.0000 0.26740  0.75870  0.85800  Biso   1.000  H
  O65      1.0000 0.77680  0.77717  0.20371  Biso   1.000  O
  C141     1.0000 0.17730  0.69822  0.84317  Biso   1.000  C
  O66      1.0000 0.66000  0.63241  0.96309  Biso   1.000  O
  C142     1.0000 0.15950  0.65155  0.85436  Biso   1.000  C
  H107     1.0000 0.10650  0.63170  0.83910  Biso   1.000  H
  O67      1.0000 0.79920  0.54174  0.79828  Biso   1.000  O
  C143     1.0000 0.21750  0.63337  0.88728  Biso   1.000  C
  H108     1.0000 0.20710  0.60100  0.89420  Biso   1.000  H
  O68      1.0000 0.88330  0.61313  0.79323  Biso   1.000  O
  C144     1.0000 0.11400  0.71847  0.80705  Biso   1.000  C
  C145     1.0000 0.23070  0.62671  0.07403  Biso   1.000  C
  C146     1.0000 0.17230  0.66248  0.09502  Biso   1.000  C
  H109     1.0000 0.16700  0.69360  0.08450  Biso   1.000  H
  C147     1.0000 0.12140  0.65227  0.13174  Biso   1.000  C
  H110     1.0000 0.08020  0.67650  0.14610  Biso   1.000  H
  O69      1.0000 0.38890  0.51080  0.27050  Biso   1.000  O
  C148     1.0000 0.13020  0.60757  0.14739  Biso   1.000  C
  O70      1.0000 0.33730  0.55470  0.22580  Biso   1.000  O
  C149     1.0000 0.18230  0.57173  0.12522  Biso   1.000  C
  H111     1.0000 0.18390  0.54040  0.13530  Biso   1.000  H
  C150     1.0000 0.23260  0.58069  0.08824  Biso   1.000  C
  H112     1.0000 0.26760  0.55580  0.07310  Biso   1.000  H
  C151     1.0000 0.08860  0.59827  0.18875  Biso   1.000  C
  C152     1.0000 0.64330  0.67265  0.09121  Biso   1.000  C
  C153     1.0000 0.62340  0.72023  0.09906  Biso   1.000  C
  H113     1.0000 0.57480  0.73900  0.08160  Biso   1.000  H
  C154     1.0000 0.67510  0.74022  0.13263  Biso   1.000  C
  H114     1.0000 0.65860  0.77250  0.13840  Biso   1.000  H
  C155     1.0000 0.74950  0.71446  0.15773  Biso   1.000  C
  C156     1.0000 0.77190  0.66688  0.14879  Biso   1.000  C
  H115     1.0000 0.82490  0.64870  0.16540  Biso   1.000  H
  C157     1.0000 0.71840  0.64599  0.11647  Biso   1.000  C
  H116     1.0000 0.73250  0.61340  0.11130  Biso   1.000  H
  C158     1.0000 0.80970  0.73662  0.19303  Biso   1.000  C
  C159     1.0000 0.69840  0.61662  0.92725  Biso   1.000  C
  C160     1.0000 0.77320  0.64813  0.90676  Biso   1.000  C
  H117     1.0000 0.79540  0.67760  0.91830  Biso   1.000  H
  C161     1.0000 0.81570  0.63705  0.86966  Biso   1.000  C
  H118     1.0000 0.86750  0.65870  0.85590  Biso   1.000  H
  C162     1.0000 0.78270  0.59412  0.85237  Biso   1.000  C
  C163     1.0000 0.71050  0.56232  0.87353  Biso   1.000  C
  H119     1.0000 0.68950  0.53260  0.86220  Biso   1.000  H
  C164     1.0000 0.66810  0.57310  0.91120  Biso   1.000  C
  H120     1.0000 0.61930  0.55100  0.92560  Biso   1.000  H
  C165     1.0000 0.82540  0.58221  0.81159  Biso   1.000  C
  O71      1.0000 0.65640  0.35741  0.44334  Biso   1.000  O
  C166     1.0000 0.52860  0.35850  0.50108  Biso   1.000  C
  O72      1.0000 0.85610  0.24089  0.29555  Biso   1.000  O
  C167     1.0000 0.58660  0.32768  0.46919  Biso   1.000  C
  H121     1.0000 0.52010  0.31100  0.45450  Biso   1.000  H
  H122     1.0000 0.64250  0.30370  0.48120  Biso   1.000  H
  O73      1.0000 0.96610  0.30789  0.29065  Biso   1.000  O
  C168     1.0000 0.62490  0.38927  0.52211  Biso   1.000  C
  H123     1.0000 0.58350  0.40820  0.54280  Biso   1.000  H
  H124     1.0000 0.66450  0.41130  0.50320  Biso   1.000  H
  O74      1.0000 0.71790  0.35930  0.53918  Biso   1.000  O
  C169     1.0000 0.46730  0.32415  0.53013  Biso   1.000  C
  H125     1.0000 0.53200  0.30380  0.54240  Biso   1.000  H
  H126     1.0000 0.40680  0.30350  0.51630  Biso   1.000  H
  O75      1.0000 0.96420  0.36847  0.70618  Biso   1.000  O
  C170     1.0000 0.43610  0.39332  0.48296  Biso   1.000  C
  H127     1.0000 0.48020  0.41430  0.46420  Biso   1.000  H
  H128     1.0000 0.39870  0.41330  0.50370  Biso   1.000  H
  O76      1.0000 0.89500  0.44203  0.70260  Biso   1.000  O
  C171     1.0000 0.70780  0.33658  0.41041  Biso   1.000  C
  O77      1.0000 0.40410  0.35121  0.55962  Biso   1.000  O
  C172     1.0000 0.69040  0.28978  0.39963  Biso   1.000  C
  H129     1.0000 0.64030  0.26940  0.41530  Biso   1.000  H
  O78      1.0000 0.10920  0.28770  0.71048  Biso   1.000  O
  C173     1.0000 0.74660  0.27319  0.36586  Biso   1.000  C
  H130     1.0000 0.73260  0.24130  0.35800  Biso   1.000  H
  O79      1.0000 0.22320  0.22283  0.70371  Biso   1.000  O
  C174     1.0000 0.82270  0.30178  0.34317  Biso   1.000  C
  O80      1.0000 0.34000  0.36759  0.46309  Biso   1.000  O
  C175     1.0000 0.84050  0.34845  0.35436  Biso   1.000  C
  H131     1.0000 0.89350  0.36830  0.33910  Biso   1.000  H
  O81      1.0000 0.20080  0.45826  0.29828  Biso   1.000  O
  C176     1.0000 0.78250  0.36663  0.38728  Biso   1.000  C
  H132     1.0000 0.79290  0.39900  0.39420  Biso   1.000  H
  O82      1.0000 0.11670  0.38687  0.29323  Biso   1.000  O
  C177     1.0000 0.88600  0.28153  0.30705  Biso   1.000  C
  C178     1.0000 0.76930  0.37329  0.57403  Biso   1.000  C
  C179     1.0000 0.82770  0.33752  0.59502  Biso   1.000  C
  H133     1.0000 0.83300  0.30640  0.58450  Biso   1.000  H
  C180     1.0000 0.87860  0.34773  0.63174  Biso   1.000  C
  H134     1.0000 0.91980  0.32350  0.64610  Biso   1.000  H
  O83      1.0000 0.61110  0.48920  0.77050  Biso   1.000  O
  C181     1.0000 0.86980  0.39243  0.64739  Biso   1.000  C
  O84      1.0000 0.66270  0.44530  0.72580  Biso   1.000  O
  C182     1.0000 0.81770  0.42827  0.62522  Biso   1.000  C
  H135     1.0000 0.81610  0.45960  0.63530  Biso   1.000  H
  C183     1.0000 0.76740  0.41931  0.58824  Biso   1.000  C
  H136     1.0000 0.73240  0.44420  0.57310  Biso   1.000  H
  C184     1.0000 0.91140  0.40173  0.68875  Biso   1.000  C
  C185     1.0000 0.35670  0.32735  0.59121  Biso   1.000  C
  C186     1.0000 0.37660  0.27977  0.59906  Biso   1.000  C
  H137     1.0000 0.42520  0.26100  0.58160  Biso   1.000  H
  C187     1.0000 0.32490  0.25978  0.63263  Biso   1.000  C
  H138     1.0000 0.34140  0.22750  0.63840  Biso   1.000  H
  C188     1.0000 0.25050  0.28554  0.65773  Biso   1.000  C
  C189     1.0000 0.22810  0.33312  0.64879  Biso   1.000  C
  H139     1.0000 0.17510  0.35130  0.66540  Biso   1.000  H
  C190     1.0000 0.28160  0.35401  0.61647  Biso   1.000  C
  H140     1.0000 0.26750  0.38660  0.61130  Biso   1.000  H
  C191     1.0000 0.19030  0.26338  0.69303  Biso   1.000  C
  C192     1.0000 0.30160  0.38338  0.42725  Biso   1.000  C
  C193     1.0000 0.22680  0.35187  0.40676  Biso   1.000  C
  H141     1.0000 0.20460  0.32240  0.41830  Biso   1.000  H
  C194     1.0000 0.18430  0.36295  0.36966  Biso   1.000  C
  H142     1.0000 0.13250  0.34130  0.35590  Biso   1.000  H
  C195     1.0000 0.21730  0.40588  0.35237  Biso   1.000  C
  C196     1.0000 0.28950  0.43768  0.37353  Biso   1.000  C
  H143     1.0000 0.31050  0.46740  0.36220  Biso   1.000  H
  C197     1.0000 0.33190  0.42690  0.41120  Biso   1.000  C
  H144     1.0000 0.38070  0.44900  0.42560  Biso   1.000  H
  C198     1.0000 0.17460  0.41779  0.31159  Biso   1.000  C
  O85      1.0000 0.65640  0.14259  0.55666  Biso   1.000  O
  C199     1.0000 0.52860  0.14150  0.49892  Biso   1.000  C
  O86      1.0000 0.85610  0.25911  0.70445  Biso   1.000  O
  C200     1.0000 0.58660  0.17232  0.53081  Biso   1.000  C
  H145     1.0000 0.52010  0.18900  0.54550  Biso   1.000  H
  H146     1.0000 0.64250  0.19630  0.51880  Biso   1.000  H
  O87      1.0000 0.96610  0.19211  0.70935  Biso   1.000  O
  C201     1.0000 0.62490  0.11073  0.47789  Biso   1.000  C
  H147     1.0000 0.58350  0.09180  0.45720  Biso   1.000  H
  H148     1.0000 0.66450  0.08870  0.49680  Biso   1.000  H
  O88      1.0000 0.71790  0.14070  0.46082  Biso   1.000  O
  C202     1.0000 0.46730  0.17585  0.46987  Biso   1.000  C
  H149     1.0000 0.53200  0.19620  0.45760  Biso   1.000  H
  H150     1.0000 0.40680  0.19650  0.48370  Biso   1.000  H
  O89      1.0000 0.96420  0.13153  0.29382  Biso   1.000  O
  C203     1.0000 0.43610  0.10668  0.51704  Biso   1.000  C
  H151     1.0000 0.48020  0.08570  0.53580  Biso   1.000  H
  H152     1.0000 0.39870  0.08670  0.49630  Biso   1.000  H
  O90      1.0000 0.89500  0.05797  0.29740  Biso   1.000  O
  C204     1.0000 0.70780  0.16342  0.58959  Biso   1.000  C
  O91      1.0000 0.40410  0.14879  0.44038  Biso   1.000  O
  C205     1.0000 0.69040  0.21022  0.60037  Biso   1.000  C
  H153     1.0000 0.64030  0.23060  0.58470  Biso   1.000  H
  O92      1.0000 0.10920  0.21230  0.28952  Biso   1.000  O
  C206     1.0000 0.74660  0.22681  0.63414  Biso   1.000  C
  H154     1.0000 0.73260  0.25870  0.64200  Biso   1.000  H
  O93      1.0000 0.22320  0.27717  0.29629  Biso   1.000  O
  C207     1.0000 0.82270  0.19822  0.65683  Biso   1.000  C
  O94      1.0000 0.34000  0.13241  0.53691  Biso   1.000  O
  C208     1.0000 0.84050  0.15155  0.64564  Biso   1.000  C
  H155     1.0000 0.89350  0.13170  0.66090  Biso   1.000  H
  O95      1.0000 0.20080  0.04174  0.70172  Biso   1.000  O
  C209     1.0000 0.78250  0.13337  0.61272  Biso   1.000  C
  H156     1.0000 0.79290  0.10100  0.60580  Biso   1.000  H
  O96      1.0000 0.11670  0.11313  0.70677  Biso   1.000  O
  C210     1.0000 0.88600  0.21847  0.69295  Biso   1.000  C
  C211     1.0000 0.76930  0.12671  0.42597  Biso   1.000  C
  C212     1.0000 0.82770  0.16248  0.40498  Biso   1.000  C
  H157     1.0000 0.83300  0.19360  0.41550  Biso   1.000  H
  C213     1.0000 0.87860  0.15227  0.36826  Biso   1.000  C
  H158     1.0000 0.91980  0.17650  0.35390  Biso   1.000  H
  O97      1.0000 0.61110  0.01080  0.22950  Biso   1.000  O
  C214     1.0000 0.86980  0.10757  0.35261  Biso   1.000  C
  O98      1.0000 0.66270  0.05470  0.27420  Biso   1.000  O
  C215     1.0000 0.81770  0.07173  0.37478  Biso   1.000  C
  H159     1.0000 0.81610  0.04040  0.36470  Biso   1.000  H
  C216     1.0000 0.76740  0.08069  0.41176  Biso   1.000  C
  H160     1.0000 0.73240  0.05580  0.42690  Biso   1.000  H
  C217     1.0000 0.91140  0.09827  0.31125  Biso   1.000  C
  C218     1.0000 0.35670  0.17265  0.40879  Biso   1.000  C
  C219     1.0000 0.37660  0.22023  0.40094  Biso   1.000  C
  H161     1.0000 0.42520  0.23900  0.41840  Biso   1.000  H
  C220     1.0000 0.32490  0.24022  0.36737  Biso   1.000  C
  H162     1.0000 0.34140  0.27250  0.36160  Biso   1.000  H
  C221     1.0000 0.25050  0.21446  0.34227  Biso   1.000  C
  C222     1.0000 0.22810  0.16688  0.35121  Biso   1.000  C
  H163     1.0000 0.17510  0.14870  0.33460  Biso   1.000  H
  C223     1.0000 0.28160  0.14599  0.38353  Biso   1.000  C
  H164     1.0000 0.26750  0.11340  0.38870  Biso   1.000  H
  C224     1.0000 0.19030  0.23662  0.30697  Biso   1.000  C
  C225     1.0000 0.30160  0.11662  0.57275  Biso   1.000  C
  C226     1.0000 0.22680  0.14813  0.59324  Biso   1.000  C
  H165     1.0000 0.20460  0.17760  0.58170  Biso   1.000  H
  C227     1.0000 0.18430  0.13705  0.63034  Biso   1.000  C
  H166     1.0000 0.13250  0.15870  0.64410  Biso   1.000  H
  C228     1.0000 0.21730  0.09412  0.64763  Biso   1.000  C
  C229     1.0000 0.28950  0.06232  0.62647  Biso   1.000  C
  H167     1.0000 0.31050  0.03260  0.63780  Biso   1.000  H
  C230     1.0000 0.33190  0.07310  0.58880  Biso   1.000  C
  H168     1.0000 0.38070  0.05100  0.57440  Biso   1.000  H
  C231     1.0000 0.17460  0.08221  0.68841  Biso   1.000  C
  O99      1.0000 0.34360  0.85741  0.05666  Biso   1.000  O
  C232     1.0000 0.47140  0.85850  0.99892  Biso   1.000  C
  O100     1.0000 0.14390  0.74089  0.20445  Biso   1.000  O
  C233     1.0000 0.41340  0.82768  0.03081  Biso   1.000  C
  H169     1.0000 0.47990  0.81100  0.04550  Biso   1.000  H
  H170     1.0000 0.35750  0.80370  0.01880  Biso   1.000  H
  O101     1.0000 0.03390  0.80789  0.20935  Biso   1.000  O
  C234     1.0000 0.37510  0.88927  0.97789  Biso   1.000  C
  H171     1.0000 0.41650  0.90820  0.95720  Biso   1.000  H
  H172     1.0000 0.33550  0.91130  0.99680  Biso   1.000  H
  O102     1.0000 0.28210  0.85930  0.96082  Biso   1.000  O
  C235     1.0000 0.53270  0.82415  0.96987  Biso   1.000  C
  H173     1.0000 0.46800  0.80380  0.95760  Biso   1.000  H
  H174     1.0000 0.59320  0.80350  0.98370  Biso   1.000  H
  O103     1.0000 0.03580  0.86847  0.79382  Biso   1.000  O
  C236     1.0000 0.56390  0.89332  0.01704  Biso   1.000  C
  H175     1.0000 0.51980  0.91430  0.03580  Biso   1.000  H
  H176     1.0000 0.60130  0.91330  0.99630  Biso   1.000  H
  O104     1.0000 0.10500  0.94203  0.79740  Biso   1.000  O
  C237     1.0000 0.29220  0.83658  0.08959  Biso   1.000  C
  O105     1.0000 0.59590  0.85121  0.94038  Biso   1.000  O
  C238     1.0000 0.30960  0.78978  0.10037  Biso   1.000  C
  H177     1.0000 0.35970  0.76940  0.08470  Biso   1.000  H
  O106     1.0000 0.89080  0.78770  0.78952  Biso   1.000  O
  C239     1.0000 0.25340  0.77319  0.13414  Biso   1.000  C
  H178     1.0000 0.26740  0.74130  0.14200  Biso   1.000  H
  O107     1.0000 0.77680  0.72283  0.79629  Biso   1.000  O
  C240     1.0000 0.17730  0.80178  0.15683  Biso   1.000  C
  O108     1.0000 0.66000  0.86759  0.03691  Biso   1.000  O
  C241     1.0000 0.15950  0.84845  0.14564  Biso   1.000  C
  H179     1.0000 0.10650  0.86830  0.16090  Biso   1.000  H
  O109     1.0000 0.79920  0.95826  0.20172  Biso   1.000  O
  C242     1.0000 0.21750  0.86663  0.11272  Biso   1.000  C
  H180     1.0000 0.20710  0.89900  0.10580  Biso   1.000  H
  O110     1.0000 0.88330  0.88687  0.20677  Biso   1.000  O
  C243     1.0000 0.11400  0.78153  0.19295  Biso   1.000  C
  C244     1.0000 0.23070  0.87329  0.92597  Biso   1.000  C
  C245     1.0000 0.17230  0.83752  0.90498  Biso   1.000  C
  H181     1.0000 0.16700  0.80640  0.91550  Biso   1.000  H
  C246     1.0000 0.12140  0.84773  0.86826  Biso   1.000  C
  H182     1.0000 0.08020  0.82350  0.85390  Biso   1.000  H
  O111     1.0000 0.38890  0.98920  0.72950  Biso   1.000  O
  C247     1.0000 0.13020  0.89243  0.85261  Biso   1.000  C
  O112     1.0000 0.33730  0.94530  0.77420  Biso   1.000  O
  C248     1.0000 0.18230  0.92827  0.87478  Biso   1.000  C
  H183     1.0000 0.18390  0.95960  0.86470  Biso   1.000  H
  C249     1.0000 0.23260  0.91931  0.91176  Biso   1.000  C
  H184     1.0000 0.26760  0.94420  0.92690  Biso   1.000  H
  C250     1.0000 0.08860  0.90173  0.81125  Biso   1.000  C
  C251     1.0000 0.64330  0.82735  0.90879  Biso   1.000  C
  C252     1.0000 0.62340  0.77977  0.90094  Biso   1.000  C
  H185     1.0000 0.57480  0.76100  0.91840  Biso   1.000  H
  C253     1.0000 0.67510  0.75978  0.86737  Biso   1.000  C
  H186     1.0000 0.65860  0.72750  0.86160  Biso   1.000  H
  C254     1.0000 0.74950  0.78554  0.84227  Biso   1.000  C
  C255     1.0000 0.77190  0.83312  0.85121  Biso   1.000  C
  H187     1.0000 0.82490  0.85130  0.83460  Biso   1.000  H
  C256     1.0000 0.71840  0.85401  0.88353  Biso   1.000  C
  H188     1.0000 0.73250  0.88660  0.88870  Biso   1.000  H
  C257     1.0000 0.80970  0.76338  0.80697  Biso   1.000  C
  C258     1.0000 0.69840  0.88338  0.07275  Biso   1.000  C
  C259     1.0000 0.77320  0.85187  0.09324  Biso   1.000  C
  H189     1.0000 0.79540  0.82240  0.08170  Biso   1.000  H
  C260     1.0000 0.81570  0.86295  0.13034  Biso   1.000  C
  H190     1.0000 0.86750  0.84130  0.14410  Biso   1.000  H
  C261     1.0000 0.78270  0.90588  0.14763  Biso   1.000  C
  C262     1.0000 0.71050  0.93768  0.12647  Biso   1.000  C
  H191     1.0000 0.68950  0.96740  0.13780  Biso   1.000  H
  C263     1.0000 0.66810  0.92690  0.08880  Biso   1.000  C
  H192     1.0000 0.61930  0.94900  0.07440  Biso   1.000  H
  C264     1.0000 0.82540  0.91779  0.18841  Biso   1.000  C
  Y1       1.0000 0.94871  0.19161  0.25000  Biso   1.000  Y
  Y2       1.0000 0.12830  0.32601  0.25000  Biso   1.000  Y
  Y3       1.0000 0.05129  0.80839  0.75000  Biso   1.000  Y
  Y4       1.0000 0.87170  0.67399  0.75000  Biso   1.000  Y
  Y5       1.0000 0.05129  0.69161  0.25000  Biso   1.000  Y
  Y6       1.0000 0.87170  0.82601  0.25000  Biso   1.000  Y
  Y7       1.0000 0.94871  0.30839  0.75000  Biso   1.000  Y
  Y8       1.0000 0.12830  0.17399  0.75000  Biso   1.000  Y
  Y9       1.0000 0.83207  0.49018  0.75000  Biso   1.000  Y
  N1       1.0000 0.59260  0.45950  0.75000  Biso   1.000  N
  O113     1.0000 0.47530  0.44730  0.75000  Biso   1.000  O
  Y10      1.0000 0.16793  0.50982  0.25000  Biso   1.000  Y
  N2       1.0000 0.40740  0.54050  0.25000  Biso   1.000  N
  O114     1.0000 0.52470  0.55270  0.25000  Biso   1.000  O
  Y11      1.0000 0.16793  0.99018  0.75000  Biso   1.000  Y
  N3       1.0000 0.40740  0.95950  0.75000  Biso   1.000  N
  O115     1.0000 0.52470  0.94730  0.75000  Biso   1.000  O
  Y12      1.0000 0.83207  0.00982  0.25000  Biso   1.000  Y
  N4       1.0000 0.59260  0.04050  0.25000  Biso   1.000  N
  O116     1.0000 0.47530  0.05270  0.25000  Biso   1.000  O
