data_OXALUV_clean
_audit_creation_date              2015-05-14
_audit_creation_method            'Materials Studio'
_symmetry_space_group_name_H-M    'P1'
_symmetry_Int_Tables_number       1
_symmetry_cell_setting            triclinic
loop_
_symmetry_equiv_pos_as_xyz
  x,y,z
_cell_length_a                    21.6561
_cell_length_b                    21.6561
_cell_length_c                    21.5494
_cell_angle_alpha                 101.9800
_cell_angle_beta                  101.9800
_cell_angle_gamma                 126.0367
loop_
_atom_site_label
_atom_site_type_symbol
_atom_site_fract_x
_atom_site_fract_y
_atom_site_fract_z
_atom_site_U_iso_or_equiv
_atom_site_adp_type
_atom_site_occupancy
In1    In    0.47674   0.81757   0.91837   0.01267  Uiso   1.00
H2     H     0.13710   0.22910   0.05520   0.01267  Uiso   1.00
H3     H     0.16910   0.27850   0.00690   0.01267  Uiso   1.00
H4     H     0.37660   0.41560   0.19810   0.01267  Uiso   1.00
H5     H     0.46900   0.38940   0.21530   0.01267  Uiso   1.00
H6     H     0.32200   0.19540   0.02900   0.01267  Uiso   1.00
H7     H     0.22250   0.21570   0.01570   0.01267  Uiso   1.00
H8     H     0.00380   0.28620   0.02310   0.01267  Uiso   1.00
H9     H     0.02110   0.24370   0.96710   0.01267  Uiso   1.00
H10    H     0.87650   0.05870   0.97010   0.01267  Uiso   1.00
H11    H     0.73280   0.96700   0.94760   0.01267  Uiso   1.00
H12    H     0.75660   0.16900   0.01220   0.01267  Uiso   1.00
H13    H     0.89780   0.25440   0.03530   0.01267  Uiso   1.00
H14    H     0.11410   0.28950   0.15250   0.01267  Uiso   1.00
H15    H     0.19040   0.38740   0.17540   0.01267  Uiso   1.00
H16    H     0.18040   0.38740   0.27480   0.01267  Uiso   1.00
H17    H     0.17480   0.42420   0.38260   0.01267  Uiso   1.00
H18    H     0.99050   0.41970   0.29300   0.01267  Uiso   1.00
H19    H     0.99310   0.37910   0.18390   0.01267  Uiso   1.00
H20    H     0.15270   0.43810   0.06990   0.01267  Uiso   1.00
H21    H     0.23300   0.44500   0.08260   0.01267  Uiso   1.00
H22    H     0.25970   0.53990   0.05930   0.01267  Uiso   1.00
H23    H     0.33800   0.65300   0.01860   0.01267  Uiso   1.00
H24    H     0.21660   0.46580   0.82860   0.01267  Uiso   1.00
H25    H     0.15130   0.36590   0.87270   0.01267  Uiso   1.00
C26    C     0.12145   0.32055   0.06660   0.01267  Uiso   1.00
C27    C     0.16720   0.28440   0.05310   0.01267  Uiso   1.00
C28    C     0.29424   0.31916   0.10710   0.01267  Uiso   1.00
C29    C     0.36370   0.36950   0.16360   0.01267  Uiso   1.00
C30    C     0.41963   0.35457   0.17310   0.01267  Uiso   1.00
C31    C     0.40395   0.29065   0.12240   0.01267  Uiso   1.00
C32    C     0.33356   0.23984   0.06450   0.01267  Uiso   1.00
C33    C     0.27421   0.25259   0.05590   0.01267  Uiso   1.00
C34    C     0.46645   0.28075   0.13570   0.01267  Uiso   1.00
C35    C     0.02740   0.25900   0.01600   0.01267  Uiso   1.00
C36    C     0.89650   0.16210   0.00340   0.01267  Uiso   1.00
C37    C     0.85090   0.08130   0.97890   0.01267  Uiso   1.00
C38    C     0.76480   0.02600   0.96490   0.01267  Uiso   1.00
C39    C     0.72940   0.05820   0.97650   0.01267  Uiso   1.00
C40    C     0.78000   0.14420   0.00300   0.01267  Uiso   1.00
C41    C     0.86380   0.19520   0.01650   0.01267  Uiso   1.00
C42    C     0.63729   0.00351   0.96160   0.01267  Uiso   1.00
C43    C     0.13093   0.33887   0.14300   0.01267  Uiso   1.00
C44    C     0.08569   0.37671   0.21940   0.01267  Uiso   1.00
C45    C     0.14031   0.39249   0.27760   0.01267  Uiso   1.00
C46    C     0.13797   0.41643   0.34260   0.01267  Uiso   1.00
C47    C     0.08471   0.42869   0.34940   0.01267  Uiso   1.00
C48    C     0.02975   0.41325   0.28990   0.01267  Uiso   1.00
C49    C     0.03047   0.38813   0.22430   0.01267  Uiso   1.00
C50    C     0.08426   0.45654   0.41820   0.01267  Uiso   1.00
C51    C     0.17152   0.40768   0.05560   0.01267  Uiso   1.00
C52    C     0.25180   0.52660   0.01190   0.01267  Uiso   1.00
C53    C     0.30020   0.59520   0.98760   0.01267  Uiso   1.00
C54    C     0.28703   0.57017   0.91970   0.01267  Uiso   1.00
C55    C     0.22840   0.48380   0.87680   0.01267  Uiso   1.00
C56    C     0.18740   0.42420   0.90200   0.01267  Uiso   1.00
C57    C     0.19911   0.44929   0.96610   0.01267  Uiso   1.00
C58    C     0.33246   0.62974   0.88930   0.01267  Uiso   1.00
O59    O     0.24549   0.34171   0.10470   0.01267  Uiso   1.00
O60    O     0.98700   0.19160   0.02780   0.01267  Uiso   1.00
O61    O     0.08188   0.35592   0.15350   0.01267  Uiso   1.00
O62    O     0.15113   0.38127   0.98740   0.01267  Uiso   1.00
O63    O     0.46132   0.23222   0.08697   0.01267  Uiso   1.00
O64    O     0.52270   0.32370   0.19760   0.01267  Uiso   1.00
O65    O     0.59481   0.92879   0.92770   0.01267  Uiso   1.00
O66    O     0.61285   0.03895   0.98580   0.01267  Uiso   1.00
O67    O     0.03390   0.46808   0.41959   0.01267  Uiso   1.00
O68    O     0.13411   0.46587   0.46979   0.01267  Uiso   1.00
O69    O     0.37853   0.70647   0.92760   0.01267  Uiso   1.00
O70    O     0.32120   0.59940   0.82830   0.01267  Uiso   1.00
O71    O     0.41157   0.76353   0.80934   0.01267  Uiso   1.00
O72    O     0.42761   0.87855   0.92536   0.01267  Uiso   1.00
H73    H     0.23647   0.63563   0.70051   0.01267  Uiso   1.00
H74    H     0.18427   0.66104   0.60624   0.01267  Uiso   1.00
In75   In    0.18243   0.52326   0.58163   0.01267  Uiso   1.00
H76    H     0.77090   0.86290   0.44480   0.01267  Uiso   1.00
H77    H     0.72150   0.83090   0.49310   0.01267  Uiso   1.00
H78    H     0.58440   0.62340   0.30190   0.01267  Uiso   1.00
H79    H     0.61060   0.53100   0.28470   0.01267  Uiso   1.00
H80    H     0.80460   0.67800   0.47100   0.01267  Uiso   1.00
H81    H     0.78430   0.77750   0.48430   0.01267  Uiso   1.00
H82    H     0.71380   0.99620   0.47690   0.01267  Uiso   1.00
H83    H     0.75630   0.97890   0.53290   0.01267  Uiso   1.00
H84    H     0.94130   0.12350   0.52990   0.01267  Uiso   1.00
H85    H     0.03300   0.26720   0.55240   0.01267  Uiso   1.00
H86    H     0.83100   0.24340   0.48780   0.01267  Uiso   1.00
H87    H     0.74560   0.10220   0.46470   0.01267  Uiso   1.00
H88    H     0.71050   0.88590   0.34750   0.01267  Uiso   1.00
H89    H     0.61260   0.80960   0.32460   0.01267  Uiso   1.00
H90    H     0.61260   0.81960   0.22520   0.01267  Uiso   1.00
H91    H     0.57580   0.82520   0.11740   0.01267  Uiso   1.00
H92    H     0.58030   0.00950   0.20700   0.01267  Uiso   1.00
H93    H     0.62090   0.00690   0.31610   0.01267  Uiso   1.00
H94    H     0.56190   0.84730   0.43010   0.01267  Uiso   1.00
H95    H     0.55500   0.76700   0.41740   0.01267  Uiso   1.00
H96    H     0.46010   0.74030   0.44070   0.01267  Uiso   1.00
H97    H     0.34700   0.66200   0.48140   0.01267  Uiso   1.00
H98    H     0.53420   0.78340   0.67140   0.01267  Uiso   1.00
H99    H     0.63410   0.84870   0.62730   0.01267  Uiso   1.00
C100   C     0.67945   0.87855   0.43340   0.01267  Uiso   1.00
C101   C     0.71560   0.83280   0.44690   0.01267  Uiso   1.00
C102   C     0.68084   0.70576   0.39290   0.01267  Uiso   1.00
C103   C     0.63050   0.63630   0.33640   0.01267  Uiso   1.00
C104   C     0.64543   0.58037   0.32690   0.01267  Uiso   1.00
C105   C     0.70935   0.59605   0.37760   0.01267  Uiso   1.00
C106   C     0.76016   0.66644   0.43550   0.01267  Uiso   1.00
C107   C     0.74741   0.72579   0.44410   0.01267  Uiso   1.00
C108   C     0.71925   0.53355   0.36430   0.01267  Uiso   1.00
C109   C     0.74100   0.97260   0.48400   0.01267  Uiso   1.00
C110   C     0.83790   0.10350   0.49660   0.01267  Uiso   1.00
C111   C     0.91870   0.14910   0.52110   0.01267  Uiso   1.00
C112   C     0.97400   0.23520   0.53510   0.01267  Uiso   1.00
C113   C     0.94180   0.27060   0.52350   0.01267  Uiso   1.00
C114   C     0.85580   0.22000   0.49700   0.01267  Uiso   1.00
C115   C     0.80480   0.13620   0.48350   0.01267  Uiso   1.00
C116   C     0.99649   0.36271   0.53840   0.01267  Uiso   1.00
C117   C     0.66113   0.86907   0.35700   0.01267  Uiso   1.00
C118   C     0.62329   0.91431   0.28060   0.01267  Uiso   1.00
C119   C     0.60751   0.85969   0.22240   0.01267  Uiso   1.00
C120   C     0.58357   0.86203   0.15740   0.01267  Uiso   1.00
C121   C     0.57131   0.91529   0.15060   0.01267  Uiso   1.00
C122   C     0.58675   0.97025   0.21010   0.01267  Uiso   1.00
C123   C     0.61187   0.96953   0.27570   0.01267  Uiso   1.00
C124   C     0.54346   0.91574   0.08180   0.01267  Uiso   1.00
C125   C     0.59232   0.82848   0.44440   0.01267  Uiso   1.00
C126   C     0.47340   0.74820   0.48810   0.01267  Uiso   1.00
C127   C     0.40480   0.69980   0.51240   0.01267  Uiso   1.00
C128   C     0.42983   0.71297   0.58030   0.01267  Uiso   1.00
C129   C     0.51620   0.77160   0.62320   0.01267  Uiso   1.00
C130   C     0.57580   0.81260   0.59800   0.01267  Uiso   1.00
C131   C     0.55071   0.80089   0.53390   0.01267  Uiso   1.00
C132   C     0.37026   0.66754   0.61070   0.01267  Uiso   1.00
O133   O     0.65829   0.75451   0.39530   0.01267  Uiso   1.00
O134   O     0.80840   0.01300   0.47220   0.01267  Uiso   1.00
O135   O     0.64408   0.91812   0.34650   0.01267  Uiso   1.00
O136   O     0.61873   0.84887   0.51260   0.01267  Uiso   1.00
O137   O     0.76778   0.53868   0.41303   0.01267  Uiso   1.00
O138   O     0.67630   0.47730   0.30240   0.01267  Uiso   1.00
O139   O     0.07121   0.40519   0.57230   0.01267  Uiso   1.00
O140   O     0.96105   0.38715   0.51420   0.01267  Uiso   1.00
O141   O     0.53192   0.96610   0.08041   0.01267  Uiso   1.00
O142   O     0.53413   0.86589   0.03021   0.01267  Uiso   1.00
O143   O     0.29353   0.62147   0.57240   0.01267  Uiso   1.00
O144   O     0.40060   0.67880   0.67170   0.01267  Uiso   1.00
O145   O     0.23647   0.58843   0.69066   0.01267  Uiso   1.00
O146   O     0.12145   0.57239   0.57464   0.01267  Uiso   1.00
H147   H     0.36437   0.76353   0.79949   0.01267  Uiso   1.00
H148   H     0.33896   0.81573   0.89376   0.01267  Uiso   1.00
In149  In    0.52326   0.18243   0.08163   0.01267  Uiso   1.00
H150   H     0.86290   0.77090   0.94480   0.01267  Uiso   1.00
H151   H     0.83090   0.72150   0.99310   0.01267  Uiso   1.00
H152   H     0.62340   0.58440   0.80190   0.01267  Uiso   1.00
H153   H     0.53100   0.61060   0.78470   0.01267  Uiso   1.00
H154   H     0.67800   0.80460   0.97100   0.01267  Uiso   1.00
H155   H     0.77750   0.78430   0.98430   0.01267  Uiso   1.00
H156   H     0.99620   0.71380   0.97690   0.01267  Uiso   1.00
H157   H     0.97890   0.75630   0.03290   0.01267  Uiso   1.00
H158   H     0.12350   0.94130   0.02990   0.01267  Uiso   1.00
H159   H     0.26720   0.03300   0.05240   0.01267  Uiso   1.00
H160   H     0.24340   0.83100   0.98780   0.01267  Uiso   1.00
H161   H     0.10220   0.74560   0.96470   0.01267  Uiso   1.00
H162   H     0.88590   0.71050   0.84750   0.01267  Uiso   1.00
H163   H     0.80960   0.61260   0.82460   0.01267  Uiso   1.00
H164   H     0.81960   0.61260   0.72520   0.01267  Uiso   1.00
H165   H     0.82520   0.57580   0.61740   0.01267  Uiso   1.00
H166   H     0.00950   0.58030   0.70700   0.01267  Uiso   1.00
H167   H     0.00690   0.62090   0.81610   0.01267  Uiso   1.00
H168   H     0.84730   0.56190   0.93010   0.01267  Uiso   1.00
H169   H     0.76700   0.55500   0.91740   0.01267  Uiso   1.00
H170   H     0.74030   0.46010   0.94070   0.01267  Uiso   1.00
H171   H     0.66200   0.34700   0.98140   0.01267  Uiso   1.00
H172   H     0.78340   0.53420   0.17140   0.01267  Uiso   1.00
H173   H     0.84870   0.63410   0.12730   0.01267  Uiso   1.00
C174   C     0.87855   0.67945   0.93340   0.01267  Uiso   1.00
C175   C     0.83280   0.71560   0.94690   0.01267  Uiso   1.00
C176   C     0.70576   0.68084   0.89290   0.01267  Uiso   1.00
C177   C     0.63630   0.63050   0.83640   0.01267  Uiso   1.00
C178   C     0.58037   0.64543   0.82690   0.01267  Uiso   1.00
C179   C     0.59605   0.70935   0.87760   0.01267  Uiso   1.00
C180   C     0.66644   0.76016   0.93550   0.01267  Uiso   1.00
C181   C     0.72579   0.74741   0.94410   0.01267  Uiso   1.00
C182   C     0.53355   0.71925   0.86430   0.01267  Uiso   1.00
C183   C     0.97260   0.74100   0.98400   0.01267  Uiso   1.00
C184   C     0.10350   0.83790   0.99660   0.01267  Uiso   1.00
C185   C     0.14910   0.91870   0.02110   0.01267  Uiso   1.00
C186   C     0.23520   0.97400   0.03510   0.01267  Uiso   1.00
C187   C     0.27060   0.94180   0.02350   0.01267  Uiso   1.00
C188   C     0.22000   0.85580   0.99700   0.01267  Uiso   1.00
C189   C     0.13620   0.80480   0.98350   0.01267  Uiso   1.00
C190   C     0.36271   0.99649   0.03840   0.01267  Uiso   1.00
C191   C     0.86907   0.66113   0.85700   0.01267  Uiso   1.00
C192   C     0.91431   0.62329   0.78060   0.01267  Uiso   1.00
C193   C     0.85969   0.60751   0.72240   0.01267  Uiso   1.00
C194   C     0.86203   0.58357   0.65740   0.01267  Uiso   1.00
C195   C     0.91529   0.57131   0.65060   0.01267  Uiso   1.00
C196   C     0.97025   0.58675   0.71010   0.01267  Uiso   1.00
C197   C     0.96953   0.61187   0.77570   0.01267  Uiso   1.00
C198   C     0.91574   0.54346   0.58180   0.01267  Uiso   1.00
C199   C     0.82848   0.59232   0.94440   0.01267  Uiso   1.00
C200   C     0.74820   0.47340   0.98810   0.01267  Uiso   1.00
C201   C     0.69980   0.40480   0.01240   0.01267  Uiso   1.00
C202   C     0.71297   0.42983   0.08030   0.01267  Uiso   1.00
C203   C     0.77160   0.51620   0.12320   0.01267  Uiso   1.00
C204   C     0.81260   0.57580   0.09800   0.01267  Uiso   1.00
C205   C     0.80089   0.55071   0.03390   0.01267  Uiso   1.00
C206   C     0.66754   0.37026   0.11070   0.01267  Uiso   1.00
O207   O     0.75451   0.65829   0.89530   0.01267  Uiso   1.00
O208   O     0.01300   0.80840   0.97220   0.01267  Uiso   1.00
O209   O     0.91812   0.64408   0.84650   0.01267  Uiso   1.00
O210   O     0.84887   0.61873   0.01260   0.01267  Uiso   1.00
O211   O     0.53868   0.76778   0.91303   0.01267  Uiso   1.00
O212   O     0.47730   0.67630   0.80240   0.01267  Uiso   1.00
O213   O     0.40519   0.07121   0.07230   0.01267  Uiso   1.00
O214   O     0.38715   0.96105   0.01420   0.01267  Uiso   1.00
O215   O     0.96610   0.53192   0.58041   0.01267  Uiso   1.00
O216   O     0.86589   0.53413   0.53021   0.01267  Uiso   1.00
O217   O     0.62147   0.29353   0.07240   0.01267  Uiso   1.00
O218   O     0.67880   0.40060   0.17170   0.01267  Uiso   1.00
O219   O     0.58843   0.23647   0.19066   0.01267  Uiso   1.00
O220   O     0.57239   0.12145   0.07464   0.01267  Uiso   1.00
H221   H     0.76353   0.36437   0.29949   0.01267  Uiso   1.00
H222   H     0.81573   0.33896   0.39376   0.01267  Uiso   1.00
In223  In    0.81757   0.47674   0.41837   0.01267  Uiso   1.00
H224   H     0.22910   0.13710   0.55520   0.01267  Uiso   1.00
H225   H     0.27850   0.16910   0.50690   0.01267  Uiso   1.00
H226   H     0.41560   0.37660   0.69810   0.01267  Uiso   1.00
H227   H     0.38940   0.46900   0.71530   0.01267  Uiso   1.00
H228   H     0.19540   0.32200   0.52900   0.01267  Uiso   1.00
H229   H     0.21570   0.22250   0.51570   0.01267  Uiso   1.00
H230   H     0.28620   0.00380   0.52310   0.01267  Uiso   1.00
H231   H     0.24370   0.02110   0.46710   0.01267  Uiso   1.00
H232   H     0.05870   0.87650   0.47010   0.01267  Uiso   1.00
H233   H     0.96700   0.73280   0.44760   0.01267  Uiso   1.00
H234   H     0.16900   0.75660   0.51220   0.01267  Uiso   1.00
H235   H     0.25440   0.89780   0.53530   0.01267  Uiso   1.00
H236   H     0.28950   0.11410   0.65250   0.01267  Uiso   1.00
H237   H     0.38740   0.19040   0.67540   0.01267  Uiso   1.00
H238   H     0.38740   0.18040   0.77480   0.01267  Uiso   1.00
H239   H     0.42420   0.17480   0.88260   0.01267  Uiso   1.00
H240   H     0.41970   0.99050   0.79300   0.01267  Uiso   1.00
H241   H     0.37910   0.99310   0.68390   0.01267  Uiso   1.00
H242   H     0.43810   0.15270   0.56990   0.01267  Uiso   1.00
H243   H     0.44500   0.23300   0.58260   0.01267  Uiso   1.00
H244   H     0.53990   0.25970   0.55930   0.01267  Uiso   1.00
H245   H     0.65300   0.33800   0.51860   0.01267  Uiso   1.00
H246   H     0.46580   0.21660   0.32860   0.01267  Uiso   1.00
H247   H     0.36590   0.15130   0.37270   0.01267  Uiso   1.00
C248   C     0.32055   0.12145   0.56660   0.01267  Uiso   1.00
C249   C     0.28440   0.16720   0.55310   0.01267  Uiso   1.00
C250   C     0.31916   0.29424   0.60710   0.01267  Uiso   1.00
C251   C     0.36950   0.36370   0.66360   0.01267  Uiso   1.00
C252   C     0.35457   0.41963   0.67310   0.01267  Uiso   1.00
C253   C     0.29065   0.40395   0.62240   0.01267  Uiso   1.00
C254   C     0.23984   0.33356   0.56450   0.01267  Uiso   1.00
C255   C     0.25259   0.27421   0.55590   0.01267  Uiso   1.00
C256   C     0.28075   0.46645   0.63570   0.01267  Uiso   1.00
C257   C     0.25900   0.02740   0.51600   0.01267  Uiso   1.00
C258   C     0.16210   0.89650   0.50340   0.01267  Uiso   1.00
C259   C     0.08130   0.85090   0.47890   0.01267  Uiso   1.00
C260   C     0.02600   0.76480   0.46490   0.01267  Uiso   1.00
C261   C     0.05820   0.72940   0.47650   0.01267  Uiso   1.00
C262   C     0.14420   0.78000   0.50300   0.01267  Uiso   1.00
C263   C     0.19520   0.86380   0.51650   0.01267  Uiso   1.00
C264   C     0.00351   0.63729   0.46160   0.01267  Uiso   1.00
C265   C     0.33887   0.13093   0.64300   0.01267  Uiso   1.00
C266   C     0.37671   0.08569   0.71940   0.01267  Uiso   1.00
C267   C     0.39249   0.14031   0.77760   0.01267  Uiso   1.00
C268   C     0.41643   0.13797   0.84260   0.01267  Uiso   1.00
C269   C     0.42869   0.08471   0.84940   0.01267  Uiso   1.00
C270   C     0.41325   0.02975   0.78990   0.01267  Uiso   1.00
C271   C     0.38813   0.03047   0.72430   0.01267  Uiso   1.00
C272   C     0.45654   0.08426   0.91820   0.01267  Uiso   1.00
C273   C     0.40768   0.17152   0.55560   0.01267  Uiso   1.00
C274   C     0.52660   0.25180   0.51190   0.01267  Uiso   1.00
C275   C     0.59520   0.30020   0.48760   0.01267  Uiso   1.00
C276   C     0.57017   0.28703   0.41970   0.01267  Uiso   1.00
C277   C     0.48380   0.22840   0.37680   0.01267  Uiso   1.00
C278   C     0.42420   0.18740   0.40200   0.01267  Uiso   1.00
C279   C     0.44929   0.19911   0.46610   0.01267  Uiso   1.00
C280   C     0.62974   0.33246   0.38930   0.01267  Uiso   1.00
O281   O     0.34171   0.24549   0.60470   0.01267  Uiso   1.00
O282   O     0.19160   0.98700   0.52780   0.01267  Uiso   1.00
O283   O     0.35592   0.08188   0.65350   0.01267  Uiso   1.00
O284   O     0.38127   0.15113   0.48740   0.01267  Uiso   1.00
O285   O     0.23222   0.46132   0.58697   0.01267  Uiso   1.00
O286   O     0.32370   0.52270   0.69760   0.01267  Uiso   1.00
O287   O     0.92879   0.59481   0.42770   0.01267  Uiso   1.00
O288   O     0.03895   0.61285   0.48580   0.01267  Uiso   1.00
O289   O     0.46808   0.03390   0.91959   0.01267  Uiso   1.00
O290   O     0.46587   0.13411   0.96979   0.01267  Uiso   1.00
O291   O     0.70647   0.37853   0.42760   0.01267  Uiso   1.00
O292   O     0.59940   0.32120   0.32830   0.01267  Uiso   1.00
O293   O     0.76353   0.41157   0.30934   0.01267  Uiso   1.00
O294   O     0.87855   0.42761   0.42536   0.01267  Uiso   1.00
H295   H     0.63563   0.23647   0.20051   0.01267  Uiso   1.00
H296   H     0.66104   0.18427   0.10624   0.01267  Uiso   1.00
In297  In    0.35871   0.64129   0.75000   0.01267  Uiso   1.00
In298  In    0.64129   0.35871   0.25000   0.01267  Uiso   1.00
In299  In    0.50000   0.00000   0.00000   0.01267  Uiso   1.00
In300  In    0.00000   0.50000   0.50000   0.01267  Uiso   1.00
