data_OXAZIX_clean
_audit_creation_date              2014-07-02
_audit_creation_method            'Materials Studio'
_symmetry_space_group_name_H-M    'P1'
_symmetry_Int_Tables_number       1
_symmetry_cell_setting            triclinic
loop_
_symmetry_equiv_pos_as_xyz
  x,y,z
_cell_length_a                    8.3090
_cell_length_b                    9.3500
_cell_length_c                    16.1580
_cell_angle_alpha                 90.0000
_cell_angle_beta                  90.0000
_cell_angle_gamma                 94.0780
loop_
_atom_site_label
_atom_site_type_symbol
_atom_site_fract_x
_atom_site_fract_y
_atom_site_fract_z
_atom_site_U_iso_or_equiv
_atom_site_adp_type
_atom_site_occupancy
Pr1    Pr    0.46810   0.39198   0.60653   0.01267  Uiso   1.00
Pr2    Pr    0.03190   0.60802   0.10653   0.01267  Uiso   1.00
Pr3    Pr    0.53190   0.60802   0.39347   0.01267  Uiso   1.00
Pr4    Pr    0.96810   0.39198   0.89347   0.01267  Uiso   1.00
H1     H     0.65400   0.96620   0.71550   0.01267  Uiso   1.00
H2     H     0.72350   0.76960   0.78230   0.01267  Uiso   1.00
H3     H     0.89470   0.01850   0.96450   0.01267  Uiso   1.00
H4     H     0.22130   0.40630   0.45370   0.01267  Uiso   1.00
H5     H     0.34470   0.51940   0.44550   0.01267  Uiso   1.00
H6     H     0.84600   0.03380   0.21550   0.01267  Uiso   1.00
H7     H     0.77650   0.23040   0.28230   0.01267  Uiso   1.00
H8     H     0.60530   0.98150   0.46450   0.01267  Uiso   1.00
H9     H     0.27870   0.59370   0.95370   0.01267  Uiso   1.00
H10    H     0.15530   0.48060   0.94550   0.01267  Uiso   1.00
H11    H     0.34600   0.03380   0.28450   0.01267  Uiso   1.00
H12    H     0.27650   0.23040   0.21770   0.01267  Uiso   1.00
H13    H     0.10530   0.98150   0.03550   0.01267  Uiso   1.00
H14    H     0.77870   0.59370   0.54630   0.01267  Uiso   1.00
H15    H     0.65530   0.48060   0.55450   0.01267  Uiso   1.00
H16    H     0.15400   0.96620   0.78450   0.01267  Uiso   1.00
H17    H     0.22350   0.76960   0.71770   0.01267  Uiso   1.00
H18    H     0.39470   0.01850   0.53550   0.01267  Uiso   1.00
H19    H     0.72130   0.40630   0.04630   0.01267  Uiso   1.00
H20    H     0.84470   0.51940   0.05450   0.01267  Uiso   1.00
C1     C     0.70700   0.24500   0.75400   0.01267  Uiso   1.00
C2     C     0.74200   0.10700   0.79660   0.01267  Uiso   1.00
C3     C     0.70700   0.97600   0.76600   0.01267  Uiso   1.00
C4     C     0.74400   0.86000   0.80600   0.01267  Uiso   1.00
C5     C     0.81500   0.87400   0.88350   0.01267  Uiso   1.00
C6     C     0.84800   0.00800   0.91240   0.01267  Uiso   1.00
C7     C     0.87100   0.74400   0.92950   0.01267  Uiso   1.00
C8     C     0.79300   0.75500   0.25400   0.01267  Uiso   1.00
C9     C     0.75800   0.89300   0.29660   0.01267  Uiso   1.00
C10    C     0.79300   0.02400   0.26600   0.01267  Uiso   1.00
C11    C     0.75600   0.14000   0.30600   0.01267  Uiso   1.00
C12    C     0.68500   0.12600   0.38350   0.01267  Uiso   1.00
C13    C     0.65200   0.99200   0.41240   0.01267  Uiso   1.00
C14    C     0.62900   0.25600   0.42950   0.01267  Uiso   1.00
C15    C     0.29300   0.75500   0.24600   0.01267  Uiso   1.00
C16    C     0.25800   0.89300   0.20340   0.01267  Uiso   1.00
C17    C     0.29300   0.02400   0.23400   0.01267  Uiso   1.00
C18    C     0.25600   0.14000   0.19400   0.01267  Uiso   1.00
C19    C     0.18500   0.12600   0.11650   0.01267  Uiso   1.00
C20    C     0.15200   0.99200   0.08760   0.01267  Uiso   1.00
C21    C     0.12900   0.25600   0.07050   0.01267  Uiso   1.00
C22    C     0.20700   0.24500   0.74600   0.01267  Uiso   1.00
C23    C     0.24200   0.10700   0.70340   0.01267  Uiso   1.00
C24    C     0.20700   0.97600   0.73400   0.01267  Uiso   1.00
C25    C     0.24400   0.86000   0.69400   0.01267  Uiso   1.00
C26    C     0.31500   0.87400   0.61650   0.01267  Uiso   1.00
C27    C     0.34800   0.00800   0.58760   0.01267  Uiso   1.00
C28    C     0.37100   0.74400   0.57050   0.01267  Uiso   1.00
N1     N     0.81600   0.12700   0.87020   0.01267  Uiso   1.00
N2     N     0.68400   0.87300   0.37020   0.01267  Uiso   1.00
N3     N     0.18400   0.87300   0.12980   0.01267  Uiso   1.00
N4     N     0.31600   0.12700   0.62980   0.01267  Uiso   1.00
O1     O     0.91900   0.76100   0.99880   0.01267  Uiso   1.00
O2     O     0.85500   0.62560   0.89140   0.01267  Uiso   1.00
O3     O     0.62200   0.23600   0.69250   0.01267  Uiso   1.00
O4     O     0.76700   0.35700   0.78900   0.01267  Uiso   1.00
O5     O     0.32400   0.44100   0.47090   0.01267  Uiso   1.00
O6     O     0.58100   0.23900   0.49880   0.01267  Uiso   1.00
O7     O     0.64500   0.37440   0.39140   0.01267  Uiso   1.00
O8     O     0.87800   0.76400   0.19250   0.01267  Uiso   1.00
O9     O     0.73300   0.64300   0.28900   0.01267  Uiso   1.00
O10    O     0.17600   0.55900   0.97090   0.01267  Uiso   1.00
O11    O     0.08100   0.23900   0.00120   0.01267  Uiso   1.00
O12    O     0.14500   0.37440   0.10860   0.01267  Uiso   1.00
O13    O     0.37800   0.76400   0.30750   0.01267  Uiso   1.00
O14    O     0.23300   0.64300   0.21100   0.01267  Uiso   1.00
O15    O     0.67600   0.55900   0.52910   0.01267  Uiso   1.00
O16    O     0.41900   0.76100   0.50120   0.01267  Uiso   1.00
O17    O     0.35500   0.62560   0.60860   0.01267  Uiso   1.00
O18    O     0.12200   0.23600   0.80750   0.01267  Uiso   1.00
O19    O     0.26700   0.35700   0.71100   0.01267  Uiso   1.00
O20    O     0.82400   0.44100   0.02910   0.01267  Uiso   1.00
