data_OXITOF_clean
_audit_creation_date              2014-07-02
_audit_creation_method            'Materials Studio'
_symmetry_space_group_name_H-M    'P1'
_symmetry_Int_Tables_number       1
_symmetry_cell_setting            triclinic
loop_
_symmetry_equiv_pos_as_xyz
  x,y,z
_cell_length_a                    7.3310
_cell_length_b                    11.9010
_cell_length_c                    15.8380
_cell_angle_alpha                 103.5000
_cell_angle_beta                  100.4600
_cell_angle_gamma                 104.7500
loop_
_atom_site_label
_atom_site_type_symbol
_atom_site_fract_x
_atom_site_fract_y
_atom_site_fract_z
_atom_site_U_iso_or_equiv
_atom_site_adp_type
_atom_site_occupancy
Co1    Co    0.02743   0.95281   0.33490   0.01267  Uiso   1.00
Co2    Co    0.97257   0.04719   0.66510   0.01267  Uiso   1.00
Co3    Co    0.50000  -0.00000   0.50000   0.01267  Uiso   1.00
Co4    Co    0.00000   0.00000   0.00000   0.01267  Uiso   1.00
H1     H     0.79280   0.25640   0.42290   0.01267  Uiso   1.00
H2     H     0.03870   0.58380   0.35250   0.01267  Uiso   1.00
H3     H     0.58950   0.30950   0.14370   0.01267  Uiso   1.00
H4     H     0.69510   0.61700   0.38650   0.01267  Uiso   1.00
H5     H     0.91450   0.39600   0.22300   0.01267  Uiso   1.00
H6     H     0.48160   0.44250   0.39580   0.01267  Uiso   1.00
H7     H     0.20720   0.74360   0.57710   0.01267  Uiso   1.00
H8     H     0.96130   0.41620   0.64750   0.01267  Uiso   1.00
H9     H     0.41050   0.69050   0.85630   0.01267  Uiso   1.00
H10    H     0.30490   0.38300   0.61350   0.01267  Uiso   1.00
H11    H     0.08550   0.60400   0.77700   0.01267  Uiso   1.00
H12    H     0.51840   0.55750   0.60420   0.01267  Uiso   1.00
C1     C     0.88980   0.33580   0.33260   0.01267  Uiso   1.00
C2     C     0.23540   0.49420   0.37440   0.01267  Uiso   1.00
C3     C     0.75200   0.26660   0.36690   0.01267  Uiso   1.00
C4     C     0.17080   0.59150   0.36120   0.01267  Uiso   1.00
C5     C     0.55550   0.21250   0.31950   0.01267  Uiso   1.00
C6     C     0.30130   0.70020   0.36080   0.01267  Uiso   1.00
C7     C     0.49300   0.22980   0.23500   0.01267  Uiso   1.00
C8     C     0.50130   0.71080   0.36990   0.01267  Uiso   1.00
C9     C     0.63030   0.29880   0.19960   0.01267  Uiso   1.00
C10    C     0.56460   0.61150   0.38150   0.01267  Uiso   1.00
C11    C     0.82590   0.35110   0.24730   0.01267  Uiso   1.00
C12    C     0.43590   0.50550   0.38570   0.01267  Uiso   1.00
C13    C     0.41960   0.13280   0.35860   0.01267  Uiso   1.00
C14    C     0.21470   0.80000   0.34770   0.01267  Uiso   1.00
C15    C     0.28520   0.17890   0.17830   0.01267  Uiso   1.00
C16    C     0.65010   0.82620   0.36990   0.01267  Uiso   1.00
C17    C     0.09990   0.37910   0.38190   0.01267  Uiso   1.00
C18    C     0.11020   0.66420   0.66740   0.01267  Uiso   1.00
C19    C     0.76460   0.50580   0.62560   0.01267  Uiso   1.00
C20    C     0.24800   0.73340   0.63310   0.01267  Uiso   1.00
C21    C     0.82920   0.40850   0.63880   0.01267  Uiso   1.00
C22    C     0.44450   0.78750   0.68050   0.01267  Uiso   1.00
C23    C     0.69870   0.29980   0.63920   0.01267  Uiso   1.00
C24    C     0.50700   0.77020   0.76500   0.01267  Uiso   1.00
C25    C     0.49870   0.28920   0.63010   0.01267  Uiso   1.00
C26    C     0.36970   0.70120   0.80040   0.01267  Uiso   1.00
C27    C     0.43540   0.38850   0.61850   0.01267  Uiso   1.00
C28    C     0.17410   0.64890   0.75270   0.01267  Uiso   1.00
C29    C     0.56410   0.49450   0.61430   0.01267  Uiso   1.00
C30    C     0.58040   0.86720   0.64140   0.01267  Uiso   1.00
C31    C     0.78530   0.20000   0.65230   0.01267  Uiso   1.00
C32    C     0.71480   0.82110   0.82170   0.01267  Uiso   1.00
C33    C     0.34990   0.17380   0.63010   0.01267  Uiso   1.00
C34    C     0.90010   0.62090   0.61810   0.01267  Uiso   1.00
O1     O     0.48310   0.13420   0.43900   0.01267  Uiso   1.00
O2     O     0.12190   0.79360   0.27060   0.01267  Uiso   1.00
O3     O     0.25500   0.06780   0.30620   0.01267  Uiso   1.00
O4     O     0.22020   0.88570   0.41670   0.01267  Uiso   1.00
O5     O     0.24870   0.08450   0.11020   0.01267  Uiso   1.00
O6     O     0.62370   0.92870   0.39870   0.01267  Uiso   1.00
O7     O     0.16770   0.23530   0.19590   0.01267  Uiso   1.00
O8     O     0.79190   0.81230   0.33770   0.01267  Uiso   1.00
O9     O     0.16500   0.32240   0.42950   0.01267  Uiso   1.00
O10    O     0.51690   0.86580   0.56100   0.01267  Uiso   1.00
O11    O     0.87810   0.20640   0.72940   0.01267  Uiso   1.00
O12    O     0.74500   0.93220   0.69380   0.01267  Uiso   1.00
O13    O     0.77980   0.11430   0.58330   0.01267  Uiso   1.00
O14    O     0.75130   0.91550   0.88980   0.01267  Uiso   1.00
O15    O     0.37630   0.07130   0.60130   0.01267  Uiso   1.00
O16    O     0.83230   0.76470   0.80410   0.01267  Uiso   1.00
O17    O     0.20810   0.18770   0.66230   0.01267  Uiso   1.00
O18    O     0.83500   0.67760   0.57050   0.01267  Uiso   1.00
