data_image0
_cell_length_a       21.8891
_cell_length_b       9.107
_cell_length_c       32.038
_cell_angle_alpha    90
_cell_angle_beta     124.121
_cell_angle_gamma    90

_symmetry_space_group_name_H-M    "P 1"
_symmetry_int_tables_number       1

loop_
  _symmetry_equiv_pos_as_xyz
  'x, y, z'

loop_
  _atom_site_label
  _atom_site_occupancy
  _atom_site_fract_x
  _atom_site_fract_y
  _atom_site_fract_z
  _atom_site_thermal_displace_type
  _atom_site_B_iso_or_equiv
  _atom_site_type_symbol
  C1       1.0000 0.30740  0.72540  0.34260  Biso   1.000  C
  C2       1.0000 0.57130  0.90770  0.41640  Biso   1.000  C
  O1       1.0000 0.89570  0.91830  0.45130  Biso   1.000  O
  Tb1      1.0000 0.98233  0.79816  0.44478  Biso   1.000  Tb
  O2       1.0000 0.01300  0.05030  0.08260  Biso   1.000  O
  C3       1.0000 0.29570  0.20940  0.39620  Biso   1.000  C
  H1       1.0000 0.30670  0.30990  0.39560  Biso   1.000  H
  O3       1.0000 0.05060  0.56580  0.46250  Biso   1.000  O
  C4       1.0000 0.20170  0.28410  0.41490  Biso   1.000  C
  O4       1.0000 0.09570  0.89460  0.13950  Biso   1.000  O
  C5       1.0000 0.07500  0.28400  0.15530  Biso   1.000  C
  H2       1.0000 0.02950  0.30490  0.12440  Biso   1.000  H
  N1       1.0000 0.35020  0.84050  0.37530  Biso   1.000  N
  O5       1.0000 0.90380  0.12200  0.49310  Biso   1.000  O
  O6       1.0000 0.04730  0.71820  0.40710  Biso   1.000  O
  C6       1.0000 0.06760  0.02290  0.12670  Biso   1.000  C
  C7       1.0000 0.79190  0.98640  0.45340  Biso   1.000  C
  C8       1.0000 0.64710  0.93040  0.42710  Biso   1.000  C
  C9       1.0000 0.11860  0.49120  0.42790  Biso   1.000  C
  C10      1.0000 0.18590  0.26580  0.44980  Biso   1.000  C
  H3       1.0000 0.20410  0.18100  0.47070  Biso   1.000  H
  C11      1.0000 0.31720  0.95330  0.38770  Biso   1.000  C
  C12      1.0000 0.10290  0.14440  0.16530  Biso   1.000  C
  C13      1.0000 0.48150  0.89840  0.43940  Biso   1.000  C
  H4       1.0000 0.47160  0.90740  0.46460  Biso   1.000  H
  C14      1.0000 0.22310  0.49210  0.27490  Biso   1.000  C
  C15      1.0000 0.26620  0.91500  0.39890  Biso   1.000  C
  H5       1.0000 0.25650  0.81440  0.40070  Biso   1.000  H
  C16      1.0000 0.06970  0.60010  0.43180  Biso   1.000  C
  C17      1.0000 0.33270  0.10040  0.38740  Biso   1.000  C
  H6       1.0000 0.36880  0.12820  0.38120  Biso   1.000  H
  C18      1.0000 0.20220  0.23220  0.24900  Biso   1.000  C
  H7       1.0000 0.24460  0.20850  0.28130  Biso   1.000  H
  C19      1.0000 0.69220  0.04860  0.46050  Biso   1.000  C
  H8       1.0000 0.67290  0.10980  0.47450  Biso   1.000  H
  C20      1.0000 0.42450  0.85940  0.38960  Biso   1.000  C
  C21      1.0000 0.17840  0.37320  0.23850  Biso   1.000  C
  C22      1.0000 0.22890  0.02500  0.40750  Biso   1.000  C
  H9       1.0000 0.19350  0.99810  0.41450  Biso   1.000  H
  C23      1.0000 0.11400  0.39740  0.19110  Biso   1.000  C
  H10      1.0000 0.09520  0.49470  0.18230  Biso   1.000  H
  C24      1.0000 0.29680  0.47730  0.31290  Biso   1.000  C
  H11      1.0000 0.32020  0.38560  0.31690  Biso   1.000  H
  C25      1.0000 0.24380  0.17220  0.40580  Biso   1.000  C
  C26      1.0000 0.86840  0.01060  0.46580  Biso   1.000  C
  C27      1.0000 0.14380  0.36710  0.45630  Biso   1.000  C
  H12      1.0000 0.13280  0.34900  0.48060  Biso   1.000  H
  C28      1.0000 0.67720  0.84150  0.40840  Biso   1.000  C
  H13      1.0000 0.64980  0.76070  0.38730  Biso   1.000  H
  C29      1.0000 0.74860  0.87030  0.42050  Biso   1.000  C
  H14      1.0000 0.76810  0.81060  0.40630  Biso   1.000  H
  C30      1.0000 0.13670  0.51350  0.39450  Biso   1.000  C
  H15      1.0000 0.12050  0.60180  0.37550  Biso   1.000  H
  C31      1.0000 0.33750  0.58940  0.34510  Biso   1.000  C
  H16      1.0000 0.38840  0.57330  0.37010  Biso   1.000  H
  C32      1.0000 0.76430  0.07560  0.47280  Biso   1.000  C
  H17      1.0000 0.79280  0.15470  0.49440  Biso   1.000  H
  C33      1.0000 0.19290  0.62980  0.27300  Biso   1.000  C
  H18      1.0000 0.14190  0.64470  0.24810  Biso   1.000  H
  C34      1.0000 0.51360  0.86500  0.36640  Biso   1.000  C
  H19      1.0000 0.52390  0.85210  0.34150  Biso   1.000  H
  C35      1.0000 0.17790  0.41420  0.38600  Biso   1.000  C
  H20      1.0000 0.18920  0.43390  0.36200  Biso   1.000  H
  C36      1.0000 0.23290  0.74660  0.30540  Biso   1.000  C
  H21      1.0000 0.20980  0.83810  0.30220  Biso   1.000  H
  C37      1.0000 0.16530  0.11980  0.21290  Biso   1.000  C
  H22      1.0000 0.18420  0.02280  0.22170  Biso   1.000  H
  C38      1.0000 0.44060  0.84180  0.35380  Biso   1.000  C
  H23      1.0000 0.40260  0.81400  0.32040  Biso   1.000  H
  C39      1.0000 0.55350  0.92400  0.45150  Biso   1.000  C
  H24      1.0000 0.59100  0.95340  0.48490  Biso   1.000  H
  C40      1.0000 0.69260  0.72540  0.15740  Biso   1.000  C
  C41      1.0000 0.42870  0.90770  0.08360  Biso   1.000  C
  O7       1.0000 0.10430  0.91830  0.04870  Biso   1.000  O
  Tb2      1.0000 0.01767  0.79816  0.05522  Biso   1.000  Tb
  O8       1.0000 0.98700  0.05030  0.41740  Biso   1.000  O
  C42      1.0000 0.70430  0.20940  0.10380  Biso   1.000  C
  H25      1.0000 0.69330  0.30990  0.10440  Biso   1.000  H
  O9       1.0000 0.94940  0.56580  0.03750  Biso   1.000  O
  C43      1.0000 0.79830  0.28410  0.08510  Biso   1.000  C
  O10      1.0000 0.90430  0.89460  0.36050  Biso   1.000  O
  C44      1.0000 0.92500  0.28400  0.34470  Biso   1.000  C
  H26      1.0000 0.97050  0.30490  0.37560  Biso   1.000  H
  N2       1.0000 0.64980  0.84050  0.12470  Biso   1.000  N
  O11      1.0000 0.09620  0.12200  0.00690  Biso   1.000  O
  O12      1.0000 0.95270  0.71820  0.09290  Biso   1.000  O
  C45      1.0000 0.93240  0.02290  0.37330  Biso   1.000  C
  C46      1.0000 0.20810  0.98640  0.04660  Biso   1.000  C
  C47      1.0000 0.35290  0.93040  0.07290  Biso   1.000  C
  C48      1.0000 0.88140  0.49120  0.07210  Biso   1.000  C
  C49      1.0000 0.81410  0.26580  0.05020  Biso   1.000  C
  H27      1.0000 0.79590  0.18100  0.02930  Biso   1.000  H
  C50      1.0000 0.68280  0.95330  0.11230  Biso   1.000  C
  C51      1.0000 0.89710  0.14440  0.33470  Biso   1.000  C
  C52      1.0000 0.51850  0.89840  0.06060  Biso   1.000  C
  H28      1.0000 0.52840  0.90740  0.03540  Biso   1.000  H
  C53      1.0000 0.77690  0.49210  0.22510  Biso   1.000  C
  C54      1.0000 0.73380  0.91500  0.10110  Biso   1.000  C
  H29      1.0000 0.74350  0.81440  0.09930  Biso   1.000  H
  C55      1.0000 0.93030  0.60010  0.06820  Biso   1.000  C
  C56      1.0000 0.66730  0.10040  0.11260  Biso   1.000  C
  H30      1.0000 0.63120  0.12820  0.11880  Biso   1.000  H
  C57      1.0000 0.79780  0.23220  0.25100  Biso   1.000  C
  H31      1.0000 0.75540  0.20850  0.21870  Biso   1.000  H
  C58      1.0000 0.30780  0.04860  0.03950  Biso   1.000  C
  H32      1.0000 0.32710  0.10980  0.02550  Biso   1.000  H
  C59      1.0000 0.57550  0.85940  0.11040  Biso   1.000  C
  C60      1.0000 0.82160  0.37320  0.26150  Biso   1.000  C
  C61      1.0000 0.77110  0.02500  0.09250  Biso   1.000  C
  H33      1.0000 0.80650  0.99810  0.08550  Biso   1.000  H
  C62      1.0000 0.88600  0.39740  0.30890  Biso   1.000  C
  H34      1.0000 0.90480  0.49470  0.31770  Biso   1.000  H
  C63      1.0000 0.70320  0.47730  0.18710  Biso   1.000  C
  H35      1.0000 0.67980  0.38560  0.18310  Biso   1.000  H
  C64      1.0000 0.75620  0.17220  0.09420  Biso   1.000  C
  C65      1.0000 0.13160  0.01060  0.03420  Biso   1.000  C
  C66      1.0000 0.85620  0.36710  0.04370  Biso   1.000  C
  H36      1.0000 0.86720  0.34900  0.01940  Biso   1.000  H
  C67      1.0000 0.32280  0.84150  0.09160  Biso   1.000  C
  H37      1.0000 0.35020  0.76070  0.11270  Biso   1.000  H
  C68      1.0000 0.25140  0.87030  0.07950  Biso   1.000  C
  H38      1.0000 0.23190  0.81060  0.09370  Biso   1.000  H
  C69      1.0000 0.86330  0.51350  0.10550  Biso   1.000  C
  H39      1.0000 0.87950  0.60180  0.12450  Biso   1.000  H
  C70      1.0000 0.66250  0.58940  0.15490  Biso   1.000  C
  H40      1.0000 0.61160  0.57330  0.12990  Biso   1.000  H
  C71      1.0000 0.23570  0.07560  0.02720  Biso   1.000  C
  H41      1.0000 0.20720  0.15470  0.00560  Biso   1.000  H
  C72      1.0000 0.80710  0.62980  0.22700  Biso   1.000  C
  H42      1.0000 0.85810  0.64470  0.25190  Biso   1.000  H
  C73      1.0000 0.48640  0.86500  0.13360  Biso   1.000  C
  H43      1.0000 0.47610  0.85210  0.15850  Biso   1.000  H
  C74      1.0000 0.82210  0.41420  0.11400  Biso   1.000  C
  H44      1.0000 0.81080  0.43390  0.13800  Biso   1.000  H
  C75      1.0000 0.76710  0.74660  0.19460  Biso   1.000  C
  H45      1.0000 0.79020  0.83810  0.19780  Biso   1.000  H
  C76      1.0000 0.83470  0.11980  0.28710  Biso   1.000  C
  H46      1.0000 0.81580  0.02280  0.27830  Biso   1.000  H
  C77      1.0000 0.55940  0.84180  0.14620  Biso   1.000  C
  H47      1.0000 0.59740  0.81400  0.17960  Biso   1.000  H
  C78      1.0000 0.44650  0.92400  0.04850  Biso   1.000  C
  H48      1.0000 0.40900  0.95340  0.01510  Biso   1.000  H
  C79      1.0000 0.69260  0.27460  0.65740  Biso   1.000  C
  C80      1.0000 0.42870  0.09230  0.58360  Biso   1.000  C
  O13      1.0000 0.10430  0.08170  0.54870  Biso   1.000  O
  Tb3      1.0000 0.01767  0.20184  0.55522  Biso   1.000  Tb
  O14      1.0000 0.98700  0.94970  0.91740  Biso   1.000  O
  C81      1.0000 0.70430  0.79060  0.60380  Biso   1.000  C
  H49      1.0000 0.69330  0.69010  0.60440  Biso   1.000  H
  O15      1.0000 0.94940  0.43420  0.53750  Biso   1.000  O
  C82      1.0000 0.79830  0.71590  0.58510  Biso   1.000  C
  O16      1.0000 0.90430  0.10540  0.86050  Biso   1.000  O
  C83      1.0000 0.92500  0.71600  0.84470  Biso   1.000  C
  H50      1.0000 0.97050  0.69510  0.87560  Biso   1.000  H
  N3       1.0000 0.64980  0.15950  0.62470  Biso   1.000  N
  O17      1.0000 0.09620  0.87800  0.50690  Biso   1.000  O
  O18      1.0000 0.95270  0.28180  0.59290  Biso   1.000  O
  C84      1.0000 0.93240  0.97710  0.87330  Biso   1.000  C
  C85      1.0000 0.20810  0.01360  0.54660  Biso   1.000  C
  C86      1.0000 0.35290  0.06960  0.57290  Biso   1.000  C
  C87      1.0000 0.88140  0.50880  0.57210  Biso   1.000  C
  C88      1.0000 0.81410  0.73420  0.55020  Biso   1.000  C
  H51      1.0000 0.79590  0.81900  0.52930  Biso   1.000  H
  C89      1.0000 0.68280  0.04670  0.61230  Biso   1.000  C
  C90      1.0000 0.89710  0.85560  0.83470  Biso   1.000  C
  C91      1.0000 0.51850  0.10160  0.56060  Biso   1.000  C
  H52      1.0000 0.52840  0.09260  0.53540  Biso   1.000  H
  C92      1.0000 0.77690  0.50790  0.72510  Biso   1.000  C
  C93      1.0000 0.73380  0.08500  0.60110  Biso   1.000  C
  H53      1.0000 0.74350  0.18560  0.59930  Biso   1.000  H
  C94      1.0000 0.93030  0.39990  0.56820  Biso   1.000  C
  C95      1.0000 0.66730  0.89960  0.61260  Biso   1.000  C
  H54      1.0000 0.63120  0.87180  0.61880  Biso   1.000  H
  C96      1.0000 0.79780  0.76780  0.75100  Biso   1.000  C
  H55      1.0000 0.75540  0.79150  0.71870  Biso   1.000  H
  C97      1.0000 0.30780  0.95140  0.53950  Biso   1.000  C
  H56      1.0000 0.32710  0.89020  0.52550  Biso   1.000  H
  C98      1.0000 0.57550  0.14060  0.61040  Biso   1.000  C
  C99      1.0000 0.82160  0.62680  0.76150  Biso   1.000  C
  C100     1.0000 0.77110  0.97500  0.59250  Biso   1.000  C
  H57      1.0000 0.80650  0.00190  0.58550  Biso   1.000  H
  C101     1.0000 0.88600  0.60260  0.80890  Biso   1.000  C
  H58      1.0000 0.90480  0.50530  0.81770  Biso   1.000  H
  C102     1.0000 0.70320  0.52270  0.68710  Biso   1.000  C
  H59      1.0000 0.67980  0.61440  0.68310  Biso   1.000  H
  C103     1.0000 0.75620  0.82780  0.59420  Biso   1.000  C
  C104     1.0000 0.13160  0.98940  0.53420  Biso   1.000  C
  C105     1.0000 0.85620  0.63290  0.54370  Biso   1.000  C
  H60      1.0000 0.86720  0.65100  0.51940  Biso   1.000  H
  C106     1.0000 0.32280  0.15850  0.59160  Biso   1.000  C
  H61      1.0000 0.35020  0.23930  0.61270  Biso   1.000  H
  C107     1.0000 0.25140  0.12970  0.57950  Biso   1.000  C
  H62      1.0000 0.23190  0.18940  0.59370  Biso   1.000  H
  C108     1.0000 0.86330  0.48650  0.60550  Biso   1.000  C
  H63      1.0000 0.87950  0.39820  0.62450  Biso   1.000  H
  C109     1.0000 0.66250  0.41060  0.65490  Biso   1.000  C
  H64      1.0000 0.61160  0.42670  0.62990  Biso   1.000  H
  C110     1.0000 0.23570  0.92440  0.52720  Biso   1.000  C
  H65      1.0000 0.20720  0.84530  0.50560  Biso   1.000  H
  C111     1.0000 0.80710  0.37020  0.72700  Biso   1.000  C
  H66      1.0000 0.85810  0.35530  0.75190  Biso   1.000  H
  C112     1.0000 0.48640  0.13500  0.63360  Biso   1.000  C
  H67      1.0000 0.47610  0.14790  0.65850  Biso   1.000  H
  C113     1.0000 0.82210  0.58580  0.61400  Biso   1.000  C
  H68      1.0000 0.81080  0.56610  0.63800  Biso   1.000  H
  C114     1.0000 0.76710  0.25340  0.69460  Biso   1.000  C
  H69      1.0000 0.79020  0.16190  0.69780  Biso   1.000  H
  C115     1.0000 0.83470  0.88020  0.78710  Biso   1.000  C
  H70      1.0000 0.81580  0.97720  0.77830  Biso   1.000  H
  C116     1.0000 0.55940  0.15820  0.64620  Biso   1.000  C
  H71      1.0000 0.59740  0.18600  0.67960  Biso   1.000  H
  C117     1.0000 0.44650  0.07600  0.54850  Biso   1.000  C
  H72      1.0000 0.40900  0.04660  0.51510  Biso   1.000  H
  C118     1.0000 0.30740  0.27460  0.84260  Biso   1.000  C
  C119     1.0000 0.57130  0.09230  0.91640  Biso   1.000  C
  O19      1.0000 0.89570  0.08170  0.95130  Biso   1.000  O
  Tb4      1.0000 0.98233  0.20184  0.94478  Biso   1.000  Tb
  O20      1.0000 0.01300  0.94970  0.58260  Biso   1.000  O
  C120     1.0000 0.29570  0.79060  0.89620  Biso   1.000  C
  H73      1.0000 0.30670  0.69010  0.89560  Biso   1.000  H
  O21      1.0000 0.05060  0.43420  0.96250  Biso   1.000  O
  C121     1.0000 0.20170  0.71590  0.91490  Biso   1.000  C
  O22      1.0000 0.09570  0.10540  0.63950  Biso   1.000  O
  C122     1.0000 0.07500  0.71600  0.65530  Biso   1.000  C
  H74      1.0000 0.02950  0.69510  0.62440  Biso   1.000  H
  N4       1.0000 0.35020  0.15950  0.87530  Biso   1.000  N
  O23      1.0000 0.90380  0.87800  0.99310  Biso   1.000  O
  O24      1.0000 0.04730  0.28180  0.90710  Biso   1.000  O
  C123     1.0000 0.06760  0.97710  0.62670  Biso   1.000  C
  C124     1.0000 0.79190  0.01360  0.95340  Biso   1.000  C
  C125     1.0000 0.64710  0.06960  0.92710  Biso   1.000  C
  C126     1.0000 0.11860  0.50880  0.92790  Biso   1.000  C
  C127     1.0000 0.18590  0.73420  0.94980  Biso   1.000  C
  H75      1.0000 0.20410  0.81900  0.97070  Biso   1.000  H
  C128     1.0000 0.31720  0.04670  0.88770  Biso   1.000  C
  C129     1.0000 0.10290  0.85560  0.66530  Biso   1.000  C
  C130     1.0000 0.48150  0.10160  0.93940  Biso   1.000  C
  H76      1.0000 0.47160  0.09260  0.96460  Biso   1.000  H
  C131     1.0000 0.22310  0.50790  0.77490  Biso   1.000  C
  C132     1.0000 0.26620  0.08500  0.89890  Biso   1.000  C
  H77      1.0000 0.25650  0.18560  0.90070  Biso   1.000  H
  C133     1.0000 0.06970  0.39990  0.93180  Biso   1.000  C
  C134     1.0000 0.33270  0.89960  0.88740  Biso   1.000  C
  H78      1.0000 0.36880  0.87180  0.88120  Biso   1.000  H
  C135     1.0000 0.20220  0.76780  0.74900  Biso   1.000  C
  H79      1.0000 0.24460  0.79150  0.78130  Biso   1.000  H
  C136     1.0000 0.69220  0.95140  0.96050  Biso   1.000  C
  H80      1.0000 0.67290  0.89020  0.97450  Biso   1.000  H
  C137     1.0000 0.42450  0.14060  0.88960  Biso   1.000  C
  C138     1.0000 0.17840  0.62680  0.73850  Biso   1.000  C
  C139     1.0000 0.22890  0.97500  0.90750  Biso   1.000  C
  H81      1.0000 0.19350  0.00190  0.91450  Biso   1.000  H
  C140     1.0000 0.11400  0.60260  0.69110  Biso   1.000  C
  H82      1.0000 0.09520  0.50530  0.68230  Biso   1.000  H
  C141     1.0000 0.29680  0.52270  0.81290  Biso   1.000  C
  H83      1.0000 0.32020  0.61440  0.81690  Biso   1.000  H
  C142     1.0000 0.24380  0.82780  0.90580  Biso   1.000  C
  C143     1.0000 0.86840  0.98940  0.96580  Biso   1.000  C
  C144     1.0000 0.14380  0.63290  0.95630  Biso   1.000  C
  H84      1.0000 0.13280  0.65100  0.98060  Biso   1.000  H
  C145     1.0000 0.67720  0.15850  0.90840  Biso   1.000  C
  H85      1.0000 0.64980  0.23930  0.88730  Biso   1.000  H
  C146     1.0000 0.74860  0.12970  0.92050  Biso   1.000  C
  H86      1.0000 0.76810  0.18940  0.90630  Biso   1.000  H
  C147     1.0000 0.13670  0.48650  0.89450  Biso   1.000  C
  H87      1.0000 0.12050  0.39820  0.87550  Biso   1.000  H
  C148     1.0000 0.33750  0.41060  0.84510  Biso   1.000  C
  H88      1.0000 0.38840  0.42670  0.87010  Biso   1.000  H
  C149     1.0000 0.76430  0.92440  0.97280  Biso   1.000  C
  H89      1.0000 0.79280  0.84530  0.99440  Biso   1.000  H
  C150     1.0000 0.19290  0.37020  0.77300  Biso   1.000  C
  H90      1.0000 0.14190  0.35530  0.74810  Biso   1.000  H
  C151     1.0000 0.51360  0.13500  0.86640  Biso   1.000  C
  H91      1.0000 0.52390  0.14790  0.84150  Biso   1.000  H
  C152     1.0000 0.17790  0.58580  0.88600  Biso   1.000  C
  H92      1.0000 0.18920  0.56610  0.86200  Biso   1.000  H
  C153     1.0000 0.23290  0.25340  0.80540  Biso   1.000  C
  H93      1.0000 0.20980  0.16190  0.80220  Biso   1.000  H
  C154     1.0000 0.16530  0.88020  0.71290  Biso   1.000  C
  H94      1.0000 0.18420  0.97720  0.72170  Biso   1.000  H
  C155     1.0000 0.44060  0.15820  0.85380  Biso   1.000  C
  H95      1.0000 0.40260  0.18600  0.82040  Biso   1.000  H
  C156     1.0000 0.55350  0.07600  0.95150  Biso   1.000  C
  H96      1.0000 0.59100  0.04660  0.98490  Biso   1.000  H
