data_image0
_cell_length_a       12.0014
_cell_length_b       14.686
_cell_length_c       21.176
_cell_angle_alpha    81.093
_cell_angle_beta     83.08
_cell_angle_gamma    76.571

_symmetry_space_group_name_H-M    "P 1"
_symmetry_int_tables_number       1

loop_
  _symmetry_equiv_pos_as_xyz
  'x, y, z'

loop_
  _atom_site_label
  _atom_site_occupancy
  _atom_site_fract_x
  _atom_site_fract_y
  _atom_site_fract_z
  _atom_site_thermal_displace_type
  _atom_site_B_iso_or_equiv
  _atom_site_type_symbol
  Cd1      1.0000 0.00986  0.37902  0.12832  Biso   1.000  Cd
  Mo1      1.0000 0.05147  0.01909  0.17163  Biso   1.000  Mo
  Mo2      1.0000 0.80525  0.85104  0.95142  Biso   1.000  Mo
  Mo3      1.0000 0.91929  0.75503  0.04553  Biso   1.000  Mo
  Mo4      1.0000 0.20848  0.76408  0.05561  Biso   1.000  Mo
  Mo5      1.0000 0.31281  0.86159  0.96360  Biso   1.000  Mo
  Mo6      1.0000 0.83656  0.01124  0.16885  Biso   1.000  Mo
  Mo7      1.0000 0.80225  0.47974  0.41187  Biso   1.000  Mo
  Mo8      1.0000 0.56770  0.52111  0.31719  Biso   1.000  Mo
  Mo9      1.0000 0.38269  0.64771  0.34343  Biso   1.000  Mo
  Mo10     1.0000 0.36503  0.77069  0.47367  Biso   1.000  Mo
  Mo11     1.0000 0.53904  0.73857  0.54229  Biso   1.000  Mo
  Mo12     1.0000 0.78999  0.56863  0.51033  Biso   1.000  Mo
  Mg1      1.0000 0.26170  0.07630  0.34020  Biso   1.000  Mg
  Cl1      1.0000 0.83400  0.90490  0.21080  Biso   1.000  Cl
  Cl2      1.0000 0.10250  0.91420  0.21340  Biso   1.000  Cl
  N1       1.0000 0.41480  0.03800  0.37860  Biso   1.000  N
  H1       1.0000 0.40930  0.98470  0.40500  Biso   1.000  H
  H2       1.0000 0.40960  0.08200  0.40470  Biso   1.000  H
  N2       1.0000 0.71140  0.92520  0.39830  Biso   1.000  N
  H3       1.0000 0.76470  0.94710  0.37130  Biso   1.000  H
  H4       1.0000 0.73940  0.90270  0.43610  Biso   1.000  H
  H5       1.0000 0.69140  0.87910  0.38250  Biso   1.000  H
  O1       1.0000 0.02210  0.15460  0.10790  Biso   1.000  O
  O2       1.0000 0.91220  0.24990  0.01810  Biso   1.000  O
  O3       1.0000 0.81460  0.15240  0.10450  Biso   1.000  O
  O4       1.0000 0.87010  0.29720  0.13050  Biso   1.000  O
  O5       1.0000 0.13290  0.09450  0.22040  Biso   1.000  O
  O6       1.0000 0.24560  0.17730  0.13060  Biso   1.000  O
  O7       1.0000 0.10150  0.27340  0.20340  Biso   1.000  O
  O8       1.0000 0.28260  0.17230  0.24460  Biso   1.000  O
  O9       1.0000 0.00270  0.61730  0.06680  Biso   1.000  O
  O10      1.0000 0.20650  0.62210  0.07940  Biso   1.000  O
  O11      1.0000 0.13890  0.47100  0.10840  Biso   1.000  O
  O12      1.0000 0.06730  0.60250  0.17820  Biso   1.000  O
  O13      1.0000 0.42260  0.82790  0.88590  Biso   1.000  O
  O14      1.0000 0.31460  0.91800  0.79070  Biso   1.000  O
  O15      1.0000 0.45450  0.76290  0.78100  Biso   1.000  O
  O16      1.0000 0.52250  0.91030  0.79160  Biso   1.000  O
  H6       1.0000 0.58620  0.87520  0.78000  Biso   1.000  H
  O17      1.0000 0.19590  0.01600  0.10230  Biso   1.000  O
  H7       1.0000 0.19560  0.97630  0.07710  Biso   1.000  H
  O18      1.0000 0.87120  0.71580  0.97030  Biso   1.000  O
  O19      1.0000 0.03870  0.78680  0.09860  Biso   1.000  O
  H8       1.0000 0.01730  0.84440  0.10460  Biso   1.000  H
  O20      1.0000 0.32820  0.72670  0.98890  Biso   1.000  O
  O21      1.0000 0.26270  0.99450  0.90550  Biso   1.000  O
  H9       1.0000 0.22430  0.03460  0.92920  Biso   1.000  H
  O22      1.0000 0.91130  0.07460  0.22020  Biso   1.000  O
  O23      1.0000 0.89070  0.88990  0.01180  Biso   1.000  O
  O24      1.0000 0.16890  0.89740  0.01710  Biso   1.000  O
  O25      1.0000 0.97190  0.98090  0.10690  Biso   1.000  O
  O26      1.0000 0.67000  0.60090  0.36430  Biso   1.000  O
  O27      1.0000 0.49200  0.71910  0.39060  Biso   1.000  O
  O28      1.0000 0.65800  0.69040  0.45780  Biso   1.000  O
  O29      1.0000 0.67300  0.77480  0.34470  Biso   1.000  O
  O30      1.0000 0.87630  0.49630  0.31830  Biso   1.000  O
  O31      1.0000 0.70840  0.51720  0.25140  Biso   1.000  O
  O32      1.0000 0.90700  0.43570  0.21400  Biso   1.000  O
  O33      1.0000 0.85460  0.61160  0.21730  Biso   1.000  O
  H10      1.0000 0.92510  0.60850  0.20440  Biso   1.000  H
  O34      1.0000 0.32070  0.78600  0.30600  Biso   1.000  O
  O35      1.0000 0.31440  0.87520  0.40030  Biso   1.000  O
  O36      1.0000 0.27920  0.96040  0.29420  Biso   1.000  O
  O37      1.0000 0.13030  0.87230  0.35490  Biso   1.000  O
  H11      1.0000 0.10580  0.90630  0.38490  Biso   1.000  H
  O38      1.0000 0.66840  0.80880  0.54720  Biso   1.000  O
  O39      1.0000 0.84670  0.68160  0.52640  Biso   1.000  O
  O40      1.0000 0.85130  0.85010  0.49470  Biso   1.000  O
  O41      1.0000 0.16350  0.21390  0.38840  Biso   1.000  O
  O42      1.0000 0.46490  0.53520  0.39570  Biso   1.000  O
  O43      1.0000 0.44950  0.65330  0.52020  Biso   1.000  O
  O44      1.0000 0.68370  0.42030  0.37250  Biso   1.000  O
  H12      1.0000 0.64600  0.39240  0.40300  Biso   1.000  H
  O45      1.0000 0.50390  0.64530  0.27310  Biso   1.000  O
  O46      1.0000 0.29120  0.68670  0.42790  Biso   1.000  O
  H13      1.0000 0.28520  0.63700  0.45340  Biso   1.000  H
  O47      1.0000 0.47480  0.84570  0.48170  Biso   1.000  O
  O48      1.0000 0.65490  0.61630  0.57830  Biso   1.000  O
  H14      1.0000 0.61850  0.57270  0.59110  Biso   1.000  H
  O49      1.0000 0.87530  0.57780  0.42740  Biso   1.000  O
  H15      1.0000 0.94780  0.56110  0.42820  Biso   1.000  H
  O50      1.0000 0.68880  0.49380  0.48620  Biso   1.000  O
  P1       1.0000 0.90224  0.21631  0.09088  Biso   1.000  P
  P2       1.0000 0.18840  0.18099  0.19937  Biso   1.000  P
  P3       1.0000 0.42756  0.85262  0.81240  Biso   1.000  P
  P4       1.0000 0.10445  0.57700  0.11082  Biso   1.000  P
  P5       1.0000 0.62495  0.69923  0.38813  Biso   1.000  P
  P6       1.0000 0.83717  0.51234  0.25012  Biso   1.000  P
  P7       1.0000 0.25533  0.87075  0.33985  Biso   1.000  P
  P8       1.0000 0.80208  0.78197  0.54565  Biso   1.000  P
  C1       1.0000 0.53550  0.02070  0.35440  Biso   1.000  C
  H16      1.0000 0.55140  0.96910  0.32870  Biso   1.000  H
  H17      1.0000 0.55000  0.07650  0.32650  Biso   1.000  H
  C2       1.0000 0.61650  0.99690  0.40630  Biso   1.000  C
  H18      1.0000 0.57370  0.98010  0.44660  Biso   1.000  H
  H19      1.0000 0.64280  0.05330  0.41000  Biso   1.000  H
  Cd2      1.0000 0.99014  0.62098  0.87168  Biso   1.000  Cd
  Mo13     1.0000 0.94853  0.98091  0.82837  Biso   1.000  Mo
  Mo14     1.0000 0.19475  0.14896  0.04858  Biso   1.000  Mo
  Mo15     1.0000 0.08071  0.24497  0.95447  Biso   1.000  Mo
  Mo16     1.0000 0.79152  0.23592  0.94439  Biso   1.000  Mo
  Mo17     1.0000 0.68719  0.13841  0.03640  Biso   1.000  Mo
  Mo18     1.0000 0.16344  0.98876  0.83115  Biso   1.000  Mo
  Mo19     1.0000 0.19775  0.52026  0.58813  Biso   1.000  Mo
  Mo20     1.0000 0.43230  0.47889  0.68281  Biso   1.000  Mo
  Mo21     1.0000 0.61731  0.35229  0.65657  Biso   1.000  Mo
  Mo22     1.0000 0.63497  0.22931  0.52633  Biso   1.000  Mo
  Mo23     1.0000 0.46096  0.26143  0.45771  Biso   1.000  Mo
  Mo24     1.0000 0.21001  0.43137  0.48967  Biso   1.000  Mo
  Mg2      1.0000 0.73830  0.92370  0.65980  Biso   1.000  Mg
  Cl3      1.0000 0.16600  0.09510  0.78920  Biso   1.000  Cl
  Cl4      1.0000 0.89750  0.08580  0.78660  Biso   1.000  Cl
  N3       1.0000 0.58520  0.96200  0.62140  Biso   1.000  N
  H20      1.0000 0.59070  0.01530  0.59500  Biso   1.000  H
  H21      1.0000 0.59040  0.91800  0.59530  Biso   1.000  H
  N4       1.0000 0.28860  0.07480  0.60170  Biso   1.000  N
  H22      1.0000 0.23530  0.05290  0.62870  Biso   1.000  H
  H23      1.0000 0.26060  0.09730  0.56390  Biso   1.000  H
  H24      1.0000 0.30860  0.12090  0.61750  Biso   1.000  H
  O51      1.0000 0.97790  0.84540  0.89210  Biso   1.000  O
  O52      1.0000 0.08780  0.75010  0.98190  Biso   1.000  O
  O53      1.0000 0.18540  0.84760  0.89550  Biso   1.000  O
  O54      1.0000 0.12990  0.70280  0.86950  Biso   1.000  O
  O55      1.0000 0.86710  0.90550  0.77960  Biso   1.000  O
  O56      1.0000 0.75440  0.82270  0.86940  Biso   1.000  O
  O57      1.0000 0.89850  0.72660  0.79660  Biso   1.000  O
  O58      1.0000 0.71740  0.82770  0.75540  Biso   1.000  O
  O59      1.0000 0.99730  0.38270  0.93320  Biso   1.000  O
  O60      1.0000 0.79350  0.37790  0.92060  Biso   1.000  O
  O61      1.0000 0.86110  0.52900  0.89160  Biso   1.000  O
  O62      1.0000 0.93270  0.39750  0.82180  Biso   1.000  O
  O63      1.0000 0.57740  0.17210  0.11410  Biso   1.000  O
  O64      1.0000 0.68540  0.08200  0.20930  Biso   1.000  O
  O65      1.0000 0.54550  0.23710  0.21900  Biso   1.000  O
  O66      1.0000 0.47750  0.08970  0.20840  Biso   1.000  O
  H25      1.0000 0.41380  0.12480  0.22000  Biso   1.000  H
  O67      1.0000 0.80410  0.98400  0.89770  Biso   1.000  O
  H26      1.0000 0.80440  0.02370  0.92290  Biso   1.000  H
  O68      1.0000 0.12880  0.28420  0.02970  Biso   1.000  O
  O69      1.0000 0.96130  0.21320  0.90140  Biso   1.000  O
  H27      1.0000 0.98270  0.15560  0.89540  Biso   1.000  H
  O70      1.0000 0.67180  0.27330  0.01110  Biso   1.000  O
  O71      1.0000 0.73730  0.00550  0.09450  Biso   1.000  O
  H28      1.0000 0.77570  0.96540  0.07080  Biso   1.000  H
  O72      1.0000 0.08870  0.92540  0.77980  Biso   1.000  O
  O73      1.0000 0.10930  0.11010  0.98820  Biso   1.000  O
  O74      1.0000 0.83110  0.10260  0.98290  Biso   1.000  O
  O75      1.0000 0.02810  0.01910  0.89310  Biso   1.000  O
  O76      1.0000 0.33000  0.39910  0.63570  Biso   1.000  O
  O77      1.0000 0.50800  0.28090  0.60940  Biso   1.000  O
  O78      1.0000 0.34200  0.30960  0.54220  Biso   1.000  O
  O79      1.0000 0.32700  0.22520  0.65530  Biso   1.000  O
  O80      1.0000 0.12370  0.50370  0.68170  Biso   1.000  O
  O81      1.0000 0.29160  0.48280  0.74860  Biso   1.000  O
  O82      1.0000 0.09300  0.56430  0.78600  Biso   1.000  O
  O83      1.0000 0.14540  0.38840  0.78270  Biso   1.000  O
  H29      1.0000 0.07490  0.39150  0.79560  Biso   1.000  H
  O84      1.0000 0.67930  0.21400  0.69400  Biso   1.000  O
  O85      1.0000 0.68560  0.12480  0.59970  Biso   1.000  O
  O86      1.0000 0.72080  0.03960  0.70580  Biso   1.000  O
  O87      1.0000 0.86970  0.12770  0.64510  Biso   1.000  O
  H30      1.0000 0.89420  0.09370  0.61510  Biso   1.000  H
  O88      1.0000 0.33160  0.19120  0.45280  Biso   1.000  O
  O89      1.0000 0.15330  0.31840  0.47360  Biso   1.000  O
  O90      1.0000 0.14870  0.14990  0.50530  Biso   1.000  O
  O91      1.0000 0.83650  0.78610  0.61160  Biso   1.000  O
  O92      1.0000 0.53510  0.46480  0.60430  Biso   1.000  O
  O93      1.0000 0.55050  0.34670  0.47980  Biso   1.000  O
  O94      1.0000 0.31630  0.57970  0.62750  Biso   1.000  O
  H31      1.0000 0.35400  0.60760  0.59700  Biso   1.000  H
  O95      1.0000 0.49610  0.35470  0.72690  Biso   1.000  O
  O96      1.0000 0.70880  0.31330  0.57210  Biso   1.000  O
  H32      1.0000 0.71480  0.36300  0.54660  Biso   1.000  H
  O97      1.0000 0.52520  0.15430  0.51830  Biso   1.000  O
  O98      1.0000 0.34510  0.38370  0.42170  Biso   1.000  O
  H33      1.0000 0.38150  0.42730  0.40890  Biso   1.000  H
  O99      1.0000 0.12470  0.42220  0.57260  Biso   1.000  O
  H34      1.0000 0.05220  0.43890  0.57180  Biso   1.000  H
  O100     1.0000 0.31120  0.50620  0.51380  Biso   1.000  O
  P9       1.0000 0.09776  0.78369  0.90912  Biso   1.000  P
  P10      1.0000 0.81160  0.81901  0.80063  Biso   1.000  P
  P11      1.0000 0.57244  0.14738  0.18760  Biso   1.000  P
  P12      1.0000 0.89555  0.42300  0.88918  Biso   1.000  P
  P13      1.0000 0.37505  0.30077  0.61187  Biso   1.000  P
  P14      1.0000 0.16283  0.48766  0.74988  Biso   1.000  P
  P15      1.0000 0.74467  0.12925  0.66015  Biso   1.000  P
  P16      1.0000 0.19792  0.21803  0.45435  Biso   1.000  P
  C3       1.0000 0.46450  0.97930  0.64560  Biso   1.000  C
  H35      1.0000 0.44860  0.03090  0.67130  Biso   1.000  H
  H36      1.0000 0.45000  0.92350  0.67350  Biso   1.000  H
  C4       1.0000 0.38350  0.00310  0.59370  Biso   1.000  C
  H37      1.0000 0.42630  0.01990  0.55340  Biso   1.000  H
  H38      1.0000 0.35720  0.94670  0.59000  Biso   1.000  H
  Cd3      1.0000 0.00000  0.00000  0.00000  Biso   1.000  Cd
  Cd4      1.0000 0.50000  0.50000  0.50000  Biso   1.000  Cd
