data_OXUPUT_clean
_audit_creation_date              2014-07-02
_audit_creation_method            'Materials Studio'
_symmetry_space_group_name_H-M    'P1'
_symmetry_Int_Tables_number       1
_symmetry_cell_setting            triclinic
loop_
_symmetry_equiv_pos_as_xyz
  x,y,z
_cell_length_a                    7.8010
_cell_length_b                    20.3539
_cell_length_c                    20.3539
_cell_angle_alpha                 90.0000
_cell_angle_beta                  90.0000
_cell_angle_gamma                 90.0000
loop_
_atom_site_label
_atom_site_type_symbol
_atom_site_fract_x
_atom_site_fract_y
_atom_site_fract_z
_atom_site_U_iso_or_equiv
_atom_site_adp_type
_atom_site_occupancy
U1     U     0.79162   0.59742   0.75000   0.01267  Uiso   1.00
U2     U     0.79162   0.90258   0.75000   0.01267  Uiso   1.00
U3     U     0.29162   0.75000   0.59742   0.01267  Uiso   1.00
U4     U     0.29162   0.75000   0.90258   0.01267  Uiso   1.00
U5     U     0.20838   0.40258   0.25000   0.01267  Uiso   1.00
U6     U     0.20838   0.09742   0.25000   0.01267  Uiso   1.00
U7     U     0.70838   0.25000   0.09742   0.01267  Uiso   1.00
U8     U     0.70838   0.25000   0.40258   0.01267  Uiso   1.00
P1     P     0.43150   0.57439   0.86427   0.01267  Uiso   1.00
P2     P     0.43150   0.92561   0.63573   0.01267  Uiso   1.00
P3     P     0.93150   0.63573   0.57439   0.01267  Uiso   1.00
P4     P     0.93150   0.86427   0.92561   0.01267  Uiso   1.00
P5     P     0.56850   0.42561   0.36427   0.01267  Uiso   1.00
P6     P     0.56850   0.07439   0.13573   0.01267  Uiso   1.00
P7     P     0.06850   0.36427   0.07439   0.01267  Uiso   1.00
P8     P     0.06850   0.13573   0.42561   0.01267  Uiso   1.00
P9     P     0.56850   0.42561   0.13573   0.01267  Uiso   1.00
P10    P     0.56850   0.07439   0.36427   0.01267  Uiso   1.00
P11    P     0.06850   0.36427   0.42561   0.01267  Uiso   1.00
P12    P     0.06850   0.13573   0.07439   0.01267  Uiso   1.00
P13    P     0.43150   0.57439   0.63573   0.01267  Uiso   1.00
P14    P     0.43150   0.92561   0.86427   0.01267  Uiso   1.00
P15    P     0.93150   0.63573   0.92561   0.01267  Uiso   1.00
P16    P     0.93150   0.86427   0.57439   0.01267  Uiso   1.00
H1     H     0.41900   0.60900   0.99850   0.01267  Uiso   1.00
H2     H     0.41900   0.89100   0.50150   0.01267  Uiso   1.00
H3     H     0.91900   0.50150   0.60900   0.01267  Uiso   1.00
H4     H     0.91900   0.99850   0.89100   0.01267  Uiso   1.00
H5     H     0.58100   0.39100   0.49850   0.01267  Uiso   1.00
H6     H     0.58100   0.10900   0.00150   0.01267  Uiso   1.00
H7     H     0.08100   0.49850   0.10900   0.01267  Uiso   1.00
H8     H     0.08100   0.00150   0.39100   0.01267  Uiso   1.00
H9     H     0.58100   0.39100   0.00150   0.01267  Uiso   1.00
H10    H     0.58100   0.10900   0.49850   0.01267  Uiso   1.00
H11    H     0.08100   0.49850   0.39100   0.01267  Uiso   1.00
H12    H     0.08100   0.00150   0.10900   0.01267  Uiso   1.00
H13    H     0.41900   0.60900   0.50150   0.01267  Uiso   1.00
H14    H     0.41900   0.89100   0.99850   0.01267  Uiso   1.00
H15    H     0.91900   0.50150   0.89100   0.01267  Uiso   1.00
H16    H     0.91900   0.99850   0.60900   0.01267  Uiso   1.00
C1     C     0.46710   0.53210   0.94070   0.01267  Uiso   1.00
C2     C     0.51050   0.46610   0.94200   0.01267  Uiso   1.00
C3     C     0.45380   0.56430   0.99850   0.01267  Uiso   1.00
C4     C     0.46710   0.96790   0.55930   0.01267  Uiso   1.00
C5     C     0.51050   0.03390   0.55800   0.01267  Uiso   1.00
C6     C     0.45380   0.93570   0.50150   0.01267  Uiso   1.00
C7     C     0.96710   0.55930   0.53210   0.01267  Uiso   1.00
C8     C     0.01050   0.55800   0.46610   0.01267  Uiso   1.00
C9     C     0.95380   0.50150   0.56430   0.01267  Uiso   1.00
C10    C     0.96710   0.94070   0.96790   0.01267  Uiso   1.00
C11    C     0.01050   0.94200   0.03390   0.01267  Uiso   1.00
C12    C     0.95380   0.99850   0.93570   0.01267  Uiso   1.00
C13    C     0.53290   0.46790   0.44070   0.01267  Uiso   1.00
C14    C     0.48950   0.53390   0.44200   0.01267  Uiso   1.00
C15    C     0.54620   0.43570   0.49850   0.01267  Uiso   1.00
C16    C     0.53290   0.03210   0.05930   0.01267  Uiso   1.00
C17    C     0.48950   0.96610   0.05800   0.01267  Uiso   1.00
C18    C     0.54620   0.06430   0.00150   0.01267  Uiso   1.00
C19    C     0.03290   0.44070   0.03210   0.01267  Uiso   1.00
C20    C     0.98950   0.44200   0.96610   0.01267  Uiso   1.00
C21    C     0.04620   0.49850   0.06430   0.01267  Uiso   1.00
C22    C     0.03290   0.05930   0.46790   0.01267  Uiso   1.00
C23    C     0.98950   0.05800   0.53390   0.01267  Uiso   1.00
C24    C     0.04620   0.00150   0.43570   0.01267  Uiso   1.00
C25    C     0.53290   0.46790   0.05930   0.01267  Uiso   1.00
C26    C     0.48950   0.53390   0.05800   0.01267  Uiso   1.00
C27    C     0.54620   0.43570   0.00150   0.01267  Uiso   1.00
C28    C     0.53290   0.03210   0.44070   0.01267  Uiso   1.00
C29    C     0.48950   0.96610   0.44200   0.01267  Uiso   1.00
C30    C     0.54620   0.06430   0.49850   0.01267  Uiso   1.00
C31    C     0.03290   0.44070   0.46790   0.01267  Uiso   1.00
C32    C     0.98950   0.44200   0.53390   0.01267  Uiso   1.00
C33    C     0.04620   0.49850   0.43570   0.01267  Uiso   1.00
C34    C     0.03290   0.05930   0.03210   0.01267  Uiso   1.00
C35    C     0.98950   0.05800   0.96610   0.01267  Uiso   1.00
C36    C     0.04620   0.00150   0.06430   0.01267  Uiso   1.00
C37    C     0.46710   0.53210   0.55930   0.01267  Uiso   1.00
C38    C     0.51050   0.46610   0.55800   0.01267  Uiso   1.00
C39    C     0.45380   0.56430   0.50150   0.01267  Uiso   1.00
C40    C     0.46710   0.96790   0.94070   0.01267  Uiso   1.00
C41    C     0.51050   0.03390   0.94200   0.01267  Uiso   1.00
C42    C     0.45380   0.93570   0.99850   0.01267  Uiso   1.00
C43    C     0.96710   0.55930   0.96790   0.01267  Uiso   1.00
C44    C     0.01050   0.55800   0.03390   0.01267  Uiso   1.00
C45    C     0.95380   0.50150   0.93570   0.01267  Uiso   1.00
C46    C     0.96710   0.94070   0.53210   0.01267  Uiso   1.00
C47    C     0.01050   0.94200   0.46610   0.01267  Uiso   1.00
C48    C     0.95380   0.99850   0.56430   0.01267  Uiso   1.00
O1     O     0.58150   0.56060   0.82010   0.01267  Uiso   1.00
O2     O     0.39840   0.64510   0.87830   0.01267  Uiso   1.00
O3     O     0.26630   0.54340   0.83360   0.01267  Uiso   1.00
O4     O     0.58150   0.93940   0.67990   0.01267  Uiso   1.00
O5     O     0.39840   0.85490   0.62170   0.01267  Uiso   1.00
O6     O     0.26630   0.95660   0.66640   0.01267  Uiso   1.00
O7     O     0.08150   0.67990   0.56060   0.01267  Uiso   1.00
O8     O     0.89840   0.62170   0.64510   0.01267  Uiso   1.00
O9     O     0.76630   0.66640   0.54340   0.01267  Uiso   1.00
O10    O     0.08150   0.82010   0.93940   0.01267  Uiso   1.00
O11    O     0.89840   0.87830   0.85490   0.01267  Uiso   1.00
O12    O     0.76630   0.83360   0.95660   0.01267  Uiso   1.00
O13    O     0.41850   0.43940   0.32010   0.01267  Uiso   1.00
O14    O     0.60160   0.35490   0.37830   0.01267  Uiso   1.00
O15    O     0.73370   0.45660   0.33360   0.01267  Uiso   1.00
O16    O     0.41850   0.06060   0.17990   0.01267  Uiso   1.00
O17    O     0.60160   0.14510   0.12170   0.01267  Uiso   1.00
O18    O     0.73370   0.04340   0.16640   0.01267  Uiso   1.00
O19    O     0.91850   0.32010   0.06060   0.01267  Uiso   1.00
O20    O     0.10160   0.37830   0.14510   0.01267  Uiso   1.00
O21    O     0.23370   0.33360   0.04340   0.01267  Uiso   1.00
O22    O     0.91850   0.17990   0.43940   0.01267  Uiso   1.00
O23    O     0.10160   0.12170   0.35490   0.01267  Uiso   1.00
O24    O     0.23370   0.16640   0.45660   0.01267  Uiso   1.00
O25    O     0.41850   0.43940   0.17990   0.01267  Uiso   1.00
O26    O     0.60160   0.35490   0.12170   0.01267  Uiso   1.00
O27    O     0.73370   0.45660   0.16640   0.01267  Uiso   1.00
O28    O     0.41850   0.06060   0.32010   0.01267  Uiso   1.00
O29    O     0.60160   0.14510   0.37830   0.01267  Uiso   1.00
O30    O     0.73370   0.04340   0.33360   0.01267  Uiso   1.00
O31    O     0.91850   0.32010   0.43940   0.01267  Uiso   1.00
O32    O     0.10160   0.37830   0.35490   0.01267  Uiso   1.00
O33    O     0.23370   0.33360   0.45660   0.01267  Uiso   1.00
O34    O     0.91850   0.17990   0.06060   0.01267  Uiso   1.00
O35    O     0.10160   0.12170   0.14510   0.01267  Uiso   1.00
O36    O     0.23370   0.16640   0.04340   0.01267  Uiso   1.00
O37    O     0.58150   0.56060   0.67990   0.01267  Uiso   1.00
O38    O     0.39840   0.64510   0.62170   0.01267  Uiso   1.00
O39    O     0.26630   0.54340   0.66640   0.01267  Uiso   1.00
O40    O     0.58150   0.93940   0.82010   0.01267  Uiso   1.00
O41    O     0.39840   0.85490   0.87830   0.01267  Uiso   1.00
O42    O     0.26630   0.95660   0.83360   0.01267  Uiso   1.00
O43    O     0.08150   0.67990   0.93940   0.01267  Uiso   1.00
O44    O     0.89840   0.62170   0.85490   0.01267  Uiso   1.00
O45    O     0.76630   0.66640   0.95660   0.01267  Uiso   1.00
O46    O     0.08150   0.82010   0.56060   0.01267  Uiso   1.00
O47    O     0.89840   0.87830   0.64510   0.01267  Uiso   1.00
O48    O     0.76630   0.83360   0.54340   0.01267  Uiso   1.00
