data_OYEBIE_clean
_audit_creation_date              2014-07-02
_audit_creation_method            'Materials Studio'
_symmetry_space_group_name_H-M    'P1'
_symmetry_Int_Tables_number       1
_symmetry_cell_setting            triclinic
loop_
_symmetry_equiv_pos_as_xyz
  x,y,z
_cell_length_a                    9.4792
_cell_length_b                    11.3658
_cell_length_c                    22.1265
_cell_angle_alpha                 102.4340
_cell_angle_beta                  90.0000
_cell_angle_gamma                 114.6460
loop_
_atom_site_label
_atom_site_type_symbol
_atom_site_fract_x
_atom_site_fract_y
_atom_site_fract_z
_atom_site_U_iso_or_equiv
_atom_site_adp_type
_atom_site_occupancy
Zn1    Zn    0.07894   0.66650   0.62011   0.01267  Uiso   1.00
Zn2    Zn    0.41244   0.33350   0.87989   0.01267  Uiso   1.00
Zn3    Zn    0.92106   0.33350   0.37989   0.01267  Uiso   1.00
Zn4    Zn    0.58756   0.66650   0.12011   0.01267  Uiso   1.00
H1     H     0.96340   0.39500   0.54590   0.01267  Uiso   1.00
H2     H     0.01750   0.21480   0.52420   0.01267  Uiso   1.00
H3     H     0.38750   0.41160   0.64800   0.01267  Uiso   1.00
H4     H     0.32500   0.58800   0.66650   0.01267  Uiso   1.00
H5     H     0.21500   0.12520   0.52790   0.01267  Uiso   1.00
H6     H     0.35350   0.19800   0.58080   0.01267  Uiso   1.00
H7     H     0.16650   0.98920   0.59460   0.01267  Uiso   1.00
H8     H     0.04480   0.05040   0.60480   0.01267  Uiso   1.00
H9     H     0.14050   0.26600   0.80070   0.01267  Uiso   1.00
H10    H     0.03920   0.17100   0.70140   0.01267  Uiso   1.00
H11    H     0.40840   0.09740   0.67050   0.01267  Uiso   1.00
H12    H     0.50040   0.19260   0.77050   0.01267  Uiso   1.00
H13    H     0.58710   0.72380   0.54470   0.01267  Uiso   1.00
H14    H     0.64560   0.38800   0.51670   0.01267  Uiso   1.00
H15    H     0.60260   0.03860   0.59820   0.01267  Uiso   1.00
H16    H     0.26220   0.82300   0.46340   0.01267  Uiso   1.00
H17    H     0.56840   0.60500   0.95410   0.01267  Uiso   1.00
H18    H     0.80270   0.78520   0.97580   0.01267  Uiso   1.00
H19    H     0.97590   0.58840   0.85200   0.01267  Uiso   1.00
H20    H     0.73700   0.41200   0.83350   0.01267  Uiso   1.00
H21    H     0.08980   0.87480   0.97210   0.01267  Uiso   1.00
H22    H     0.15550   0.80200   0.91920   0.01267  Uiso   1.00
H23    H     0.17730   0.01080   0.90540   0.01267  Uiso   1.00
H24    H     0.99440   0.94960   0.89520   0.01267  Uiso   1.00
H25    H     0.87450   0.73400   0.69930   0.01267  Uiso   1.00
H26    H     0.86820   0.82900   0.79860   0.01267  Uiso   1.00
H27    H     0.31100   0.90260   0.82950   0.01267  Uiso   1.00
H28    H     0.30780   0.80740   0.72950   0.01267  Uiso   1.00
H29    H     0.86330   0.27620   0.95530   0.01267  Uiso   1.00
H30    H     0.25760   0.61200   0.98330   0.01267  Uiso   1.00
H31    H     0.56400   0.96140   0.90180   0.01267  Uiso   1.00
H32    H     0.43920   0.17700   0.03660   0.01267  Uiso   1.00
H33    H     0.03660   0.60500   0.45410   0.01267  Uiso   1.00
H34    H     0.98250   0.78520   0.47580   0.01267  Uiso   1.00
H35    H     0.61250   0.58840   0.35200   0.01267  Uiso   1.00
H36    H     0.67500   0.41200   0.33350   0.01267  Uiso   1.00
H37    H     0.78500   0.87480   0.47210   0.01267  Uiso   1.00
H38    H     0.64650   0.80200   0.41920   0.01267  Uiso   1.00
H39    H     0.83350   0.01080   0.40540   0.01267  Uiso   1.00
H40    H     0.95520   0.94960   0.39520   0.01267  Uiso   1.00
H41    H     0.85950   0.73400   0.19930   0.01267  Uiso   1.00
H42    H     0.96080   0.82900   0.29860   0.01267  Uiso   1.00
H43    H     0.59160   0.90260   0.32950   0.01267  Uiso   1.00
H44    H     0.49960   0.80740   0.22950   0.01267  Uiso   1.00
H45    H     0.41290   0.27620   0.45530   0.01267  Uiso   1.00
H46    H     0.35440   0.61200   0.48330   0.01267  Uiso   1.00
H47    H     0.39740   0.96140   0.40180   0.01267  Uiso   1.00
H48    H     0.73780   0.17700   0.53660   0.01267  Uiso   1.00
H49    H     0.43160   0.39500   0.04590   0.01267  Uiso   1.00
H50    H     0.19730   0.21480   0.02420   0.01267  Uiso   1.00
H51    H     0.02410   0.41160   0.14800   0.01267  Uiso   1.00
H52    H     0.26300   0.58800   0.16650   0.01267  Uiso   1.00
H53    H     0.91020   0.12520   0.02790   0.01267  Uiso   1.00
H54    H     0.84450   0.19800   0.08080   0.01267  Uiso   1.00
H55    H     0.82270   0.98920   0.09460   0.01267  Uiso   1.00
H56    H     0.00560   0.05040   0.10480   0.01267  Uiso   1.00
H57    H     0.12550   0.26600   0.30070   0.01267  Uiso   1.00
H58    H     0.13180   0.17100   0.20140   0.01267  Uiso   1.00
H59    H     0.68900   0.09740   0.17050   0.01267  Uiso   1.00
H60    H     0.69220   0.19260   0.27050   0.01267  Uiso   1.00
H61    H     0.13670   0.72380   0.04470   0.01267  Uiso   1.00
H62    H     0.74240   0.38800   0.01670   0.01267  Uiso   1.00
H63    H     0.43600   0.03860   0.09820   0.01267  Uiso   1.00
H64    H     0.56080   0.82300   0.96340   0.01267  Uiso   1.00
C1     C     0.05021   0.39902   0.56738   0.01267  Uiso   1.00
C2     C     0.08229   0.28998   0.55421   0.01267  Uiso   1.00
C3     C     0.20799   0.28958   0.58437   0.01267  Uiso   1.00
C4     C     0.29901   0.40482   0.62653   0.01267  Uiso   1.00
C5     C     0.26042   0.51084   0.63747   0.01267  Uiso   1.00
C6     C     0.24232   0.16924   0.57170   0.01267  Uiso   1.00
C7     C     0.15492   0.07104   0.60958   0.01267  Uiso   1.00
C8     C     0.19512   0.23084   0.77324   0.01267  Uiso   1.00
C9     C     0.13466   0.17532   0.71463   0.01267  Uiso   1.00
C10    C     0.21373   0.12546   0.67457   0.01267  Uiso   1.00
C11    C     0.35194   0.13248   0.69699   0.01267  Uiso   1.00
C12    C     0.40600   0.18860   0.75604   0.01267  Uiso   1.00
C13    C     0.55156   0.63332   0.52656   0.01267  Uiso   1.00
C14    C     0.63972   0.56704   0.53692   0.01267  Uiso   1.00
C15    C     0.58696   0.43312   0.50998   0.01267  Uiso   1.00
C16    C     0.79174   0.64128   0.57596   0.01267  Uiso   1.00
C17    C     0.56068   0.02316   0.55770   0.01267  Uiso   1.00
C18    C     0.41817   0.91734   0.53647   0.01267  Uiso   1.00
C19    C     0.35818   0.89436   0.47869   0.01267  Uiso   1.00
C20    C     0.32658   0.83076   0.57637   0.01267  Uiso   1.00
C21    C     0.65119   0.60098   0.93262   0.01267  Uiso   1.00
C22    C     0.79231   0.71002   0.94579   0.01267  Uiso   1.00
C23    C     0.91841   0.71042   0.91563   0.01267  Uiso   1.00
C24    C     0.89419   0.59518   0.87347   0.01267  Uiso   1.00
C25    C     0.74958   0.48916   0.86253   0.01267  Uiso   1.00
C26    C     0.07308   0.83076   0.92830   0.01267  Uiso   1.00
C27    C     0.08388   0.92896   0.89042   0.01267  Uiso   1.00
C28    C     0.96428   0.76916   0.72676   0.01267  Uiso   1.00
C29    C     0.95934   0.82468   0.78537   0.01267  Uiso   1.00
C30    C     0.08827   0.87454   0.82543   0.01267  Uiso   1.00
C31    C     0.21946   0.86752   0.80301   0.01267  Uiso   1.00
C32    C     0.21740   0.81140   0.74396   0.01267  Uiso   1.00
C33    C     0.91824   0.36668   0.97344   0.01267  Uiso   1.00
C34    C     0.07268   0.43296   0.96308   0.01267  Uiso   1.00
C35    C     0.15384   0.56688   0.99002   0.01267  Uiso   1.00
C36    C     0.15046   0.35872   0.92404   0.01267  Uiso   1.00
C37    C     0.53752   0.97684   0.94230   0.01267  Uiso   1.00
C38    C     0.50083   0.08266   0.96353   0.01267  Uiso   1.00
C39    C     0.46382   0.10564   0.02131   0.01267  Uiso   1.00
C40    C     0.49582   0.16924   0.92363   0.01267  Uiso   1.00
C41    C     0.94979   0.60098   0.43262   0.01267  Uiso   1.00
C42    C     0.91771   0.71002   0.44579   0.01267  Uiso   1.00
C43    C     0.79201   0.71042   0.41563   0.01267  Uiso   1.00
C44    C     0.70099   0.59518   0.37347   0.01267  Uiso   1.00
C45    C     0.73958   0.48916   0.36253   0.01267  Uiso   1.00
C46    C     0.75768   0.83076   0.42830   0.01267  Uiso   1.00
C47    C     0.84508   0.92896   0.39042   0.01267  Uiso   1.00
C48    C     0.80488   0.76916   0.22676   0.01267  Uiso   1.00
C49    C     0.86534   0.82468   0.28537   0.01267  Uiso   1.00
C50    C     0.78627   0.87454   0.32543   0.01267  Uiso   1.00
C51    C     0.64806   0.86752   0.30301   0.01267  Uiso   1.00
C52    C     0.59400   0.81140   0.24396   0.01267  Uiso   1.00
C53    C     0.44844   0.36668   0.47344   0.01267  Uiso   1.00
C54    C     0.36028   0.43296   0.46308   0.01267  Uiso   1.00
C55    C     0.41304   0.56688   0.49002   0.01267  Uiso   1.00
C56    C     0.20826   0.35872   0.42404   0.01267  Uiso   1.00
C57    C     0.43932   0.97684   0.44230   0.01267  Uiso   1.00
C58    C     0.58183   0.08266   0.46353   0.01267  Uiso   1.00
C59    C     0.64182   0.10564   0.52131   0.01267  Uiso   1.00
C60    C     0.67342   0.16924   0.42363   0.01267  Uiso   1.00
C61    C     0.34881   0.39902   0.06738   0.01267  Uiso   1.00
C62    C     0.20769   0.28998   0.05421   0.01267  Uiso   1.00
C63    C     0.08159   0.28958   0.08437   0.01267  Uiso   1.00
C64    C     0.10581   0.40482   0.12653   0.01267  Uiso   1.00
C65    C     0.25042   0.51084   0.13747   0.01267  Uiso   1.00
C66    C     0.92692   0.16924   0.07170   0.01267  Uiso   1.00
C67    C     0.91612   0.07104   0.10958   0.01267  Uiso   1.00
C68    C     0.03572   0.23084   0.27324   0.01267  Uiso   1.00
C69    C     0.04066   0.17532   0.21463   0.01267  Uiso   1.00
C70    C     0.91173   0.12546   0.17457   0.01267  Uiso   1.00
C71    C     0.78054   0.13248   0.19699   0.01267  Uiso   1.00
C72    C     0.78260   0.18860   0.25604   0.01267  Uiso   1.00
C73    C     0.08176   0.63332   0.02656   0.01267  Uiso   1.00
C74    C     0.92732   0.56704   0.03692   0.01267  Uiso   1.00
C75    C     0.84616   0.43312   0.00998   0.01267  Uiso   1.00
C76    C     0.84954   0.64128   0.07596   0.01267  Uiso   1.00
C77    C     0.46248   0.02316   0.05770   0.01267  Uiso   1.00
C78    C     0.49917   0.91734   0.03647   0.01267  Uiso   1.00
C79    C     0.53618   0.89436   0.97869   0.01267  Uiso   1.00
C80    C     0.50418   0.83076   0.07637   0.01267  Uiso   1.00
N1     N     0.13639   0.50966   0.60905   0.01267  Uiso   1.00
N2     N     0.32977   0.23848   0.79438   0.01267  Uiso   1.00
N3     N     0.62673   0.49034   0.89095   0.01267  Uiso   1.00
N4     N     0.09129   0.76152   0.70562   0.01267  Uiso   1.00
N5     N     0.86361   0.49034   0.39095   0.01267  Uiso   1.00
N6     N     0.67023   0.76152   0.20562   0.01267  Uiso   1.00
N7     N     0.37327   0.50966   0.10905   0.01267  Uiso   1.00
N8     N     0.90871   0.23848   0.29438   0.01267  Uiso   1.00
O1     O     0.85955   0.56998   0.58650   0.01267  Uiso   1.00
O2     O     0.84421   0.76220   0.59541   0.01267  Uiso   1.00
O3     O     0.18237   0.76166   0.56003   0.01267  Uiso   1.00
O4     O     0.39064   0.83164   0.62329   0.01267  Uiso   1.00
O5     O     0.28957   0.43002   0.91350   0.01267  Uiso   1.00
O6     O     0.08201   0.23780   0.90459   0.01267  Uiso   1.00
O7     O     0.42071   0.23834   0.93997   0.01267  Uiso   1.00
O8     O     0.55900   0.16836   0.87671   0.01267  Uiso   1.00
O9     O     0.14045   0.43002   0.41350   0.01267  Uiso   1.00
O10    O     0.15579   0.23780   0.40459   0.01267  Uiso   1.00
O11    O     0.81763   0.23834   0.43997   0.01267  Uiso   1.00
O12    O     0.60936   0.16836   0.37671   0.01267  Uiso   1.00
O13    O     0.71043   0.56998   0.08650   0.01267  Uiso   1.00
O14    O     0.91799   0.76220   0.09541   0.01267  Uiso   1.00
O15    O     0.57929   0.76166   0.06003   0.01267  Uiso   1.00
O16    O     0.44100   0.83164   0.12329   0.01267  Uiso   1.00
