data_image0
_cell_length_a       20.772
_cell_length_b       20.772
_cell_length_c       21.053
_cell_angle_alpha    90
_cell_angle_beta     90
_cell_angle_gamma    120

_symmetry_space_group_name_H-M    "P 1"
_symmetry_int_tables_number       1

loop_
  _symmetry_equiv_pos_as_xyz
  'x, y, z'

loop_
  _atom_site_label
  _atom_site_occupancy
  _atom_site_fract_x
  _atom_site_fract_y
  _atom_site_fract_z
  _atom_site_thermal_displace_type
  _atom_site_B_iso_or_equiv
  _atom_site_type_symbol
  O1       1.0000 0.73180  0.46960  0.31810  Biso   1.000  O
  O2       1.0000 0.60770  0.41090  0.31640  Biso   1.000  O
  C1       1.0000 0.66880  0.45530  0.33840  Biso   1.000  C
  C2       1.0000 0.67310  0.50150  0.39390  Biso   1.000  C
  C3       1.0000 0.60580  0.48720  0.42190  Biso   1.000  C
  H1       1.0000 0.56080  0.44960  0.40360  Biso   1.000  H
  N1       1.0000 0.60120  0.52350  0.47290  Biso   1.000  N
  C4       1.0000 0.66650  0.57480  0.49930  Biso   1.000  C
  H2       1.0000 0.66420  0.60250  0.53420  Biso   1.000  H
  C5       1.0000 0.73650  0.58990  0.47950  Biso   1.000  C
  H3       1.0000 0.78020  0.62280  0.50230  Biso   1.000  H
  C6       1.0000 0.73940  0.55420  0.42410  Biso   1.000  C
  H4       1.0000 0.78610  0.56550  0.40680  Biso   1.000  H
  O3       1.0000 0.53040  0.26220  0.31810  Biso   1.000  O
  O4       1.0000 0.58910  0.19680  0.31640  Biso   1.000  O
  C7       1.0000 0.54470  0.21350  0.33840  Biso   1.000  C
  C8       1.0000 0.49850  0.17160  0.39390  Biso   1.000  C
  C9       1.0000 0.51280  0.11860  0.42190  Biso   1.000  C
  H5       1.0000 0.55040  0.11120  0.40360  Biso   1.000  H
  N2       1.0000 0.47650  0.07770  0.47290  Biso   1.000  N
  C10      1.0000 0.42520  0.09170  0.49930  Biso   1.000  C
  H6       1.0000 0.39750  0.06170  0.53420  Biso   1.000  H
  C11      1.0000 0.41010  0.14660  0.47950  Biso   1.000  C
  H7       1.0000 0.37720  0.15740  0.50230  Biso   1.000  H
  C12      1.0000 0.44580  0.18520  0.42410  Biso   1.000  C
  H8       1.0000 0.43450  0.22060  0.40680  Biso   1.000  H
  O5       1.0000 0.73780  0.26820  0.31810  Biso   1.000  O
  O6       1.0000 0.80320  0.39230  0.31640  Biso   1.000  O
  C13      1.0000 0.78650  0.33120  0.33840  Biso   1.000  C
  C14      1.0000 0.82840  0.32690  0.39390  Biso   1.000  C
  C15      1.0000 0.88140  0.39420  0.42190  Biso   1.000  C
  H9       1.0000 0.88880  0.43920  0.40360  Biso   1.000  H
  N3       1.0000 0.92230  0.39880  0.47290  Biso   1.000  N
  C16      1.0000 0.90830  0.33350  0.49930  Biso   1.000  C
  H10      1.0000 0.93830  0.33580  0.53420  Biso   1.000  H
  C17      1.0000 0.85340  0.26350  0.47950  Biso   1.000  C
  H11      1.0000 0.84260  0.21980  0.50230  Biso   1.000  H
  C18      1.0000 0.81480  0.26060  0.42410  Biso   1.000  C
  H12      1.0000 0.77940  0.21390  0.40680  Biso   1.000  H
  O7       1.0000 0.26820  0.53040  0.81810  Biso   1.000  O
  O8       1.0000 0.39230  0.58910  0.81640  Biso   1.000  O
  C19      1.0000 0.33120  0.54470  0.83840  Biso   1.000  C
  C20      1.0000 0.32690  0.49850  0.89390  Biso   1.000  C
  C21      1.0000 0.39420  0.51280  0.92190  Biso   1.000  C
  H13      1.0000 0.43920  0.55040  0.90360  Biso   1.000  H
  N4       1.0000 0.39880  0.47650  0.97290  Biso   1.000  N
  C22      1.0000 0.33350  0.42520  0.99930  Biso   1.000  C
  H14      1.0000 0.33580  0.39750  0.03420  Biso   1.000  H
  C23      1.0000 0.26350  0.41010  0.97950  Biso   1.000  C
  H15      1.0000 0.21980  0.37720  0.00230  Biso   1.000  H
  C24      1.0000 0.26060  0.44580  0.92410  Biso   1.000  C
  H16      1.0000 0.21390  0.43450  0.90680  Biso   1.000  H
  O9       1.0000 0.46960  0.73780  0.81810  Biso   1.000  O
  O10      1.0000 0.41090  0.80320  0.81640  Biso   1.000  O
  C25      1.0000 0.45530  0.78650  0.83840  Biso   1.000  C
  C26      1.0000 0.50150  0.82840  0.89390  Biso   1.000  C
  C27      1.0000 0.48720  0.88140  0.92190  Biso   1.000  C
  H17      1.0000 0.44960  0.88880  0.90360  Biso   1.000  H
  N5       1.0000 0.52350  0.92230  0.97290  Biso   1.000  N
  C28      1.0000 0.57480  0.90830  0.99930  Biso   1.000  C
  H18      1.0000 0.60250  0.93830  0.03420  Biso   1.000  H
  C29      1.0000 0.58990  0.85340  0.97950  Biso   1.000  C
  H19      1.0000 0.62280  0.84260  0.00230  Biso   1.000  H
  C30      1.0000 0.55420  0.81480  0.92410  Biso   1.000  C
  H20      1.0000 0.56550  0.77940  0.90680  Biso   1.000  H
  O11      1.0000 0.26220  0.73180  0.81810  Biso   1.000  O
  O12      1.0000 0.19680  0.60770  0.81640  Biso   1.000  O
  C31      1.0000 0.21350  0.66880  0.83840  Biso   1.000  C
  C32      1.0000 0.17160  0.67310  0.89390  Biso   1.000  C
  C33      1.0000 0.11860  0.60580  0.92190  Biso   1.000  C
  H21      1.0000 0.11120  0.56080  0.90360  Biso   1.000  H
  N6       1.0000 0.07770  0.60120  0.97290  Biso   1.000  N
  C34      1.0000 0.09170  0.66650  0.99930  Biso   1.000  C
  H22      1.0000 0.06170  0.66420  0.03420  Biso   1.000  H
  C35      1.0000 0.14660  0.73650  0.97950  Biso   1.000  C
  H23      1.0000 0.15740  0.78020  0.00230  Biso   1.000  H
  C36      1.0000 0.18520  0.73940  0.92410  Biso   1.000  C
  H24      1.0000 0.22060  0.78610  0.90680  Biso   1.000  H
  O13      1.0000 0.26820  0.53040  0.68190  Biso   1.000  O
  O14      1.0000 0.39230  0.58910  0.68360  Biso   1.000  O
  C37      1.0000 0.33120  0.54470  0.66160  Biso   1.000  C
  C38      1.0000 0.32690  0.49850  0.60610  Biso   1.000  C
  C39      1.0000 0.39420  0.51280  0.57810  Biso   1.000  C
  H25      1.0000 0.43920  0.55040  0.59640  Biso   1.000  H
  N7       1.0000 0.39880  0.47650  0.52710  Biso   1.000  N
  C40      1.0000 0.33350  0.42520  0.50070  Biso   1.000  C
  H26      1.0000 0.33580  0.39750  0.46580  Biso   1.000  H
  C41      1.0000 0.26350  0.41010  0.52050  Biso   1.000  C
  H27      1.0000 0.21980  0.37720  0.49770  Biso   1.000  H
  C42      1.0000 0.26060  0.44580  0.57590  Biso   1.000  C
  H28      1.0000 0.21390  0.43450  0.59320  Biso   1.000  H
  O15      1.0000 0.46960  0.73780  0.68190  Biso   1.000  O
  O16      1.0000 0.41090  0.80320  0.68360  Biso   1.000  O
  C43      1.0000 0.45530  0.78650  0.66160  Biso   1.000  C
  C44      1.0000 0.50150  0.82840  0.60610  Biso   1.000  C
  C45      1.0000 0.48720  0.88140  0.57810  Biso   1.000  C
  H29      1.0000 0.44960  0.88880  0.59640  Biso   1.000  H
  N8       1.0000 0.52350  0.92230  0.52710  Biso   1.000  N
  C46      1.0000 0.57480  0.90830  0.50070  Biso   1.000  C
  H30      1.0000 0.60250  0.93830  0.46580  Biso   1.000  H
  C47      1.0000 0.58990  0.85340  0.52050  Biso   1.000  C
  H31      1.0000 0.62280  0.84260  0.49770  Biso   1.000  H
  C48      1.0000 0.55420  0.81480  0.57590  Biso   1.000  C
  H32      1.0000 0.56550  0.77940  0.59320  Biso   1.000  H
  O17      1.0000 0.26220  0.73180  0.68190  Biso   1.000  O
  O18      1.0000 0.19680  0.60770  0.68360  Biso   1.000  O
  C49      1.0000 0.21350  0.66880  0.66160  Biso   1.000  C
  C50      1.0000 0.17160  0.67310  0.60610  Biso   1.000  C
  C51      1.0000 0.11860  0.60580  0.57810  Biso   1.000  C
  H33      1.0000 0.11120  0.56080  0.59640  Biso   1.000  H
  N9       1.0000 0.07770  0.60120  0.52710  Biso   1.000  N
  C52      1.0000 0.09170  0.66650  0.50070  Biso   1.000  C
  H34      1.0000 0.06170  0.66420  0.46580  Biso   1.000  H
  C53      1.0000 0.14660  0.73650  0.52050  Biso   1.000  C
  H35      1.0000 0.15740  0.78020  0.49770  Biso   1.000  H
  C54      1.0000 0.18520  0.73940  0.57590  Biso   1.000  C
  H36      1.0000 0.22060  0.78610  0.59320  Biso   1.000  H
  O19      1.0000 0.73180  0.46960  0.18190  Biso   1.000  O
  O20      1.0000 0.60770  0.41090  0.18360  Biso   1.000  O
  C55      1.0000 0.66880  0.45530  0.16160  Biso   1.000  C
  C56      1.0000 0.67310  0.50150  0.10610  Biso   1.000  C
  C57      1.0000 0.60580  0.48720  0.07810  Biso   1.000  C
  H37      1.0000 0.56080  0.44960  0.09640  Biso   1.000  H
  N10      1.0000 0.60120  0.52350  0.02710  Biso   1.000  N
  C58      1.0000 0.66650  0.57480  0.00070  Biso   1.000  C
  H38      1.0000 0.66420  0.60250  0.96580  Biso   1.000  H
  C59      1.0000 0.73650  0.58990  0.02050  Biso   1.000  C
  H39      1.0000 0.78020  0.62280  0.99770  Biso   1.000  H
  C60      1.0000 0.73940  0.55420  0.07590  Biso   1.000  C
  H40      1.0000 0.78610  0.56550  0.09320  Biso   1.000  H
  O21      1.0000 0.53040  0.26220  0.18190  Biso   1.000  O
  O22      1.0000 0.58910  0.19680  0.18360  Biso   1.000  O
  C61      1.0000 0.54470  0.21350  0.16160  Biso   1.000  C
  C62      1.0000 0.49850  0.17160  0.10610  Biso   1.000  C
  C63      1.0000 0.51280  0.11860  0.07810  Biso   1.000  C
  H41      1.0000 0.55040  0.11120  0.09640  Biso   1.000  H
  N11      1.0000 0.47650  0.07770  0.02710  Biso   1.000  N
  C64      1.0000 0.42520  0.09170  0.00070  Biso   1.000  C
  H42      1.0000 0.39750  0.06170  0.96580  Biso   1.000  H
  C65      1.0000 0.41010  0.14660  0.02050  Biso   1.000  C
  H43      1.0000 0.37720  0.15740  0.99770  Biso   1.000  H
  C66      1.0000 0.44580  0.18520  0.07590  Biso   1.000  C
  H44      1.0000 0.43450  0.22060  0.09320  Biso   1.000  H
  O23      1.0000 0.73780  0.26820  0.18190  Biso   1.000  O
  O24      1.0000 0.80320  0.39230  0.18360  Biso   1.000  O
  C67      1.0000 0.78650  0.33120  0.16160  Biso   1.000  C
  C68      1.0000 0.82840  0.32690  0.10610  Biso   1.000  C
  C69      1.0000 0.88140  0.39420  0.07810  Biso   1.000  C
  H45      1.0000 0.88880  0.43920  0.09640  Biso   1.000  H
  N12      1.0000 0.92230  0.39880  0.02710  Biso   1.000  N
  C70      1.0000 0.90830  0.33350  0.00070  Biso   1.000  C
  H46      1.0000 0.93830  0.33580  0.96580  Biso   1.000  H
  C71      1.0000 0.85340  0.26350  0.02050  Biso   1.000  C
  H47      1.0000 0.84260  0.21980  0.99770  Biso   1.000  H
  C72      1.0000 0.81480  0.26060  0.07590  Biso   1.000  C
  H48      1.0000 0.77940  0.21390  0.09320  Biso   1.000  H
  Cr1      1.0000 0.75976  0.42354  0.25000  Biso   1.000  Cr
  Cr2      1.0000 0.57646  0.33622  0.25000  Biso   1.000  Cr
  Cr3      1.0000 0.66378  0.24024  0.25000  Biso   1.000  Cr
  Cr4      1.0000 0.24024  0.57646  0.75000  Biso   1.000  Cr
  Cr5      1.0000 0.42354  0.66378  0.75000  Biso   1.000  Cr
  Cr6      1.0000 0.33622  0.75976  0.75000  Biso   1.000  Cr
  O25      1.0000 0.66667  0.33333  0.25000  Biso   1.000  O
  O26      1.0000 0.33333  0.66667  0.75000  Biso   1.000  O
  Cu1      1.0000 0.50000  0.50000  0.50000  Biso   1.000  Cu
  Cu2      1.0000 0.50000  0.00000  0.50000  Biso   1.000  Cu
  Cu3      1.0000 0.00000  0.50000  0.50000  Biso   1.000  Cu
  Cu4      1.0000 0.50000  0.50000  0.00000  Biso   1.000  Cu
  Cu5      1.0000 0.50000  0.00000  0.00000  Biso   1.000  Cu
  Cu6      1.0000 0.00000  0.50000  0.00000  Biso   1.000  Cu
