data_image0
_cell_length_a       22.045
_cell_length_b       22.045
_cell_length_c       21.768
_cell_angle_alpha    90
_cell_angle_beta     90
_cell_angle_gamma    120

_symmetry_space_group_name_H-M    "P 1"
_symmetry_int_tables_number       1

loop_
  _symmetry_equiv_pos_as_xyz
  'x, y, z'

loop_
  _atom_site_label
  _atom_site_occupancy
  _atom_site_fract_x
  _atom_site_fract_y
  _atom_site_fract_z
  _atom_site_thermal_displace_type
  _atom_site_B_iso_or_equiv
  _atom_site_type_symbol
  O1       1.0000 0.59406  0.20389  0.18512  Biso   1.000  O
  O2       1.0000 0.53641  0.26370  0.18580  Biso   1.000  O
  C1       1.0000 0.54860  0.21710  0.16620  Biso   1.000  C
  C2       1.0000 0.50360  0.17360  0.11390  Biso   1.000  C
  C3       1.0000 0.51720  0.12600  0.08570  Biso   1.000  C
  H1       1.0000 0.55570  0.12190  0.09990  Biso   1.000  H
  N1       1.0000 0.47830  0.08460  0.03870  Biso   1.000  N
  C4       1.0000 0.42290  0.09070  0.02120  Biso   1.000  C
  H2       1.0000 0.39390  0.06110  0.98920  Biso   1.000  H
  C5       1.0000 0.40580  0.13710  0.04670  Biso   1.000  C
  H3       1.0000 0.36670  0.13990  0.03190  Biso   1.000  H
  C6       1.0000 0.44650  0.17990  0.09450  Biso   1.000  C
  H4       1.0000 0.43580  0.21230  0.11340  Biso   1.000  H
  O3       1.0000 0.79611  0.39017  0.18512  Biso   1.000  O
  O4       1.0000 0.73630  0.27271  0.18580  Biso   1.000  O
  C7       1.0000 0.78290  0.33150  0.16620  Biso   1.000  C
  C8       1.0000 0.82640  0.33000  0.11390  Biso   1.000  C
  C9       1.0000 0.87400  0.39120  0.08570  Biso   1.000  C
  H5       1.0000 0.87810  0.43380  0.09990  Biso   1.000  H
  N2       1.0000 0.91540  0.39370  0.03870  Biso   1.000  N
  C10      1.0000 0.90930  0.33220  0.02120  Biso   1.000  C
  H6       1.0000 0.93890  0.33280  0.98920  Biso   1.000  H
  C11      1.0000 0.86290  0.26870  0.04670  Biso   1.000  C
  H7       1.0000 0.86010  0.22680  0.03190  Biso   1.000  H
  C12      1.0000 0.82010  0.26660  0.09450  Biso   1.000  C
  H8       1.0000 0.78770  0.22350  0.11340  Biso   1.000  H
  O5       1.0000 0.60983  0.40594  0.18512  Biso   1.000  O
  O6       1.0000 0.72729  0.46359  0.18580  Biso   1.000  O
  C13      1.0000 0.66850  0.45140  0.16620  Biso   1.000  C
  C14      1.0000 0.67000  0.49640  0.11390  Biso   1.000  C
  C15      1.0000 0.60880  0.48280  0.08570  Biso   1.000  C
  H9       1.0000 0.56620  0.44430  0.09990  Biso   1.000  H
  N3       1.0000 0.60630  0.52170  0.03870  Biso   1.000  N
  C16      1.0000 0.66780  0.57710  0.02120  Biso   1.000  C
  H10      1.0000 0.66720  0.60610  0.98920  Biso   1.000  H
  C17      1.0000 0.73130  0.59420  0.04670  Biso   1.000  C
  H11      1.0000 0.77320  0.63330  0.03190  Biso   1.000  H
  C18      1.0000 0.73340  0.55350  0.09450  Biso   1.000  C
  H12      1.0000 0.77650  0.56420  0.11340  Biso   1.000  H
  O7       1.0000 0.40594  0.79611  0.68512  Biso   1.000  O
  O8       1.0000 0.46359  0.73630  0.68580  Biso   1.000  O
  C19      1.0000 0.45140  0.78290  0.66620  Biso   1.000  C
  C20      1.0000 0.49640  0.82640  0.61390  Biso   1.000  C
  C21      1.0000 0.48280  0.87400  0.58570  Biso   1.000  C
  H13      1.0000 0.44430  0.87810  0.59990  Biso   1.000  H
  N4       1.0000 0.52170  0.91540  0.53870  Biso   1.000  N
  C22      1.0000 0.57710  0.90930  0.52120  Biso   1.000  C
  H14      1.0000 0.60610  0.93890  0.48920  Biso   1.000  H
  C23      1.0000 0.59420  0.86290  0.54670  Biso   1.000  C
  H15      1.0000 0.63330  0.86010  0.53190  Biso   1.000  H
  C24      1.0000 0.55350  0.82010  0.59450  Biso   1.000  C
  H16      1.0000 0.56420  0.78770  0.61340  Biso   1.000  H
  O9       1.0000 0.20389  0.60983  0.68512  Biso   1.000  O
  O10      1.0000 0.26370  0.72729  0.68580  Biso   1.000  O
  C25      1.0000 0.21710  0.66850  0.66620  Biso   1.000  C
  C26      1.0000 0.17360  0.67000  0.61390  Biso   1.000  C
  C27      1.0000 0.12600  0.60880  0.58570  Biso   1.000  C
  H17      1.0000 0.12190  0.56620  0.59990  Biso   1.000  H
  N5       1.0000 0.08460  0.60630  0.53870  Biso   1.000  N
  C28      1.0000 0.09070  0.66780  0.52120  Biso   1.000  C
  H18      1.0000 0.06110  0.66720  0.48920  Biso   1.000  H
  C29      1.0000 0.13710  0.73130  0.54670  Biso   1.000  C
  H19      1.0000 0.13990  0.77320  0.53190  Biso   1.000  H
  C30      1.0000 0.17990  0.73340  0.59450  Biso   1.000  C
  H20      1.0000 0.21230  0.77650  0.61340  Biso   1.000  H
  O11      1.0000 0.39017  0.59406  0.68512  Biso   1.000  O
  O12      1.0000 0.27271  0.53641  0.68580  Biso   1.000  O
  C31      1.0000 0.33150  0.54860  0.66620  Biso   1.000  C
  C32      1.0000 0.33000  0.50360  0.61390  Biso   1.000  C
  C33      1.0000 0.39120  0.51720  0.58570  Biso   1.000  C
  H21      1.0000 0.43380  0.55570  0.59990  Biso   1.000  H
  N6       1.0000 0.39370  0.47830  0.53870  Biso   1.000  N
  C34      1.0000 0.33220  0.42290  0.52120  Biso   1.000  C
  H22      1.0000 0.33280  0.39390  0.48920  Biso   1.000  H
  C35      1.0000 0.26870  0.40580  0.54670  Biso   1.000  C
  H23      1.0000 0.22680  0.36670  0.53190  Biso   1.000  H
  C36      1.0000 0.26660  0.44650  0.59450  Biso   1.000  C
  H24      1.0000 0.22350  0.43580  0.61340  Biso   1.000  H
  O13      1.0000 0.20389  0.59406  0.31488  Biso   1.000  O
  O14      1.0000 0.26370  0.53641  0.31420  Biso   1.000  O
  C37      1.0000 0.21710  0.54860  0.33380  Biso   1.000  C
  C38      1.0000 0.17360  0.50360  0.38610  Biso   1.000  C
  C39      1.0000 0.12600  0.51720  0.41430  Biso   1.000  C
  H25      1.0000 0.12190  0.55570  0.40010  Biso   1.000  H
  N7       1.0000 0.08460  0.47830  0.46130  Biso   1.000  N
  C40      1.0000 0.09070  0.42290  0.47880  Biso   1.000  C
  H26      1.0000 0.06110  0.39390  0.51080  Biso   1.000  H
  C41      1.0000 0.13710  0.40580  0.45330  Biso   1.000  C
  H27      1.0000 0.13990  0.36670  0.46810  Biso   1.000  H
  C42      1.0000 0.17990  0.44650  0.40550  Biso   1.000  C
  H28      1.0000 0.21230  0.43580  0.38660  Biso   1.000  H
  O15      1.0000 0.39017  0.79611  0.31488  Biso   1.000  O
  O16      1.0000 0.27271  0.73630  0.31420  Biso   1.000  O
  C43      1.0000 0.33150  0.78290  0.33380  Biso   1.000  C
  C44      1.0000 0.33000  0.82640  0.38610  Biso   1.000  C
  C45      1.0000 0.39120  0.87400  0.41430  Biso   1.000  C
  H29      1.0000 0.43380  0.87810  0.40010  Biso   1.000  H
  N8       1.0000 0.39370  0.91540  0.46130  Biso   1.000  N
  C46      1.0000 0.33220  0.90930  0.47880  Biso   1.000  C
  H30      1.0000 0.33280  0.93890  0.51080  Biso   1.000  H
  C47      1.0000 0.26870  0.86290  0.45330  Biso   1.000  C
  H31      1.0000 0.22680  0.86010  0.46810  Biso   1.000  H
  C48      1.0000 0.26660  0.82010  0.40550  Biso   1.000  C
  H32      1.0000 0.22350  0.78770  0.38660  Biso   1.000  H
  O17      1.0000 0.40594  0.60983  0.31488  Biso   1.000  O
  O18      1.0000 0.46359  0.72729  0.31420  Biso   1.000  O
  C49      1.0000 0.45140  0.66850  0.33380  Biso   1.000  C
  C50      1.0000 0.49640  0.67000  0.38610  Biso   1.000  C
  C51      1.0000 0.48280  0.60880  0.41430  Biso   1.000  C
  H33      1.0000 0.44430  0.56620  0.40010  Biso   1.000  H
  N9       1.0000 0.52170  0.60630  0.46130  Biso   1.000  N
  C52      1.0000 0.57710  0.66780  0.47880  Biso   1.000  C
  H34      1.0000 0.60610  0.66720  0.51080  Biso   1.000  H
  C53      1.0000 0.59420  0.73130  0.45330  Biso   1.000  C
  H35      1.0000 0.63330  0.77320  0.46810  Biso   1.000  H
  C54      1.0000 0.55350  0.73340  0.40550  Biso   1.000  C
  H36      1.0000 0.56420  0.77650  0.38660  Biso   1.000  H
  O19      1.0000 0.79611  0.40594  0.81488  Biso   1.000  O
  O20      1.0000 0.73630  0.46359  0.81420  Biso   1.000  O
  C55      1.0000 0.78290  0.45140  0.83380  Biso   1.000  C
  C56      1.0000 0.82640  0.49640  0.88610  Biso   1.000  C
  C57      1.0000 0.87400  0.48280  0.91430  Biso   1.000  C
  H37      1.0000 0.87810  0.44430  0.90010  Biso   1.000  H
  N10      1.0000 0.91540  0.52170  0.96130  Biso   1.000  N
  C58      1.0000 0.90930  0.57710  0.97880  Biso   1.000  C
  H38      1.0000 0.93890  0.60610  0.01080  Biso   1.000  H
  C59      1.0000 0.86290  0.59420  0.95330  Biso   1.000  C
  H39      1.0000 0.86010  0.63330  0.96810  Biso   1.000  H
  C60      1.0000 0.82010  0.55350  0.90550  Biso   1.000  C
  H40      1.0000 0.78770  0.56420  0.88660  Biso   1.000  H
  O21      1.0000 0.60983  0.20389  0.81488  Biso   1.000  O
  O22      1.0000 0.72729  0.26370  0.81420  Biso   1.000  O
  C61      1.0000 0.66850  0.21710  0.83380  Biso   1.000  C
  C62      1.0000 0.67000  0.17360  0.88610  Biso   1.000  C
  C63      1.0000 0.60880  0.12600  0.91430  Biso   1.000  C
  H41      1.0000 0.56620  0.12190  0.90010  Biso   1.000  H
  N11      1.0000 0.60630  0.08460  0.96130  Biso   1.000  N
  C64      1.0000 0.66780  0.09070  0.97880  Biso   1.000  C
  H42      1.0000 0.66720  0.06110  0.01080  Biso   1.000  H
  C65      1.0000 0.73130  0.13710  0.95330  Biso   1.000  C
  H43      1.0000 0.77320  0.13990  0.96810  Biso   1.000  H
  C66      1.0000 0.73340  0.17990  0.90550  Biso   1.000  C
  H44      1.0000 0.77650  0.21230  0.88660  Biso   1.000  H
  O23      1.0000 0.59406  0.39017  0.81488  Biso   1.000  O
  O24      1.0000 0.53641  0.27271  0.81420  Biso   1.000  O
  C67      1.0000 0.54860  0.33150  0.83380  Biso   1.000  C
  C68      1.0000 0.50360  0.33000  0.88610  Biso   1.000  C
  C69      1.0000 0.51720  0.39120  0.91430  Biso   1.000  C
  H45      1.0000 0.55570  0.43380  0.90010  Biso   1.000  H
  N12      1.0000 0.47830  0.39370  0.96130  Biso   1.000  N
  C70      1.0000 0.42290  0.33220  0.97880  Biso   1.000  C
  H46      1.0000 0.39390  0.33280  0.01080  Biso   1.000  H
  C71      1.0000 0.40580  0.26870  0.95330  Biso   1.000  C
  H47      1.0000 0.36670  0.22680  0.96810  Biso   1.000  H
  C72      1.0000 0.44650  0.26660  0.90550  Biso   1.000  C
  H48      1.0000 0.43580  0.22350  0.88660  Biso   1.000  H
  O25      1.0000 0.40594  0.79611  0.81488  Biso   1.000  O
  O26      1.0000 0.46359  0.73630  0.81420  Biso   1.000  O
  C73      1.0000 0.45140  0.78290  0.83380  Biso   1.000  C
  C74      1.0000 0.49640  0.82640  0.88610  Biso   1.000  C
  C75      1.0000 0.48280  0.87400  0.91430  Biso   1.000  C
  H49      1.0000 0.44430  0.87810  0.90010  Biso   1.000  H
  N13      1.0000 0.52170  0.91540  0.96130  Biso   1.000  N
  C76      1.0000 0.57710  0.90930  0.97880  Biso   1.000  C
  H50      1.0000 0.60610  0.93890  0.01080  Biso   1.000  H
  C77      1.0000 0.59420  0.86290  0.95330  Biso   1.000  C
  H51      1.0000 0.63330  0.86010  0.96810  Biso   1.000  H
  C78      1.0000 0.55350  0.82010  0.90550  Biso   1.000  C
  H52      1.0000 0.56420  0.78770  0.88660  Biso   1.000  H
  O27      1.0000 0.20389  0.60983  0.81488  Biso   1.000  O
  O28      1.0000 0.26370  0.72729  0.81420  Biso   1.000  O
  C79      1.0000 0.21710  0.66850  0.83380  Biso   1.000  C
  C80      1.0000 0.17360  0.67000  0.88610  Biso   1.000  C
  C81      1.0000 0.12600  0.60880  0.91430  Biso   1.000  C
  H53      1.0000 0.12190  0.56620  0.90010  Biso   1.000  H
  N14      1.0000 0.08460  0.60630  0.96130  Biso   1.000  N
  C82      1.0000 0.09070  0.66780  0.97880  Biso   1.000  C
  H54      1.0000 0.06110  0.66720  0.01080  Biso   1.000  H
  C83      1.0000 0.13710  0.73130  0.95330  Biso   1.000  C
  H55      1.0000 0.13990  0.77320  0.96810  Biso   1.000  H
  C84      1.0000 0.17990  0.73340  0.90550  Biso   1.000  C
  H56      1.0000 0.21230  0.77650  0.88660  Biso   1.000  H
  O29      1.0000 0.39017  0.59406  0.81488  Biso   1.000  O
  O30      1.0000 0.27271  0.53641  0.81420  Biso   1.000  O
  C85      1.0000 0.33150  0.54860  0.83380  Biso   1.000  C
  C86      1.0000 0.33000  0.50360  0.88610  Biso   1.000  C
  C87      1.0000 0.39120  0.51720  0.91430  Biso   1.000  C
  H57      1.0000 0.43380  0.55570  0.90010  Biso   1.000  H
  N15      1.0000 0.39370  0.47830  0.96130  Biso   1.000  N
  C88      1.0000 0.33220  0.42290  0.97880  Biso   1.000  C
  H58      1.0000 0.33280  0.39390  0.01080  Biso   1.000  H
  C89      1.0000 0.26870  0.40580  0.95330  Biso   1.000  C
  H59      1.0000 0.22680  0.36670  0.96810  Biso   1.000  H
  C90      1.0000 0.26660  0.44650  0.90550  Biso   1.000  C
  H60      1.0000 0.22350  0.43580  0.88660  Biso   1.000  H
  O31      1.0000 0.59406  0.20389  0.31488  Biso   1.000  O
  O32      1.0000 0.53641  0.26370  0.31420  Biso   1.000  O
  C91      1.0000 0.54860  0.21710  0.33380  Biso   1.000  C
  C92      1.0000 0.50360  0.17360  0.38610  Biso   1.000  C
  C93      1.0000 0.51720  0.12600  0.41430  Biso   1.000  C
  H61      1.0000 0.55570  0.12190  0.40010  Biso   1.000  H
  N16      1.0000 0.47830  0.08460  0.46130  Biso   1.000  N
  C94      1.0000 0.42290  0.09070  0.47880  Biso   1.000  C
  H62      1.0000 0.39390  0.06110  0.51080  Biso   1.000  H
  C95      1.0000 0.40580  0.13710  0.45330  Biso   1.000  C
  H63      1.0000 0.36670  0.13990  0.46810  Biso   1.000  H
  C96      1.0000 0.44650  0.17990  0.40550  Biso   1.000  C
  H64      1.0000 0.43580  0.21230  0.38660  Biso   1.000  H
  O33      1.0000 0.79611  0.39017  0.31488  Biso   1.000  O
  O34      1.0000 0.73630  0.27271  0.31420  Biso   1.000  O
  C97      1.0000 0.78290  0.33150  0.33380  Biso   1.000  C
  C98      1.0000 0.82640  0.33000  0.38610  Biso   1.000  C
  C99      1.0000 0.87400  0.39120  0.41430  Biso   1.000  C
  H65      1.0000 0.87810  0.43380  0.40010  Biso   1.000  H
  N17      1.0000 0.91540  0.39370  0.46130  Biso   1.000  N
  C100     1.0000 0.90930  0.33220  0.47880  Biso   1.000  C
  H66      1.0000 0.93890  0.33280  0.51080  Biso   1.000  H
  C101     1.0000 0.86290  0.26870  0.45330  Biso   1.000  C
  H67      1.0000 0.86010  0.22680  0.46810  Biso   1.000  H
  C102     1.0000 0.82010  0.26660  0.40550  Biso   1.000  C
  H68      1.0000 0.78770  0.22350  0.38660  Biso   1.000  H
  O35      1.0000 0.60983  0.40594  0.31488  Biso   1.000  O
  O36      1.0000 0.72729  0.46359  0.31420  Biso   1.000  O
  C103     1.0000 0.66850  0.45140  0.33380  Biso   1.000  C
  C104     1.0000 0.67000  0.49640  0.38610  Biso   1.000  C
  C105     1.0000 0.60880  0.48280  0.41430  Biso   1.000  C
  H69      1.0000 0.56620  0.44430  0.40010  Biso   1.000  H
  N18      1.0000 0.60630  0.52170  0.46130  Biso   1.000  N
  C106     1.0000 0.66780  0.57710  0.47880  Biso   1.000  C
  H70      1.0000 0.66720  0.60610  0.51080  Biso   1.000  H
  C107     1.0000 0.73130  0.59420  0.45330  Biso   1.000  C
  H71      1.0000 0.77320  0.63330  0.46810  Biso   1.000  H
  C108     1.0000 0.73340  0.55350  0.40550  Biso   1.000  C
  H72      1.0000 0.77650  0.56420  0.38660  Biso   1.000  H
  O37      1.0000 0.79611  0.40594  0.68512  Biso   1.000  O
  O38      1.0000 0.73630  0.46359  0.68580  Biso   1.000  O
  C109     1.0000 0.78290  0.45140  0.66620  Biso   1.000  C
  C110     1.0000 0.82640  0.49640  0.61390  Biso   1.000  C
  C111     1.0000 0.87400  0.48280  0.58570  Biso   1.000  C
  H73      1.0000 0.87810  0.44430  0.59990  Biso   1.000  H
  N19      1.0000 0.91540  0.52170  0.53870  Biso   1.000  N
  C112     1.0000 0.90930  0.57710  0.52120  Biso   1.000  C
  H74      1.0000 0.93890  0.60610  0.48920  Biso   1.000  H
  C113     1.0000 0.86290  0.59420  0.54670  Biso   1.000  C
  H75      1.0000 0.86010  0.63330  0.53190  Biso   1.000  H
  C114     1.0000 0.82010  0.55350  0.59450  Biso   1.000  C
  H76      1.0000 0.78770  0.56420  0.61340  Biso   1.000  H
  O39      1.0000 0.60983  0.20389  0.68512  Biso   1.000  O
  O40      1.0000 0.72729  0.26370  0.68580  Biso   1.000  O
  C115     1.0000 0.66850  0.21710  0.66620  Biso   1.000  C
  C116     1.0000 0.67000  0.17360  0.61390  Biso   1.000  C
  C117     1.0000 0.60880  0.12600  0.58570  Biso   1.000  C
  H77      1.0000 0.56620  0.12190  0.59990  Biso   1.000  H
  N20      1.0000 0.60630  0.08460  0.53870  Biso   1.000  N
  C118     1.0000 0.66780  0.09070  0.52120  Biso   1.000  C
  H78      1.0000 0.66720  0.06110  0.48920  Biso   1.000  H
  C119     1.0000 0.73130  0.13710  0.54670  Biso   1.000  C
  H79      1.0000 0.77320  0.13990  0.53190  Biso   1.000  H
  C120     1.0000 0.73340  0.17990  0.59450  Biso   1.000  C
  H80      1.0000 0.77650  0.21230  0.61340  Biso   1.000  H
  O41      1.0000 0.59406  0.39017  0.68512  Biso   1.000  O
  O42      1.0000 0.53641  0.27271  0.68580  Biso   1.000  O
  C121     1.0000 0.54860  0.33150  0.66620  Biso   1.000  C
  C122     1.0000 0.50360  0.33000  0.61390  Biso   1.000  C
  C123     1.0000 0.51720  0.39120  0.58570  Biso   1.000  C
  H81      1.0000 0.55570  0.43380  0.59990  Biso   1.000  H
  N21      1.0000 0.47830  0.39370  0.53870  Biso   1.000  N
  C124     1.0000 0.42290  0.33220  0.52120  Biso   1.000  C
  H82      1.0000 0.39390  0.33280  0.48920  Biso   1.000  H
  C125     1.0000 0.40580  0.26870  0.54670  Biso   1.000  C
  H83      1.0000 0.36670  0.22680  0.53190  Biso   1.000  H
  C126     1.0000 0.44650  0.26660  0.59450  Biso   1.000  C
  H84      1.0000 0.43580  0.22350  0.61340  Biso   1.000  H
  O43      1.0000 0.20389  0.59406  0.18512  Biso   1.000  O
  O44      1.0000 0.26370  0.53641  0.18580  Biso   1.000  O
  C127     1.0000 0.21710  0.54860  0.16620  Biso   1.000  C
  C128     1.0000 0.17360  0.50360  0.11390  Biso   1.000  C
  C129     1.0000 0.12600  0.51720  0.08570  Biso   1.000  C
  H85      1.0000 0.12190  0.55570  0.09990  Biso   1.000  H
  N22      1.0000 0.08460  0.47830  0.03870  Biso   1.000  N
  C130     1.0000 0.09070  0.42290  0.02120  Biso   1.000  C
  H86      1.0000 0.06110  0.39390  0.98920  Biso   1.000  H
  C131     1.0000 0.13710  0.40580  0.04670  Biso   1.000  C
  H87      1.0000 0.13990  0.36670  0.03190  Biso   1.000  H
  C132     1.0000 0.17990  0.44650  0.09450  Biso   1.000  C
  H88      1.0000 0.21230  0.43580  0.11340  Biso   1.000  H
  O45      1.0000 0.39017  0.79611  0.18512  Biso   1.000  O
  O46      1.0000 0.27271  0.73630  0.18580  Biso   1.000  O
  C133     1.0000 0.33150  0.78290  0.16620  Biso   1.000  C
  C134     1.0000 0.33000  0.82640  0.11390  Biso   1.000  C
  C135     1.0000 0.39120  0.87400  0.08570  Biso   1.000  C
  H89      1.0000 0.43380  0.87810  0.09990  Biso   1.000  H
  N23      1.0000 0.39370  0.91540  0.03870  Biso   1.000  N
  C136     1.0000 0.33220  0.90930  0.02120  Biso   1.000  C
  H90      1.0000 0.33280  0.93890  0.98920  Biso   1.000  H
  C137     1.0000 0.26870  0.86290  0.04670  Biso   1.000  C
  H91      1.0000 0.22680  0.86010  0.03190  Biso   1.000  H
  C138     1.0000 0.26660  0.82010  0.09450  Biso   1.000  C
  H92      1.0000 0.22350  0.78770  0.11340  Biso   1.000  H
  O47      1.0000 0.40594  0.60983  0.18512  Biso   1.000  O
  O48      1.0000 0.46359  0.72729  0.18580  Biso   1.000  O
  C139     1.0000 0.45140  0.66850  0.16620  Biso   1.000  C
  C140     1.0000 0.49640  0.67000  0.11390  Biso   1.000  C
  C141     1.0000 0.48280  0.60880  0.08570  Biso   1.000  C
  H93      1.0000 0.44430  0.56620  0.09990  Biso   1.000  H
  N24      1.0000 0.52170  0.60630  0.03870  Biso   1.000  N
  C142     1.0000 0.57710  0.66780  0.02120  Biso   1.000  C
  H94      1.0000 0.60610  0.66720  0.98920  Biso   1.000  H
  C143     1.0000 0.59420  0.73130  0.04670  Biso   1.000  C
  H95      1.0000 0.63330  0.77320  0.03190  Biso   1.000  H
  C144     1.0000 0.55350  0.73340  0.09450  Biso   1.000  C
  H96      1.0000 0.56420  0.77650  0.11340  Biso   1.000  H
  Mn1      1.0000 0.50000  0.00000  0.00000  Biso   1.000  Mn
  Mn2      1.0000 0.00000  0.50000  0.00000  Biso   1.000  Mn
  Mn3      1.0000 0.50000  0.50000  0.00000  Biso   1.000  Mn
  Mn4      1.0000 0.50000  0.00000  0.50000  Biso   1.000  Mn
  Mn5      1.0000 0.00000  0.50000  0.50000  Biso   1.000  Mn
  Mn6      1.0000 0.50000  0.50000  0.50000  Biso   1.000  Mn
  Cl1      1.0000 0.55939  0.00000  0.09714  Biso   1.000  Cl
  Cl2      1.0000 0.00000  0.55939  0.09714  Biso   1.000  Cl
  Cl3      1.0000 0.44061  0.44061  0.09714  Biso   1.000  Cl
  Cl4      1.0000 0.44061  0.00000  0.59714  Biso   1.000  Cl
  Cl5      1.0000 0.00000  0.44061  0.59714  Biso   1.000  Cl
  Cl6      1.0000 0.55939  0.55939  0.59714  Biso   1.000  Cl
  Cl7      1.0000 0.00000  0.55939  0.40286  Biso   1.000  Cl
  Cl8      1.0000 0.55939  0.00000  0.40286  Biso   1.000  Cl
  Cl9      1.0000 0.44061  0.44061  0.40286  Biso   1.000  Cl
  Cl10     1.0000 0.00000  0.44061  0.90286  Biso   1.000  Cl
  Cl11     1.0000 0.44061  0.00000  0.90286  Biso   1.000  Cl
  Cl12     1.0000 0.55939  0.55939  0.90286  Biso   1.000  Cl
  Cr1      1.0000 0.66517  0.24606  0.25000  Biso   1.000  Cr
  Cr2      1.0000 0.75394  0.41911  0.25000  Biso   1.000  Cr
  Cr3      1.0000 0.58089  0.33483  0.25000  Biso   1.000  Cr
  Cr4      1.0000 0.33483  0.75394  0.75000  Biso   1.000  Cr
  Cr5      1.0000 0.24606  0.58089  0.75000  Biso   1.000  Cr
  Cr6      1.0000 0.41911  0.66517  0.75000  Biso   1.000  Cr
  Cr7      1.0000 0.24606  0.66517  0.25000  Biso   1.000  Cr
  Cr8      1.0000 0.41911  0.75394  0.25000  Biso   1.000  Cr
  Cr9      1.0000 0.33483  0.58089  0.25000  Biso   1.000  Cr
  Cr10     1.0000 0.75394  0.33483  0.75000  Biso   1.000  Cr
  Cr11     1.0000 0.58089  0.24606  0.75000  Biso   1.000  Cr
  Cr12     1.0000 0.66517  0.41911  0.75000  Biso   1.000  Cr
  O49      1.0000 0.66667  0.33333  0.25000  Biso   1.000  O
  O50      1.0000 0.33333  0.66667  0.75000  Biso   1.000  O
  O51      1.0000 0.33333  0.66667  0.25000  Biso   1.000  O
  O52      1.0000 0.66667  0.33333  0.75000  Biso   1.000  O
