data_image0
_cell_length_a       20.608
_cell_length_b       20.608
_cell_length_c       22.35
_cell_angle_alpha    90
_cell_angle_beta     90
_cell_angle_gamma    90

_symmetry_space_group_name_H-M    "P 1"
_symmetry_int_tables_number       1

loop_
  _symmetry_equiv_pos_as_xyz
  'x, y, z'

loop_
  _atom_site_label
  _atom_site_occupancy
  _atom_site_fract_x
  _atom_site_fract_y
  _atom_site_fract_z
  _atom_site_thermal_displace_type
  _atom_site_B_iso_or_equiv
  _atom_site_type_symbol
  Cd1      1.0000 0.71886  0.20871  0.11437  Biso   1.000  Cd
  N1       1.0000 0.61340  0.19860  0.14970  Biso   1.000  N
  N2       1.0000 0.81530  0.23990  0.07130  Biso   1.000  N
  N3       1.0000 0.67630  0.21870  0.01660  Biso   1.000  N
  C1       1.0000 0.59790  0.15080  0.18620  Biso   1.000  C
  C2       1.0000 0.56690  0.24160  0.13240  Biso   1.000  C
  H1       1.0000 0.63040  0.12070  0.19800  Biso   1.000  H
  C3       1.0000 0.53460  0.14340  0.20770  Biso   1.000  C
  C4       1.0000 0.50510  0.23790  0.15180  Biso   1.000  C
  H2       1.0000 0.57840  0.27550  0.10570  Biso   1.000  H
  C5       1.0000 0.52030  0.08810  0.24800  Biso   1.000  C
  C6       1.0000 0.48800  0.18710  0.19130  Biso   1.000  C
  H3       1.0000 0.47370  0.26880  0.13910  Biso   1.000  H
  O1       1.0000 0.46320  0.08740  0.27030  Biso   1.000  O
  O2       1.0000 0.56320  0.04810  0.25730  Biso   1.000  O
  H4       1.0000 0.44490  0.18350  0.20610  Biso   1.000  H
  Cr1      1.0000 0.42236  0.01945  0.31920  Biso   1.000  Cr
  O3       1.0000 0.37040  0.95450  0.36170  Biso   1.000  O
  O4       1.0000 0.39580  0.08960  0.37420  Biso   1.000  O
  C7       1.0000 0.37310  0.93900  0.41620  Biso   1.000  C
  C8       1.0000 0.42040  0.11360  0.42100  Biso   1.000  C
  O5       1.0000 0.53630  0.91210  0.45300  Biso   1.000  O
  O6       1.0000 0.41370  0.95880  0.45400  Biso   1.000  O
  C9       1.0000 0.32200  0.89220  0.43730  Biso   1.000  C
  C10      1.0000 0.39540  0.17720  0.44100  Biso   1.000  C
  C11      1.0000 0.32500  0.86710  0.49440  Biso   1.000  C
  C12      1.0000 0.27250  0.87320  0.39980  Biso   1.000  C
  C13      1.0000 0.34290  0.20470  0.41110  Biso   1.000  C
  C14      1.0000 0.42290  0.21030  0.49000  Biso   1.000  C
  H5       1.0000 0.35960  0.88070  0.51960  Biso   1.000  H
  C15      1.0000 0.22590  0.83070  0.42260  Biso   1.000  C
  H6       1.0000 0.27020  0.88850  0.35980  Biso   1.000  H
  H7       1.0000 0.32610  0.18320  0.37680  Biso   1.000  H
  C16      1.0000 0.39330  0.26800  0.50710  Biso   1.000  C
  H8       1.0000 0.46000  0.19400  0.51030  Biso   1.000  H
  C17      1.0000 0.23380  0.80630  0.48030  Biso   1.000  C
  H9       1.0000 0.18940  0.81850  0.39920  Biso   1.000  H
  C18      1.0000 0.34270  0.29160  0.47580  Biso   1.000  C
  H10      1.0000 0.40890  0.29080  0.54110  Biso   1.000  H
  H11      1.0000 0.20320  0.77530  0.49430  Biso   1.000  H
  H12      1.0000 0.32520  0.33240  0.48730  Biso   1.000  H
  Cd2      1.0000 0.28114  0.79129  0.11437  Biso   1.000  Cd
  N4       1.0000 0.38660  0.80140  0.14970  Biso   1.000  N
  N5       1.0000 0.18470  0.76010  0.07130  Biso   1.000  N
  N6       1.0000 0.32370  0.78130  0.01660  Biso   1.000  N
  C19      1.0000 0.40210  0.84920  0.18620  Biso   1.000  C
  C20      1.0000 0.43310  0.75840  0.13240  Biso   1.000  C
  H13      1.0000 0.36960  0.87930  0.19800  Biso   1.000  H
  C21      1.0000 0.46540  0.85660  0.20770  Biso   1.000  C
  C22      1.0000 0.49490  0.76210  0.15180  Biso   1.000  C
  H14      1.0000 0.42160  0.72450  0.10570  Biso   1.000  H
  C23      1.0000 0.47970  0.91190  0.24800  Biso   1.000  C
  C24      1.0000 0.51200  0.81290  0.19130  Biso   1.000  C
  H15      1.0000 0.52630  0.73120  0.13910  Biso   1.000  H
  O7       1.0000 0.53680  0.91260  0.27030  Biso   1.000  O
  O8       1.0000 0.43680  0.95190  0.25730  Biso   1.000  O
  H16      1.0000 0.55510  0.81650  0.20610  Biso   1.000  H
  Cr2      1.0000 0.57764  0.98055  0.31920  Biso   1.000  Cr
  O9       1.0000 0.62960  0.04550  0.36170  Biso   1.000  O
  O10      1.0000 0.60420  0.91040  0.37420  Biso   1.000  O
  C25      1.0000 0.62690  0.06100  0.41620  Biso   1.000  C
  C26      1.0000 0.57960  0.88640  0.42100  Biso   1.000  C
  O11      1.0000 0.46370  0.08790  0.45300  Biso   1.000  O
  O12      1.0000 0.58630  0.04120  0.45400  Biso   1.000  O
  C27      1.0000 0.67800  0.10780  0.43730  Biso   1.000  C
  C28      1.0000 0.60460  0.82280  0.44100  Biso   1.000  C
  C29      1.0000 0.67500  0.13290  0.49440  Biso   1.000  C
  C30      1.0000 0.72750  0.12680  0.39980  Biso   1.000  C
  C31      1.0000 0.65710  0.79530  0.41110  Biso   1.000  C
  C32      1.0000 0.57710  0.78970  0.49000  Biso   1.000  C
  H17      1.0000 0.64040  0.11930  0.51960  Biso   1.000  H
  C33      1.0000 0.77410  0.16930  0.42260  Biso   1.000  C
  H18      1.0000 0.72980  0.11150  0.35980  Biso   1.000  H
  H19      1.0000 0.67390  0.81680  0.37680  Biso   1.000  H
  C34      1.0000 0.60670  0.73200  0.50710  Biso   1.000  C
  H20      1.0000 0.54000  0.80600  0.51030  Biso   1.000  H
  C35      1.0000 0.76620  0.19370  0.48030  Biso   1.000  C
  H21      1.0000 0.81060  0.18150  0.39920  Biso   1.000  H
  C36      1.0000 0.65730  0.70840  0.47580  Biso   1.000  C
  H22      1.0000 0.59110  0.70920  0.54110  Biso   1.000  H
  H23      1.0000 0.79680  0.22470  0.49430  Biso   1.000  H
  H24      1.0000 0.67480  0.66760  0.48730  Biso   1.000  H
  Cd3      1.0000 0.20871  0.28114  0.88563  Biso   1.000  Cd
  N7       1.0000 0.19860  0.38660  0.85030  Biso   1.000  N
  N8       1.0000 0.23990  0.18470  0.92870  Biso   1.000  N
  N9       1.0000 0.21870  0.32370  0.98340  Biso   1.000  N
  C37      1.0000 0.15080  0.40210  0.81380  Biso   1.000  C
  C38      1.0000 0.24160  0.43310  0.86760  Biso   1.000  C
  H25      1.0000 0.12070  0.36960  0.80200  Biso   1.000  H
  C39      1.0000 0.14340  0.46540  0.79230  Biso   1.000  C
  C40      1.0000 0.23790  0.49490  0.84820  Biso   1.000  C
  H26      1.0000 0.27550  0.42160  0.89430  Biso   1.000  H
  C41      1.0000 0.08810  0.47970  0.75200  Biso   1.000  C
  C42      1.0000 0.18710  0.51200  0.80870  Biso   1.000  C
  H27      1.0000 0.26880  0.52630  0.86090  Biso   1.000  H
  O13      1.0000 0.08740  0.53680  0.72970  Biso   1.000  O
  O14      1.0000 0.04810  0.43680  0.74270  Biso   1.000  O
  H28      1.0000 0.18350  0.55510  0.79390  Biso   1.000  H
  Cr3      1.0000 0.01945  0.57764  0.68080  Biso   1.000  Cr
  O15      1.0000 0.95450  0.62960  0.63830  Biso   1.000  O
  O16      1.0000 0.08960  0.60420  0.62580  Biso   1.000  O
  C43      1.0000 0.93900  0.62690  0.58380  Biso   1.000  C
  C44      1.0000 0.11360  0.57960  0.57900  Biso   1.000  C
  O17      1.0000 0.91210  0.46370  0.54700  Biso   1.000  O
  O18      1.0000 0.95880  0.58630  0.54600  Biso   1.000  O
  C45      1.0000 0.89220  0.67800  0.56270  Biso   1.000  C
  C46      1.0000 0.17720  0.60460  0.55900  Biso   1.000  C
  C47      1.0000 0.86710  0.67500  0.50560  Biso   1.000  C
  C48      1.0000 0.87320  0.72750  0.60020  Biso   1.000  C
  C49      1.0000 0.20470  0.65710  0.58890  Biso   1.000  C
  C50      1.0000 0.21030  0.57710  0.51000  Biso   1.000  C
  H29      1.0000 0.88070  0.64040  0.48040  Biso   1.000  H
  C51      1.0000 0.83070  0.77410  0.57740  Biso   1.000  C
  H30      1.0000 0.88850  0.72980  0.64020  Biso   1.000  H
  H31      1.0000 0.18320  0.67390  0.62320  Biso   1.000  H
  C52      1.0000 0.26800  0.60670  0.49290  Biso   1.000  C
  H32      1.0000 0.19400  0.54000  0.48970  Biso   1.000  H
  C53      1.0000 0.80630  0.76620  0.51970  Biso   1.000  C
  H33      1.0000 0.81850  0.81060  0.60080  Biso   1.000  H
  C54      1.0000 0.29160  0.65730  0.52420  Biso   1.000  C
  H34      1.0000 0.29080  0.59110  0.45890  Biso   1.000  H
  H35      1.0000 0.77530  0.79680  0.50570  Biso   1.000  H
  H36      1.0000 0.33240  0.67480  0.51270  Biso   1.000  H
  Cd4      1.0000 0.79129  0.71886  0.88563  Biso   1.000  Cd
  N10      1.0000 0.80140  0.61340  0.85030  Biso   1.000  N
  N11      1.0000 0.76010  0.81530  0.92870  Biso   1.000  N
  N12      1.0000 0.78130  0.67630  0.98340  Biso   1.000  N
  C55      1.0000 0.84920  0.59790  0.81380  Biso   1.000  C
  C56      1.0000 0.75840  0.56690  0.86760  Biso   1.000  C
  H37      1.0000 0.87930  0.63040  0.80200  Biso   1.000  H
  C57      1.0000 0.85660  0.53460  0.79230  Biso   1.000  C
  C58      1.0000 0.76210  0.50510  0.84820  Biso   1.000  C
  H38      1.0000 0.72450  0.57840  0.89430  Biso   1.000  H
  C59      1.0000 0.91190  0.52030  0.75200  Biso   1.000  C
  C60      1.0000 0.81290  0.48800  0.80870  Biso   1.000  C
  H39      1.0000 0.73120  0.47370  0.86090  Biso   1.000  H
  O19      1.0000 0.91260  0.46320  0.72970  Biso   1.000  O
  O20      1.0000 0.95190  0.56320  0.74270  Biso   1.000  O
  H40      1.0000 0.81650  0.44490  0.79390  Biso   1.000  H
  Cr4      1.0000 0.98055  0.42236  0.68080  Biso   1.000  Cr
  O21      1.0000 0.04550  0.37040  0.63830  Biso   1.000  O
  O22      1.0000 0.91040  0.39580  0.62580  Biso   1.000  O
  C61      1.0000 0.06100  0.37310  0.58380  Biso   1.000  C
  C62      1.0000 0.88640  0.42040  0.57900  Biso   1.000  C
  O23      1.0000 0.08790  0.53630  0.54700  Biso   1.000  O
  O24      1.0000 0.04120  0.41370  0.54600  Biso   1.000  O
  C63      1.0000 0.10780  0.32200  0.56270  Biso   1.000  C
  C64      1.0000 0.82280  0.39540  0.55900  Biso   1.000  C
  C65      1.0000 0.13290  0.32500  0.50560  Biso   1.000  C
  C66      1.0000 0.12680  0.27250  0.60020  Biso   1.000  C
  C67      1.0000 0.79530  0.34290  0.58890  Biso   1.000  C
  C68      1.0000 0.78970  0.42290  0.51000  Biso   1.000  C
  H41      1.0000 0.11930  0.35960  0.48040  Biso   1.000  H
  C69      1.0000 0.16930  0.22590  0.57740  Biso   1.000  C
  H42      1.0000 0.11150  0.27020  0.64020  Biso   1.000  H
  H43      1.0000 0.81680  0.32610  0.62320  Biso   1.000  H
  C70      1.0000 0.73200  0.39330  0.49290  Biso   1.000  C
  H44      1.0000 0.80600  0.46000  0.48970  Biso   1.000  H
  C71      1.0000 0.19370  0.23380  0.51970  Biso   1.000  C
  H45      1.0000 0.18150  0.18940  0.60080  Biso   1.000  H
  C72      1.0000 0.70840  0.34270  0.52420  Biso   1.000  C
  H46      1.0000 0.70920  0.40890  0.45890  Biso   1.000  H
  H47      1.0000 0.22470  0.20320  0.50570  Biso   1.000  H
  H48      1.0000 0.66760  0.32520  0.51270  Biso   1.000  H
  Cd5      1.0000 0.78114  0.70871  0.38563  Biso   1.000  Cd
  N13      1.0000 0.88660  0.69860  0.35030  Biso   1.000  N
  N14      1.0000 0.68470  0.73990  0.42870  Biso   1.000  N
  N15      1.0000 0.82370  0.71870  0.48340  Biso   1.000  N
  C73      1.0000 0.90210  0.65080  0.31380  Biso   1.000  C
  C74      1.0000 0.93310  0.74160  0.36760  Biso   1.000  C
  H49      1.0000 0.86960  0.62070  0.30200  Biso   1.000  H
  C75      1.0000 0.96540  0.64340  0.29230  Biso   1.000  C
  C76      1.0000 0.99490  0.73790  0.34820  Biso   1.000  C
  H50      1.0000 0.92160  0.77550  0.39430  Biso   1.000  H
  C77      1.0000 0.97970  0.58810  0.25200  Biso   1.000  C
  C78      1.0000 0.01200  0.68710  0.30870  Biso   1.000  C
  H51      1.0000 0.02630  0.76880  0.36090  Biso   1.000  H
  O25      1.0000 0.03680  0.58740  0.22970  Biso   1.000  O
  O26      1.0000 0.93680  0.54810  0.24270  Biso   1.000  O
  H52      1.0000 0.05510  0.68350  0.29390  Biso   1.000  H
  Cr5      1.0000 0.07764  0.51945  0.18080  Biso   1.000  Cr
  O27      1.0000 0.12960  0.45450  0.13830  Biso   1.000  O
  O28      1.0000 0.10420  0.58960  0.12580  Biso   1.000  O
  C79      1.0000 0.12690  0.43900  0.08380  Biso   1.000  C
  C80      1.0000 0.07960  0.61360  0.07900  Biso   1.000  C
  O29      1.0000 0.96370  0.41210  0.04700  Biso   1.000  O
  O30      1.0000 0.08630  0.45880  0.04600  Biso   1.000  O
  C81      1.0000 0.17800  0.39220  0.06270  Biso   1.000  C
  C82      1.0000 0.10460  0.67720  0.05900  Biso   1.000  C
  C83      1.0000 0.17500  0.36710  0.00560  Biso   1.000  C
  C84      1.0000 0.22750  0.37320  0.10020  Biso   1.000  C
  C85      1.0000 0.15710  0.70470  0.08890  Biso   1.000  C
  C86      1.0000 0.07710  0.71030  0.01000  Biso   1.000  C
  H53      1.0000 0.14040  0.38070  0.98040  Biso   1.000  H
  C87      1.0000 0.27410  0.33070  0.07740  Biso   1.000  C
  H54      1.0000 0.22980  0.38850  0.14020  Biso   1.000  H
  H55      1.0000 0.17390  0.68320  0.12320  Biso   1.000  H
  C88      1.0000 0.10670  0.76800  0.99290  Biso   1.000  C
  H56      1.0000 0.04000  0.69400  0.98970  Biso   1.000  H
  C89      1.0000 0.26620  0.30630  0.01970  Biso   1.000  C
  H57      1.0000 0.31060  0.31850  0.10080  Biso   1.000  H
  C90      1.0000 0.15730  0.79160  0.02420  Biso   1.000  C
  H58      1.0000 0.09110  0.79080  0.95890  Biso   1.000  H
  H59      1.0000 0.29680  0.27530  0.00570  Biso   1.000  H
  H60      1.0000 0.17480  0.83240  0.01270  Biso   1.000  H
  Cd6      1.0000 0.21886  0.29129  0.38563  Biso   1.000  Cd
  N16      1.0000 0.11340  0.30140  0.35030  Biso   1.000  N
  N17      1.0000 0.31530  0.26010  0.42870  Biso   1.000  N
  N18      1.0000 0.17630  0.28130  0.48340  Biso   1.000  N
  C91      1.0000 0.09790  0.34920  0.31380  Biso   1.000  C
  C92      1.0000 0.06690  0.25840  0.36760  Biso   1.000  C
  H61      1.0000 0.13040  0.37930  0.30200  Biso   1.000  H
  C93      1.0000 0.03460  0.35660  0.29230  Biso   1.000  C
  C94      1.0000 0.00510  0.26210  0.34820  Biso   1.000  C
  H62      1.0000 0.07840  0.22450  0.39430  Biso   1.000  H
  C95      1.0000 0.02030  0.41190  0.25200  Biso   1.000  C
  C96      1.0000 0.98800  0.31290  0.30870  Biso   1.000  C
  H63      1.0000 0.97370  0.23120  0.36090  Biso   1.000  H
  O31      1.0000 0.96320  0.41260  0.22970  Biso   1.000  O
  O32      1.0000 0.06320  0.45190  0.24270  Biso   1.000  O
  H64      1.0000 0.94490  0.31650  0.29390  Biso   1.000  H
  Cr6      1.0000 0.92236  0.48055  0.18080  Biso   1.000  Cr
  O33      1.0000 0.87040  0.54550  0.13830  Biso   1.000  O
  O34      1.0000 0.89580  0.41040  0.12580  Biso   1.000  O
  C97      1.0000 0.87310  0.56100  0.08380  Biso   1.000  C
  C98      1.0000 0.92040  0.38640  0.07900  Biso   1.000  C
  O35      1.0000 0.03630  0.58790  0.04700  Biso   1.000  O
  O36      1.0000 0.91370  0.54120  0.04600  Biso   1.000  O
  C99      1.0000 0.82200  0.60780  0.06270  Biso   1.000  C
  C100     1.0000 0.89540  0.32280  0.05900  Biso   1.000  C
  C101     1.0000 0.82500  0.63290  0.00560  Biso   1.000  C
  C102     1.0000 0.77250  0.62680  0.10020  Biso   1.000  C
  C103     1.0000 0.84290  0.29530  0.08890  Biso   1.000  C
  C104     1.0000 0.92290  0.28970  0.01000  Biso   1.000  C
  H65      1.0000 0.85960  0.61930  0.98040  Biso   1.000  H
  C105     1.0000 0.72590  0.66930  0.07740  Biso   1.000  C
  H66      1.0000 0.77020  0.61150  0.14020  Biso   1.000  H
  H67      1.0000 0.82610  0.31680  0.12320  Biso   1.000  H
  C106     1.0000 0.89330  0.23200  0.99290  Biso   1.000  C
  H68      1.0000 0.96000  0.30600  0.98970  Biso   1.000  H
  C107     1.0000 0.73380  0.69370  0.01970  Biso   1.000  C
  H69      1.0000 0.68940  0.68150  0.10080  Biso   1.000  H
  C108     1.0000 0.84270  0.20840  0.02420  Biso   1.000  C
  H70      1.0000 0.90890  0.20920  0.95890  Biso   1.000  H
  H71      1.0000 0.70320  0.72470  0.00570  Biso   1.000  H
  H72      1.0000 0.82520  0.16760  0.01270  Biso   1.000  H
  Cd7      1.0000 0.29129  0.78114  0.61437  Biso   1.000  Cd
  N19      1.0000 0.30140  0.88660  0.64970  Biso   1.000  N
  N20      1.0000 0.26010  0.68470  0.57130  Biso   1.000  N
  N21      1.0000 0.28130  0.82370  0.51660  Biso   1.000  N
  C109     1.0000 0.34920  0.90210  0.68620  Biso   1.000  C
  C110     1.0000 0.25840  0.93310  0.63240  Biso   1.000  C
  H73      1.0000 0.37930  0.86960  0.69800  Biso   1.000  H
  C111     1.0000 0.35660  0.96540  0.70770  Biso   1.000  C
  C112     1.0000 0.26210  0.99490  0.65180  Biso   1.000  C
  H74      1.0000 0.22450  0.92160  0.60570  Biso   1.000  H
  C113     1.0000 0.41190  0.97970  0.74800  Biso   1.000  C
  C114     1.0000 0.31290  0.01200  0.69130  Biso   1.000  C
  H75      1.0000 0.23120  0.02630  0.63910  Biso   1.000  H
  O37      1.0000 0.41260  0.03680  0.77030  Biso   1.000  O
  O38      1.0000 0.45190  0.93680  0.75730  Biso   1.000  O
  H76      1.0000 0.31650  0.05510  0.70610  Biso   1.000  H
  Cr7      1.0000 0.48055  0.07764  0.81920  Biso   1.000  Cr
  O39      1.0000 0.54550  0.12960  0.86170  Biso   1.000  O
  O40      1.0000 0.41040  0.10420  0.87420  Biso   1.000  O
  C115     1.0000 0.56100  0.12690  0.91620  Biso   1.000  C
  C116     1.0000 0.38640  0.07960  0.92100  Biso   1.000  C
  O41      1.0000 0.58790  0.96370  0.95300  Biso   1.000  O
  O42      1.0000 0.54120  0.08630  0.95400  Biso   1.000  O
  C117     1.0000 0.60780  0.17800  0.93730  Biso   1.000  C
  C118     1.0000 0.32280  0.10460  0.94100  Biso   1.000  C
  C119     1.0000 0.63290  0.17500  0.99440  Biso   1.000  C
  C120     1.0000 0.62680  0.22750  0.89980  Biso   1.000  C
  C121     1.0000 0.29530  0.15710  0.91110  Biso   1.000  C
  C122     1.0000 0.28970  0.07710  0.99000  Biso   1.000  C
  H77      1.0000 0.61930  0.14040  0.01960  Biso   1.000  H
  C123     1.0000 0.66930  0.27410  0.92260  Biso   1.000  C
  H78      1.0000 0.61150  0.22980  0.85980  Biso   1.000  H
  H79      1.0000 0.31680  0.17390  0.87680  Biso   1.000  H
  C124     1.0000 0.23200  0.10670  0.00710  Biso   1.000  C
  H80      1.0000 0.30600  0.04000  0.01030  Biso   1.000  H
  C125     1.0000 0.69370  0.26620  0.98030  Biso   1.000  C
  H81      1.0000 0.68150  0.31060  0.89920  Biso   1.000  H
  C126     1.0000 0.20840  0.15730  0.97580  Biso   1.000  C
  H82      1.0000 0.20920  0.09110  0.04110  Biso   1.000  H
  H83      1.0000 0.72470  0.29680  0.99430  Biso   1.000  H
  H84      1.0000 0.16760  0.17480  0.98730  Biso   1.000  H
  Cd8      1.0000 0.70871  0.21886  0.61437  Biso   1.000  Cd
  N22      1.0000 0.69860  0.11340  0.64970  Biso   1.000  N
  N23      1.0000 0.73990  0.31530  0.57130  Biso   1.000  N
  N24      1.0000 0.71870  0.17630  0.51660  Biso   1.000  N
  C127     1.0000 0.65080  0.09790  0.68620  Biso   1.000  C
  C128     1.0000 0.74160  0.06690  0.63240  Biso   1.000  C
  H85      1.0000 0.62070  0.13040  0.69800  Biso   1.000  H
  C129     1.0000 0.64340  0.03460  0.70770  Biso   1.000  C
  C130     1.0000 0.73790  0.00510  0.65180  Biso   1.000  C
  H86      1.0000 0.77550  0.07840  0.60570  Biso   1.000  H
  C131     1.0000 0.58810  0.02030  0.74800  Biso   1.000  C
  C132     1.0000 0.68710  0.98800  0.69130  Biso   1.000  C
  H87      1.0000 0.76880  0.97370  0.63910  Biso   1.000  H
  O43      1.0000 0.58740  0.96320  0.77030  Biso   1.000  O
  O44      1.0000 0.54810  0.06320  0.75730  Biso   1.000  O
  H88      1.0000 0.68350  0.94490  0.70610  Biso   1.000  H
  Cr8      1.0000 0.51945  0.92236  0.81920  Biso   1.000  Cr
  O45      1.0000 0.45450  0.87040  0.86170  Biso   1.000  O
  O46      1.0000 0.58960  0.89580  0.87420  Biso   1.000  O
  C133     1.0000 0.43900  0.87310  0.91620  Biso   1.000  C
  C134     1.0000 0.61360  0.92040  0.92100  Biso   1.000  C
  O47      1.0000 0.41210  0.03630  0.95300  Biso   1.000  O
  O48      1.0000 0.45880  0.91370  0.95400  Biso   1.000  O
  C135     1.0000 0.39220  0.82200  0.93730  Biso   1.000  C
  C136     1.0000 0.67720  0.89540  0.94100  Biso   1.000  C
  C137     1.0000 0.36710  0.82500  0.99440  Biso   1.000  C
  C138     1.0000 0.37320  0.77250  0.89980  Biso   1.000  C
  C139     1.0000 0.70470  0.84290  0.91110  Biso   1.000  C
  C140     1.0000 0.71030  0.92290  0.99000  Biso   1.000  C
  H89      1.0000 0.38070  0.85960  0.01960  Biso   1.000  H
  C141     1.0000 0.33070  0.72590  0.92260  Biso   1.000  C
  H90      1.0000 0.38850  0.77020  0.85980  Biso   1.000  H
  H91      1.0000 0.68320  0.82610  0.87680  Biso   1.000  H
  C142     1.0000 0.76800  0.89330  0.00710  Biso   1.000  C
  H92      1.0000 0.69400  0.96000  0.01030  Biso   1.000  H
  C143     1.0000 0.30630  0.73380  0.98030  Biso   1.000  C
  H93      1.0000 0.31850  0.68940  0.89920  Biso   1.000  H
  C144     1.0000 0.79160  0.84270  0.97580  Biso   1.000  C
  H94      1.0000 0.79080  0.90890  0.04110  Biso   1.000  H
  H95      1.0000 0.27530  0.70320  0.99430  Biso   1.000  H
  H96      1.0000 0.83240  0.82520  0.98730  Biso   1.000  H
  O49      1.0000 0.50000  0.00000  0.36150  Biso   1.000  O
  Cr9      1.0000 0.50000  0.00000  0.44649  Biso   1.000  Cr
  O50      1.0000 0.00000  0.50000  0.63850  Biso   1.000  O
  Cr10     1.0000 0.00000  0.50000  0.55351  Biso   1.000  Cr
  O51      1.0000 0.00000  0.50000  0.13850  Biso   1.000  O
  Cr11     1.0000 0.00000  0.50000  0.05351  Biso   1.000  Cr
  O52      1.0000 0.50000  0.00000  0.86150  Biso   1.000  O
  Cr12     1.0000 0.50000  0.00000  0.94649  Biso   1.000  Cr
