data_OYUSAD_charged
_audit_creation_date              2014-07-02
_audit_creation_method            'Materials Studio'
_symmetry_space_group_name_H-M    'P1'
_symmetry_Int_Tables_number       1
_symmetry_cell_setting            triclinic
loop_
_symmetry_equiv_pos_as_xyz
  x,y,z
_cell_length_a                    17.2821
_cell_length_b                    17.2821
_cell_length_c                    17.5985
_cell_angle_alpha                 117.1260
_cell_angle_beta                  117.1270
_cell_angle_gamma                 94.0941
loop_
_atom_site_label
_atom_site_type_symbol
_atom_site_fract_x
_atom_site_fract_y
_atom_site_fract_z
_atom_site_U_iso_or_equiv
_atom_site_adp_type
_atom_site_occupancy
Zn1    Zn    0.22276   0.73484   0.05538   0.01267  Uiso   1.00
Zn2    Zn    0.67946   0.16738   0.94462   0.01267  Uiso   1.00
Zn3    Zn    0.91738   0.92946   0.44462   0.01267  Uiso   1.00
Zn4    Zn    0.48484   0.47276   0.55538   0.01267  Uiso   1.00
Co1    Co    0.72296   0.78116   0.48846   0.01267  Uiso   1.00
Co2    Co    0.10688   0.48642   0.88512   0.01267  Uiso   1.00
Co3    Co    0.29270   0.23450   0.51154   0.01267  Uiso   1.00
Co4    Co    0.60130   0.22176   0.11488   0.01267  Uiso   1.00
Co5    Co    0.98450   0.54270   0.01154   0.01267  Uiso   1.00
Co6    Co    0.97176   0.85130   0.61488   0.01267  Uiso   1.00
Co7    Co    0.53116   0.97296   0.98846   0.01267  Uiso   1.00
Co8    Co    0.23642   0.35688   0.38512   0.01267  Uiso   1.00
P1     P     0.19610   0.59766   0.12154   0.01267  Uiso   1.00
P2     P     0.38800   0.26256   0.40582   0.01267  Uiso   1.00
P3     P     0.47612   0.07456   0.87846   0.01267  Uiso   1.00
P4     P     0.85674   0.98218   0.59418   0.01267  Uiso   1.00
P5     P     0.82456   0.72612   0.37846   0.01267  Uiso   1.00
P6     P     0.73218   0.10674   0.09418   0.01267  Uiso   1.00
P7     P     0.34766   0.44610   0.62154   0.01267  Uiso   1.00
P8     P     0.01256   0.63800   0.90582   0.01267  Uiso   1.00
H1     H     0.38870   0.68210   0.24800   0.01267  Uiso   1.00
H2     H     0.48000   0.60180   0.44200   0.01267  Uiso   1.00
H3     H     0.20830   0.51130   0.23340   0.01267  Uiso   1.00
H4     H     0.32180   0.06460   0.29880   0.01267  Uiso   1.00
H5     H     0.42420   0.97580   0.12220   0.01267  Uiso   1.00
H6     H     0.48130   0.24810   0.29980   0.01267  Uiso   1.00
H7     H     0.43410   0.14070   0.75200   0.01267  Uiso   1.00
H8     H     0.15980   0.03800   0.55800   0.01267  Uiso   1.00
H9     H     0.27790   0.97490   0.76660   0.01267  Uiso   1.00
H10    H     0.76580   0.02300   0.70120   0.01267  Uiso   1.00
H11    H     0.85360   0.30200   0.87780   0.01267  Uiso   1.00
H12    H     0.94830   0.18150   0.70020   0.01267  Uiso   1.00
H13    H     0.89070   0.68410   0.25200   0.01267  Uiso   1.00
H14    H     0.78800   0.40980   0.05800   0.01267  Uiso   1.00
H15    H     0.72490   0.52790   0.26660   0.01267  Uiso   1.00
H16    H     0.77300   0.01580   0.20120   0.01267  Uiso   1.00
H17    H     0.05200   0.10360   0.37780   0.01267  Uiso   1.00
H18    H     0.93150   0.19830   0.20020   0.01267  Uiso   1.00
H19    H     0.43210   0.63870   0.74800   0.01267  Uiso   1.00
H20    H     0.35180   0.73000   0.94200   0.01267  Uiso   1.00
H21    H     0.26130   0.45830   0.73340   0.01267  Uiso   1.00
H22    H     0.81460   0.57180   0.79880   0.01267  Uiso   1.00
H23    H     0.72580   0.67420   0.62220   0.01267  Uiso   1.00
H24    H     0.99810   0.73130   0.79980   0.01267  Uiso   1.00
C1     C     0.28530   0.59870   0.22840   0.01267  Uiso   1.00
C2     C     0.37610   0.64890   0.27280   0.01267  Uiso   1.00
C3     C     0.44890   0.65130   0.35340   0.01267  Uiso   1.00
C4     C     0.54980   0.71100   0.39960   0.01267  Uiso   1.00
C5     C     0.43130   0.60070   0.38800   0.01267  Uiso   1.00
C6     C     0.34010   0.54750   0.34280   0.01267  Uiso   1.00
C7     C     0.32440   0.48920   0.38200   0.01267  Uiso   1.00
C8     C     0.26900   0.54720   0.26380   0.01267  Uiso   1.00
C9     C     0.40130   0.17070   0.31480   0.01267  Uiso   1.00
C10    C     0.35730   0.07790   0.27660   0.01267  Uiso   1.00
C11    C     0.36730   0.00570   0.20540   0.01267  Uiso   1.00
C12    C     0.31510   0.91090   0.16440   0.01267  Uiso   1.00
C13    C     0.41830   0.02450   0.16980   0.01267  Uiso   1.00
C14    C     0.46050   0.11530   0.20480   0.01267  Uiso   1.00
C15    C     0.51370   0.13310   0.16260   0.01267  Uiso   1.00
C16    C     0.45240   0.18720   0.27620   0.01267  Uiso   1.00
C17    C     0.37030   0.05690   0.77160   0.01267  Uiso   1.00
C18    C     0.37610   0.10330   0.72720   0.01267  Uiso   1.00
C19    C     0.29790   0.09550   0.64660   0.01267  Uiso   1.00
C20    C     0.31140   0.15020   0.60040   0.01267  Uiso   1.00
C21    C     0.21270   0.04330   0.61200   0.01267  Uiso   1.00
C22    C     0.20470   0.99730   0.65720   0.01267  Uiso   1.00
C23    C     0.10720   0.94240   0.61800   0.01267  Uiso   1.00
C24    C     0.28340   0.00520   0.73620   0.01267  Uiso   1.00
C25    C     0.85590   0.08650   0.68520   0.01267  Uiso   1.00
C26    C     0.80130   0.08070   0.72340   0.01267  Uiso   1.00
C27    C     0.80030   0.16190   0.79460   0.01267  Uiso   1.00
C28    C     0.74650   0.15070   0.83560   0.01267  Uiso   1.00
C29    C     0.85470   0.24850   0.83020   0.01267  Uiso   1.00
C30    C     0.91050   0.25570   0.79520   0.01267  Uiso   1.00
C31    C     0.97050   0.35110   0.83740   0.01267  Uiso   1.00
C32    C     0.91100   0.17620   0.72380   0.01267  Uiso   1.00
C33    C     0.80690   0.62030   0.27160   0.01267  Uiso   1.00
C34    C     0.85330   0.62610   0.22720   0.01267  Uiso   1.00
C35    C     0.84550   0.54790   0.14660   0.01267  Uiso   1.00
C36    C     0.90020   0.56140   0.10040   0.01267  Uiso   1.00
C37    C     0.79330   0.46270   0.11200   0.01267  Uiso   1.00
C38    C     0.74730   0.45470   0.15720   0.01267  Uiso   1.00
C39    C     0.69240   0.35720   0.11800   0.01267  Uiso   1.00
C40    C     0.75520   0.53340   0.23620   0.01267  Uiso   1.00
C41    C     0.83650   0.10590   0.18520   0.01267  Uiso   1.00
C42    C     0.83070   0.05130   0.22340   0.01267  Uiso   1.00
C43    C     0.91190   0.05030   0.29460   0.01267  Uiso   1.00
C44    C     0.90070   0.99650   0.33560   0.01267  Uiso   1.00
C45    C     0.99850   0.10470   0.33020   0.01267  Uiso   1.00
C46    C     0.00570   0.16050   0.29520   0.01267  Uiso   1.00
C47    C     0.10110   0.22050   0.33740   0.01267  Uiso   1.00
C48    C     0.92620   0.16100   0.22380   0.01267  Uiso   1.00
C49    C     0.34870   0.53530   0.72840   0.01267  Uiso   1.00
C50    C     0.39890   0.62610   0.77280   0.01267  Uiso   1.00
C51    C     0.40130   0.69890   0.85340   0.01267  Uiso   1.00
C52    C     0.46100   0.79980   0.89960   0.01267  Uiso   1.00
C53    C     0.35070   0.68130   0.88800   0.01267  Uiso   1.00
C54    C     0.29750   0.59010   0.84280   0.01267  Uiso   1.00
C55    C     0.23920   0.57440   0.88200   0.01267  Uiso   1.00
C56    C     0.29720   0.51900   0.76380   0.01267  Uiso   1.00
C57    C     0.92070   0.65130   0.81480   0.01267  Uiso   1.00
C58    C     0.82790   0.60730   0.77660   0.01267  Uiso   1.00
C59    C     0.75570   0.61730   0.70540   0.01267  Uiso   1.00
C60    C     0.66090   0.56510   0.66440   0.01267  Uiso   1.00
C61    C     0.77450   0.66830   0.66980   0.01267  Uiso   1.00
C62    C     0.86530   0.71050   0.70480   0.01267  Uiso   1.00
C63    C     0.88310   0.76370   0.66260   0.01267  Uiso   1.00
C64    C     0.93720   0.70240   0.77620   0.01267  Uiso   1.00
O1     O     0.10930   0.58150   0.12380   0.01267  Uiso   1.00
O2     O     0.18470   0.51950   0.02480   0.01267  Uiso   1.00
O3     O     0.22920   0.69300   0.14040   0.01267  Uiso   1.00
O4     O     0.56410   0.75810   0.36920   0.01267  Uiso   1.00
O5     O     0.61400   0.70920   0.47120   0.01267  Uiso   1.00
O6     O     0.39090   0.49850   0.45860   0.01267  Uiso   1.00
O7     O     0.24040   0.43620   0.33300   0.01267  Uiso   1.00
O8     O     0.30280   0.27700   0.34320   0.01267  Uiso   1.00
O9     O     0.37470   0.22790   0.46520   0.01267  Uiso   1.00
O10    O     0.47630   0.34730   0.47320   0.01267  Uiso   1.00
O11    O     0.26820   0.89580   0.19460   0.01267  Uiso   1.00
O12    O     0.31610   0.84330   0.09400   0.01267  Uiso   1.00
O13    O     0.52490   0.06750   0.10540   0.01267  Uiso   1.00
O14    O     0.54560   0.21480   0.18980   0.01267  Uiso   1.00
O15    O     0.45770   0.98550   0.87620   0.01267  Uiso   1.00
O16    O     0.49470   0.15990   0.97520   0.01267  Uiso   1.00
O17    O     0.55260   0.08880   0.85960   0.01267  Uiso   1.00
O18    O     0.38890   0.19490   0.63080   0.01267  Uiso   1.00
O19    O     0.23800   0.14280   0.52880   0.01267  Uiso   1.00
O20    O     0.03990   0.93230   0.54140   0.01267  Uiso   1.00
O21    O     0.10320   0.90740   0.66700   0.01267  Uiso   1.00
O22    O     0.93380   0.95960   0.65680   0.01267  Uiso   1.00
O23    O     0.76270   0.90950   0.53480   0.01267  Uiso   1.00
O24    O     0.87410   0.00310   0.52680   0.01267  Uiso   1.00
O25    O     0.70120   0.07360   0.80540   0.01267  Uiso   1.00
O26    O     0.74930   0.22210   0.90600   0.01267  Uiso   1.00
O27    O     0.96210   0.41950   0.89460   0.01267  Uiso   1.00
O28    O     0.02500   0.35580   0.81020   0.01267  Uiso   1.00
O29    O     0.73550   0.70770   0.37620   0.01267  Uiso   1.00
O30    O     0.90990   0.74470   0.47520   0.01267  Uiso   1.00
O31    O     0.83880   0.80260   0.35960   0.01267  Uiso   1.00
O32    O     0.94490   0.63890   0.13080   0.01267  Uiso   1.00
O33    O     0.89280   0.48800   0.02880   0.01267  Uiso   1.00
O34    O     0.68230   0.28990   0.04140   0.01267  Uiso   1.00
O35    O     0.65740   0.35320   0.16700   0.01267  Uiso   1.00
O36    O     0.70960   0.18380   0.15680   0.01267  Uiso   1.00
O37    O     0.65950   0.01270   0.03480   0.01267  Uiso   1.00
O38    O     0.75310   0.12410   0.02680   0.01267  Uiso   1.00
O39    O     0.82360   0.95120   0.30540   0.01267  Uiso   1.00
O40    O     0.97210   0.99930   0.40600   0.01267  Uiso   1.00
O41    O     0.16950   0.21210   0.39460   0.01267  Uiso   1.00
O42    O     0.10580   0.27500   0.31020   0.01267  Uiso   1.00
O43    O     0.33150   0.35930   0.62380   0.01267  Uiso   1.00
O44    O     0.26950   0.43470   0.52480   0.01267  Uiso   1.00
O45    O     0.44300   0.47920   0.64040   0.01267  Uiso   1.00
O46    O     0.50810   0.81410   0.86920   0.01267  Uiso   1.00
O47    O     0.45920   0.86400   0.97120   0.01267  Uiso   1.00
O48    O     0.24850   0.64090   0.95860   0.01267  Uiso   1.00
O49    O     0.18620   0.49040   0.83300   0.01267  Uiso   1.00
O50    O     0.02700   0.55280   0.84320   0.01267  Uiso   1.00
O51    O     0.97790   0.62470   0.96520   0.01267  Uiso   1.00
O52    O     0.09730   0.72630   0.97320   0.01267  Uiso   1.00
O53    O     0.64580   0.51820   0.69460   0.01267  Uiso   1.00
O54    O     0.59330   0.56610   0.59400   0.01267  Uiso   1.00
O55    O     0.81750   0.77490   0.60540   0.01267  Uiso   1.00
O56    O     0.96480   0.79560   0.68980   0.01267  Uiso   1.00
