data_image0
_cell_length_a       6.136
_cell_length_b       16.863
_cell_length_c       12.237
_cell_angle_alpha    90
_cell_angle_beta     92.179
_cell_angle_gamma    90

_symmetry_space_group_name_H-M    "P 1"
_symmetry_int_tables_number       1

loop_
  _symmetry_equiv_pos_as_xyz
  'x, y, z'

loop_
  _atom_site_label
  _atom_site_occupancy
  _atom_site_fract_x
  _atom_site_fract_y
  _atom_site_fract_z
  _atom_site_thermal_displace_type
  _atom_site_B_iso_or_equiv
  _atom_site_type_symbol
  C1       1.0000 0.20800  0.89460  0.36590  Biso   1.000  C
  C2       1.0000 0.30420  0.63150  0.12590  Biso   1.000  C
  C3       1.0000 0.21090  0.70450  0.17790  Biso   1.000  C
  C4       1.0000 0.00200  0.73200  0.17600  Biso   1.000  C
  H1       1.0000 0.88710  0.70750  0.13750  Biso   1.000  H
  C5       1.0000 0.97820  0.80160  0.23880  Biso   1.000  C
  H2       1.0000 0.84580  0.82760  0.24560  Biso   1.000  H
  C6       1.0000 0.16840  0.82680  0.28820  Biso   1.000  C
  O1       1.0000 0.50910  0.62393  0.13210  Biso   1.000  O
  O2       1.0000 0.40100  0.91020  0.39700  Biso   1.000  O
  O3       1.0000 0.04210  0.93134  0.39740  Biso   1.000  O
  O4       1.0000 0.16930  0.58391  0.08140  Biso   1.000  O
  S1       1.0000 0.38289  0.76487  0.25684  Biso   1.000  S
  Sr1      1.0000 0.21929  0.48403  0.91179  Biso   1.000  Sr
  C7       1.0000 0.29200  0.39460  0.13410  Biso   1.000  C
  C8       1.0000 0.19580  0.13150  0.37410  Biso   1.000  C
  C9       1.0000 0.28910  0.20450  0.32210  Biso   1.000  C
  C10      1.0000 0.49800  0.23200  0.32400  Biso   1.000  C
  H3       1.0000 0.61290  0.20750  0.36250  Biso   1.000  H
  C11      1.0000 0.52180  0.30160  0.26120  Biso   1.000  C
  H4       1.0000 0.65420  0.32760  0.25440  Biso   1.000  H
  C12      1.0000 0.33160  0.32680  0.21180  Biso   1.000  C
  O5       1.0000 0.99090  0.12393  0.36790  Biso   1.000  O
  O6       1.0000 0.09900  0.41020  0.10300  Biso   1.000  O
  O7       1.0000 0.45790  0.43134  0.10260  Biso   1.000  O
  O8       1.0000 0.33070  0.08391  0.41860  Biso   1.000  O
  S2       1.0000 0.11711  0.26487  0.24316  Biso   1.000  S
  Sr2      1.0000 0.28071  0.98403  0.58821  Biso   1.000  Sr
  C13      1.0000 0.79200  0.10540  0.63410  Biso   1.000  C
  C14      1.0000 0.69580  0.36850  0.87410  Biso   1.000  C
  C15      1.0000 0.78910  0.29550  0.82210  Biso   1.000  C
  C16      1.0000 0.99800  0.26800  0.82400  Biso   1.000  C
  H5       1.0000 0.11290  0.29250  0.86250  Biso   1.000  H
  C17      1.0000 0.02180  0.19840  0.76120  Biso   1.000  C
  H6       1.0000 0.15420  0.17240  0.75440  Biso   1.000  H
  C18      1.0000 0.83160  0.17320  0.71180  Biso   1.000  C
  O9       1.0000 0.49090  0.37607  0.86790  Biso   1.000  O
  O10      1.0000 0.59900  0.08980  0.60300  Biso   1.000  O
  O11      1.0000 0.95790  0.06866  0.60260  Biso   1.000  O
  O12      1.0000 0.83070  0.41609  0.91860  Biso   1.000  O
  S3       1.0000 0.61711  0.23513  0.74316  Biso   1.000  S
  Sr3      1.0000 0.78071  0.51597  0.08821  Biso   1.000  Sr
  C19      1.0000 0.70800  0.60540  0.86590  Biso   1.000  C
  C20      1.0000 0.80420  0.86850  0.62590  Biso   1.000  C
  C21      1.0000 0.71090  0.79550  0.67790  Biso   1.000  C
  C22      1.0000 0.50200  0.76800  0.67600  Biso   1.000  C
  H7       1.0000 0.38710  0.79250  0.63750  Biso   1.000  H
  C23      1.0000 0.47820  0.69840  0.73880  Biso   1.000  C
  H8       1.0000 0.34580  0.67240  0.74560  Biso   1.000  H
  C24      1.0000 0.66840  0.67320  0.78820  Biso   1.000  C
  O13      1.0000 0.00910  0.87607  0.63210  Biso   1.000  O
  O14      1.0000 0.90100  0.58980  0.89700  Biso   1.000  O
  O15      1.0000 0.54210  0.56866  0.89740  Biso   1.000  O
  O16      1.0000 0.66930  0.91609  0.58140  Biso   1.000  O
  S4       1.0000 0.88289  0.73513  0.75684  Biso   1.000  S
  Sr4      1.0000 0.71929  0.01597  0.41179  Biso   1.000  Sr
