data_image0
_cell_length_a       6.7862
_cell_length_b       11.095
_cell_length_c       18.351
_cell_angle_alpha    90
_cell_angle_beta     95.688
_cell_angle_gamma    90

_symmetry_space_group_name_H-M    "P 1"
_symmetry_int_tables_number       1

loop_
  _symmetry_equiv_pos_as_xyz
  'x, y, z'

loop_
  _atom_site_label
  _atom_site_occupancy
  _atom_site_fract_x
  _atom_site_fract_y
  _atom_site_fract_z
  _atom_site_thermal_displace_type
  _atom_site_B_iso_or_equiv
  _atom_site_type_symbol
  C1       1.0000 0.81000  0.27280  0.79610  Biso   1.000  C
  C2       1.0000 0.99300  0.31300  0.78370  Biso   1.000  C
  H1       1.0000 0.10310  0.30810  0.81790  Biso   1.000  H
  C3       1.0000 0.99600  0.36260  0.71370  Biso   1.000  C
  H2       1.0000 0.10930  0.39530  0.69670  Biso   1.000  H
  C4       1.0000 0.81500  0.35820  0.67230  Biso   1.000  C
  C5       1.0000 0.76600  0.39910  0.59580  Biso   1.000  C
  C6       1.0000 0.75300  0.21710  0.86570  Biso   1.000  C
  O1       1.0000 0.89540  0.19120  0.91290  Biso   1.000  O
  O2       1.0000 0.57640  0.20270  0.87460  Biso   1.000  O
  O3       1.0000 0.59040  0.39980  0.56940  Biso   1.000  O
  O4       1.0000 0.90860  0.43320  0.56160  Biso   1.000  O
  S1       1.0000 0.63940  0.29480  0.72134  Biso   1.000  S
  Sr1      1.0000 0.74280  0.10484  0.02063  Biso   1.000  Sr
  C7       1.0000 0.69000  0.77280  0.70390  Biso   1.000  C
  C8       1.0000 0.50700  0.81300  0.71630  Biso   1.000  C
  H3       1.0000 0.39690  0.80810  0.68210  Biso   1.000  H
  C9       1.0000 0.50400  0.86260  0.78630  Biso   1.000  C
  H4       1.0000 0.39070  0.89530  0.80330  Biso   1.000  H
  C10      1.0000 0.68500  0.85820  0.82770  Biso   1.000  C
  C11      1.0000 0.73400  0.89910  0.90420  Biso   1.000  C
  C12      1.0000 0.74700  0.71710  0.63430  Biso   1.000  C
  O5       1.0000 0.60460  0.69120  0.58710  Biso   1.000  O
  O6       1.0000 0.92360  0.70270  0.62540  Biso   1.000  O
  O7       1.0000 0.90960  0.89980  0.93060  Biso   1.000  O
  O8       1.0000 0.59140  0.93320  0.93840  Biso   1.000  O
  S2       1.0000 0.86060  0.79480  0.77866  Biso   1.000  S
  Sr2      1.0000 0.75720  0.60484  0.47937  Biso   1.000  Sr
  C13      1.0000 0.19000  0.72720  0.20390  Biso   1.000  C
  C14      1.0000 0.00700  0.68700  0.21630  Biso   1.000  C
  H5       1.0000 0.89690  0.69190  0.18210  Biso   1.000  H
  C15      1.0000 0.00400  0.63740  0.28630  Biso   1.000  C
  H6       1.0000 0.89070  0.60470  0.30330  Biso   1.000  H
  C16      1.0000 0.18500  0.64180  0.32770  Biso   1.000  C
  C17      1.0000 0.23400  0.60090  0.40420  Biso   1.000  C
  C18      1.0000 0.24700  0.78290  0.13430  Biso   1.000  C
  O9       1.0000 0.10460  0.80880  0.08710  Biso   1.000  O
  O10      1.0000 0.42360  0.79730  0.12540  Biso   1.000  O
  O11      1.0000 0.40960  0.60020  0.43060  Biso   1.000  O
  O12      1.0000 0.09140  0.56680  0.43840  Biso   1.000  O
  S3       1.0000 0.36060  0.70520  0.27866  Biso   1.000  S
  Sr3      1.0000 0.25720  0.89516  0.97937  Biso   1.000  Sr
  C19      1.0000 0.31000  0.22720  0.29610  Biso   1.000  C
  C20      1.0000 0.49300  0.18700  0.28370  Biso   1.000  C
  H7       1.0000 0.60310  0.19190  0.31790  Biso   1.000  H
  C21      1.0000 0.49600  0.13740  0.21370  Biso   1.000  C
  H8       1.0000 0.60930  0.10470  0.19670  Biso   1.000  H
  C22      1.0000 0.31500  0.14180  0.17230  Biso   1.000  C
  C23      1.0000 0.26600  0.10090  0.09580  Biso   1.000  C
  C24      1.0000 0.25300  0.28290  0.36570  Biso   1.000  C
  O13      1.0000 0.39540  0.30880  0.41290  Biso   1.000  O
  O14      1.0000 0.07640  0.29730  0.37460  Biso   1.000  O
  O15      1.0000 0.09040  0.10020  0.06940  Biso   1.000  O
  O16      1.0000 0.40860  0.06680  0.06160  Biso   1.000  O
  S4       1.0000 0.13940  0.20520  0.22134  Biso   1.000  S
  Sr4      1.0000 0.24280  0.39516  0.52063  Biso   1.000  Sr
