data_image0
_cell_length_a       26.2885
_cell_length_b       26.2885
_cell_length_c       7.0608
_cell_angle_alpha    90
_cell_angle_beta     90
_cell_angle_gamma    120

_symmetry_space_group_name_H-M    "P 1"
_symmetry_int_tables_number       1

loop_
  _symmetry_equiv_pos_as_xyz
  'x, y, z'

loop_
  _atom_site_label
  _atom_site_occupancy
  _atom_site_fract_x
  _atom_site_fract_y
  _atom_site_fract_z
  _atom_site_thermal_displace_type
  _atom_site_B_iso_or_equiv
  _atom_site_type_symbol
  Mn1      1.0000 0.95090  0.63460  0.02200  Biso   1.000  Mn
  C1       1.0000 0.01560  0.59280  0.75900  Biso   1.000  C
  C2       1.0000 0.00690  0.54570  0.89000  Biso   1.000  C
  C3       1.0000 0.98790  0.54210  0.08700  Biso   1.000  C
  C4       1.0000 0.98330  0.49500  0.19000  Biso   1.000  C
  H1       1.0000 0.97257  0.49750  0.33724  Biso   1.000  H
  O1       1.0000 0.02860  0.59240  0.58600  Biso   1.000  O
  O2       1.0000 0.00450  0.63460  0.80100  Biso   1.000  O
  O3       1.0000 0.97730  0.58340  0.13900  Biso   1.000  O
  Mn2      1.0000 0.61757  0.96793  0.35533  Biso   1.000  Mn
  C5       1.0000 0.68227  0.92613  0.09233  Biso   1.000  C
  C6       1.0000 0.67357  0.87903  0.22333  Biso   1.000  C
  C7       1.0000 0.65457  0.87543  0.42033  Biso   1.000  C
  C8       1.0000 0.64997  0.82833  0.52333  Biso   1.000  C
  H2       1.0000 0.63924  0.83083  0.67057  Biso   1.000  H
  O4       1.0000 0.69527  0.92573  0.91933  Biso   1.000  O
  O5       1.0000 0.67117  0.96793  0.13433  Biso   1.000  O
  O6       1.0000 0.64397  0.91673  0.47233  Biso   1.000  O
  Mn3      1.0000 0.28423  0.30127  0.68867  Biso   1.000  Mn
  C9       1.0000 0.34893  0.25947  0.42567  Biso   1.000  C
  C10      1.0000 0.34023  0.21237  0.55667  Biso   1.000  C
  C11      1.0000 0.32123  0.20877  0.75367  Biso   1.000  C
  C12      1.0000 0.31663  0.16167  0.85667  Biso   1.000  C
  H3       1.0000 0.30590  0.16417  0.00391  Biso   1.000  H
  O7       1.0000 0.36193  0.25907  0.25267  Biso   1.000  O
  O8       1.0000 0.33783  0.30127  0.46767  Biso   1.000  O
  O9       1.0000 0.31063  0.25007  0.80567  Biso   1.000  O
  Mn4      1.0000 0.36540  0.31630  0.02200  Biso   1.000  Mn
  C13      1.0000 0.40720  0.42280  0.75900  Biso   1.000  C
  C14      1.0000 0.45430  0.46120  0.89000  Biso   1.000  C
  C15      1.0000 0.45790  0.44580  0.08700  Biso   1.000  C
  C16      1.0000 0.50500  0.48830  0.19000  Biso   1.000  C
  H4       1.0000 0.50250  0.47507  0.33724  Biso   1.000  H
  O10      1.0000 0.40760  0.43620  0.58600  Biso   1.000  O
  O11      1.0000 0.36540  0.36990  0.80100  Biso   1.000  O
  O12      1.0000 0.41660  0.39390  0.13900  Biso   1.000  O
  Mn5      1.0000 0.03207  0.64963  0.35533  Biso   1.000  Mn
  C17      1.0000 0.07387  0.75613  0.09233  Biso   1.000  C
  C18      1.0000 0.12097  0.79453  0.22333  Biso   1.000  C
  C19      1.0000 0.12457  0.77913  0.42033  Biso   1.000  C
  C20      1.0000 0.17167  0.82163  0.52333  Biso   1.000  C
  H5       1.0000 0.16917  0.80840  0.67057  Biso   1.000  H
  O13      1.0000 0.07427  0.76953  0.91933  Biso   1.000  O
  O14      1.0000 0.03207  0.70323  0.13433  Biso   1.000  O
  O15      1.0000 0.08327  0.72723  0.47233  Biso   1.000  O
  Mn6      1.0000 0.69873  0.98297  0.68867  Biso   1.000  Mn
  C21      1.0000 0.74053  0.08947  0.42567  Biso   1.000  C
  C22      1.0000 0.78763  0.12787  0.55667  Biso   1.000  C
  C23      1.0000 0.79123  0.11247  0.75367  Biso   1.000  C
  C24      1.0000 0.83833  0.15497  0.85667  Biso   1.000  C
  H6       1.0000 0.83583  0.14174  0.00391  Biso   1.000  H
  O16      1.0000 0.74093  0.10287  0.25267  Biso   1.000  O
  O17      1.0000 0.69873  0.03657  0.46767  Biso   1.000  O
  O18      1.0000 0.74993  0.06057  0.80567  Biso   1.000  O
  Mn7      1.0000 0.68370  0.04910  0.02200  Biso   1.000  Mn
  C25      1.0000 0.57720  0.98440  0.75900  Biso   1.000  C
  C26      1.0000 0.53880  0.99310  0.89000  Biso   1.000  C
  C27      1.0000 0.55420  0.01210  0.08700  Biso   1.000  C
  C28      1.0000 0.51170  0.01670  0.19000  Biso   1.000  C
  H7       1.0000 0.52493  0.02743  0.33724  Biso   1.000  H
  O19      1.0000 0.56380  0.97140  0.58600  Biso   1.000  O
  O20      1.0000 0.63010  0.99550  0.80100  Biso   1.000  O
  O21      1.0000 0.60610  0.02270  0.13900  Biso   1.000  O
  Mn8      1.0000 0.35037  0.38243  0.35533  Biso   1.000  Mn
  C29      1.0000 0.24387  0.31773  0.09233  Biso   1.000  C
  C30      1.0000 0.20547  0.32643  0.22333  Biso   1.000  C
  C31      1.0000 0.22087  0.34543  0.42033  Biso   1.000  C
  C32      1.0000 0.17837  0.35003  0.52333  Biso   1.000  C
  H8       1.0000 0.19160  0.36076  0.67057  Biso   1.000  H
  O22      1.0000 0.23047  0.30473  0.91933  Biso   1.000  O
  O23      1.0000 0.29677  0.32883  0.13433  Biso   1.000  O
  O24      1.0000 0.27277  0.35603  0.47233  Biso   1.000  O
  Mn9      1.0000 0.01703  0.71577  0.68867  Biso   1.000  Mn
  C33      1.0000 0.91053  0.65107  0.42567  Biso   1.000  C
  C34      1.0000 0.87213  0.65977  0.55667  Biso   1.000  C
  C35      1.0000 0.88753  0.67877  0.75367  Biso   1.000  C
  C36      1.0000 0.84503  0.68337  0.85667  Biso   1.000  C
  H9       1.0000 0.85826  0.69410  0.00391  Biso   1.000  H
  O25      1.0000 0.89713  0.63807  0.25267  Biso   1.000  O
  O26      1.0000 0.96343  0.66217  0.46767  Biso   1.000  O
  O27      1.0000 0.93943  0.68937  0.80567  Biso   1.000  O
  Mn10     1.0000 0.04910  0.36540  0.97800  Biso   1.000  Mn
  C37      1.0000 0.98440  0.40720  0.24100  Biso   1.000  C
  C38      1.0000 0.99310  0.45430  0.11000  Biso   1.000  C
  C39      1.0000 0.01210  0.45790  0.91300  Biso   1.000  C
  C40      1.0000 0.01670  0.50500  0.81000  Biso   1.000  C
  H10      1.0000 0.02743  0.50250  0.66276  Biso   1.000  H
  O28      1.0000 0.97140  0.40760  0.41400  Biso   1.000  O
  O29      1.0000 0.99550  0.36540  0.19900  Biso   1.000  O
  O30      1.0000 0.02270  0.41660  0.86100  Biso   1.000  O
  Mn11     1.0000 0.71577  0.69873  0.31133  Biso   1.000  Mn
  C41      1.0000 0.65107  0.74053  0.57433  Biso   1.000  C
  C42      1.0000 0.65977  0.78763  0.44333  Biso   1.000  C
  C43      1.0000 0.67877  0.79123  0.24633  Biso   1.000  C
  C44      1.0000 0.68337  0.83833  0.14333  Biso   1.000  C
  H11      1.0000 0.69410  0.83583  0.99609  Biso   1.000  H
  O31      1.0000 0.63807  0.74093  0.74733  Biso   1.000  O
  O32      1.0000 0.66217  0.69873  0.53233  Biso   1.000  O
  O33      1.0000 0.68937  0.74993  0.19433  Biso   1.000  O
  Mn12     1.0000 0.38243  0.03207  0.64467  Biso   1.000  Mn
  C45      1.0000 0.31773  0.07387  0.90767  Biso   1.000  C
  C46      1.0000 0.32643  0.12097  0.77667  Biso   1.000  C
  C47      1.0000 0.34543  0.12457  0.57967  Biso   1.000  C
  C48      1.0000 0.35003  0.17167  0.47667  Biso   1.000  C
  H12      1.0000 0.36076  0.16917  0.32943  Biso   1.000  H
  O34      1.0000 0.30473  0.07427  0.08067  Biso   1.000  O
  O35      1.0000 0.32883  0.03207  0.86567  Biso   1.000  O
  O36      1.0000 0.35603  0.08327  0.52767  Biso   1.000  O
  Mn13     1.0000 0.63460  0.68370  0.97800  Biso   1.000  Mn
  C49      1.0000 0.59280  0.57720  0.24100  Biso   1.000  C
  C50      1.0000 0.54570  0.53880  0.11000  Biso   1.000  C
  C51      1.0000 0.54210  0.55420  0.91300  Biso   1.000  C
  C52      1.0000 0.49500  0.51170  0.81000  Biso   1.000  C
  H13      1.0000 0.49750  0.52493  0.66276  Biso   1.000  H
  O37      1.0000 0.59240  0.56380  0.41400  Biso   1.000  O
  O38      1.0000 0.63460  0.63010  0.19900  Biso   1.000  O
  O39      1.0000 0.58340  0.60610  0.86100  Biso   1.000  O
  Mn14     1.0000 0.30127  0.01703  0.31133  Biso   1.000  Mn
  C53      1.0000 0.25947  0.91053  0.57433  Biso   1.000  C
  C54      1.0000 0.21237  0.87213  0.44333  Biso   1.000  C
  C55      1.0000 0.20877  0.88753  0.24633  Biso   1.000  C
  C56      1.0000 0.16167  0.84503  0.14333  Biso   1.000  C
  H14      1.0000 0.16417  0.85826  0.99609  Biso   1.000  H
  O40      1.0000 0.25907  0.89713  0.74733  Biso   1.000  O
  O41      1.0000 0.30127  0.96343  0.53233  Biso   1.000  O
  O42      1.0000 0.25007  0.93943  0.19433  Biso   1.000  O
  Mn15     1.0000 0.96793  0.35037  0.64467  Biso   1.000  Mn
  C57      1.0000 0.92613  0.24387  0.90767  Biso   1.000  C
  C58      1.0000 0.87903  0.20547  0.77667  Biso   1.000  C
  C59      1.0000 0.87543  0.22087  0.57967  Biso   1.000  C
  C60      1.0000 0.82833  0.17837  0.47667  Biso   1.000  C
  H15      1.0000 0.83083  0.19160  0.32943  Biso   1.000  H
  O43      1.0000 0.92573  0.23047  0.08067  Biso   1.000  O
  O44      1.0000 0.96793  0.29677  0.86567  Biso   1.000  O
  O45      1.0000 0.91673  0.27277  0.52767  Biso   1.000  O
  Mn16     1.0000 0.31630  0.95090  0.97800  Biso   1.000  Mn
  C61      1.0000 0.42280  0.01560  0.24100  Biso   1.000  C
  C62      1.0000 0.46120  0.00690  0.11000  Biso   1.000  C
  C63      1.0000 0.44580  0.98790  0.91300  Biso   1.000  C
  C64      1.0000 0.48830  0.98330  0.81000  Biso   1.000  C
  H16      1.0000 0.47507  0.97257  0.66276  Biso   1.000  H
  O46      1.0000 0.43620  0.02860  0.41400  Biso   1.000  O
  O47      1.0000 0.36990  0.00450  0.19900  Biso   1.000  O
  O48      1.0000 0.39390  0.97730  0.86100  Biso   1.000  O
  Mn17     1.0000 0.98297  0.28423  0.31133  Biso   1.000  Mn
  C65      1.0000 0.08947  0.34893  0.57433  Biso   1.000  C
  C66      1.0000 0.12787  0.34023  0.44333  Biso   1.000  C
  C67      1.0000 0.11247  0.32123  0.24633  Biso   1.000  C
  C68      1.0000 0.15497  0.31663  0.14333  Biso   1.000  C
  H17      1.0000 0.14174  0.30590  0.99609  Biso   1.000  H
  O49      1.0000 0.10287  0.36193  0.74733  Biso   1.000  O
  O50      1.0000 0.03657  0.33783  0.53233  Biso   1.000  O
  O51      1.0000 0.06057  0.31063  0.19433  Biso   1.000  O
  Mn18     1.0000 0.64963  0.61757  0.64467  Biso   1.000  Mn
  C69      1.0000 0.75613  0.68227  0.90767  Biso   1.000  C
  C70      1.0000 0.79453  0.67357  0.77667  Biso   1.000  C
  C71      1.0000 0.77913  0.65457  0.57967  Biso   1.000  C
  C72      1.0000 0.82163  0.64997  0.47667  Biso   1.000  C
  H18      1.0000 0.80840  0.63924  0.32943  Biso   1.000  H
  O52      1.0000 0.76953  0.69527  0.08067  Biso   1.000  O
  O53      1.0000 0.70323  0.67117  0.86567  Biso   1.000  O
  O54      1.0000 0.72723  0.64397  0.52767  Biso   1.000  O
