data_image0
_cell_length_a       26.2903
_cell_length_b       26.2903
_cell_length_c       7.0676
_cell_angle_alpha    90
_cell_angle_beta     90
_cell_angle_gamma    120

_symmetry_space_group_name_H-M    "P 1"
_symmetry_int_tables_number       1

loop_
  _symmetry_equiv_pos_as_xyz
  'x, y, z'

loop_
  _atom_site_label
  _atom_site_occupancy
  _atom_site_fract_x
  _atom_site_fract_y
  _atom_site_fract_z
  _atom_site_thermal_displace_type
  _atom_site_B_iso_or_equiv
  _atom_site_type_symbol
  Mn1      1.0000 0.95250  0.63680  0.02700  Biso   1.000  Mn
  C1       1.0000 0.01280  0.59170  0.75800  Biso   1.000  C
  C2       1.0000 0.00690  0.54520  0.89500  Biso   1.000  C
  C3       1.0000 0.99020  0.54410  0.08700  Biso   1.000  C
  C4       1.0000 0.98430  0.49700  0.18940  Biso   1.000  C
  H1       1.0000 0.97257  0.49750  0.33724  Biso   1.000  H
  O1       1.0000 0.03030  0.59230  0.59200  Biso   1.000  O
  O2       1.0000 0.00670  0.63530  0.80000  Biso   1.000  O
  O3       1.0000 0.97770  0.58530  0.14500  Biso   1.000  O
  Mn2      1.0000 0.61917  0.97013  0.36033  Biso   1.000  Mn
  C5       1.0000 0.67947  0.92503  0.09133  Biso   1.000  C
  C6       1.0000 0.67357  0.87853  0.22833  Biso   1.000  C
  C7       1.0000 0.65687  0.87743  0.42033  Biso   1.000  C
  C8       1.0000 0.65097  0.83033  0.52273  Biso   1.000  C
  H2       1.0000 0.63924  0.83083  0.67057  Biso   1.000  H
  O4       1.0000 0.69697  0.92563  0.92533  Biso   1.000  O
  O5       1.0000 0.67337  0.96863  0.13333  Biso   1.000  O
  O6       1.0000 0.64437  0.91863  0.47833  Biso   1.000  O
  Mn3      1.0000 0.28583  0.30347  0.69367  Biso   1.000  Mn
  C9       1.0000 0.34613  0.25837  0.42467  Biso   1.000  C
  C10      1.0000 0.34023  0.21187  0.56167  Biso   1.000  C
  C11      1.0000 0.32353  0.21077  0.75367  Biso   1.000  C
  C12      1.0000 0.31763  0.16367  0.85607  Biso   1.000  C
  H3       1.0000 0.30590  0.16417  0.00391  Biso   1.000  H
  O7       1.0000 0.36363  0.25897  0.25867  Biso   1.000  O
  O8       1.0000 0.34003  0.30197  0.46667  Biso   1.000  O
  O9       1.0000 0.31103  0.25197  0.81167  Biso   1.000  O
  Mn4      1.0000 0.36320  0.31570  0.02700  Biso   1.000  Mn
  C13      1.0000 0.40830  0.42110  0.75800  Biso   1.000  C
  C14      1.0000 0.45480  0.46170  0.89500  Biso   1.000  C
  C15      1.0000 0.45590  0.44610  0.08700  Biso   1.000  C
  C16      1.0000 0.50300  0.48730  0.18940  Biso   1.000  C
  H4       1.0000 0.50250  0.47507  0.33724  Biso   1.000  H
  O10      1.0000 0.40770  0.43800  0.59200  Biso   1.000  O
  O11      1.0000 0.36470  0.37140  0.80000  Biso   1.000  O
  O12      1.0000 0.41470  0.39240  0.14500  Biso   1.000  O
  Mn5      1.0000 0.02987  0.64903  0.36033  Biso   1.000  Mn
  C17      1.0000 0.07497  0.75443  0.09133  Biso   1.000  C
  C18      1.0000 0.12147  0.79503  0.22833  Biso   1.000  C
  C19      1.0000 0.12257  0.77943  0.42033  Biso   1.000  C
  C20      1.0000 0.16967  0.82063  0.52273  Biso   1.000  C
  H5       1.0000 0.16917  0.80840  0.67057  Biso   1.000  H
  O13      1.0000 0.07437  0.77133  0.92533  Biso   1.000  O
  O14      1.0000 0.03137  0.70473  0.13333  Biso   1.000  O
  O15      1.0000 0.08137  0.72573  0.47833  Biso   1.000  O
  Mn6      1.0000 0.69653  0.98237  0.69367  Biso   1.000  Mn
  C21      1.0000 0.74163  0.08777  0.42467  Biso   1.000  C
  C22      1.0000 0.78813  0.12837  0.56167  Biso   1.000  C
  C23      1.0000 0.78923  0.11277  0.75367  Biso   1.000  C
  C24      1.0000 0.83633  0.15397  0.85607  Biso   1.000  C
  H6       1.0000 0.83583  0.14174  0.00391  Biso   1.000  H
  O16      1.0000 0.74103  0.10467  0.25867  Biso   1.000  O
  O17      1.0000 0.69803  0.03807  0.46667  Biso   1.000  O
  O18      1.0000 0.74803  0.05907  0.81167  Biso   1.000  O
  Mn7      1.0000 0.68430  0.04750  0.02700  Biso   1.000  Mn
  C25      1.0000 0.57890  0.98720  0.75800  Biso   1.000  C
  C26      1.0000 0.53830  0.99310  0.89500  Biso   1.000  C
  C27      1.0000 0.55390  0.00980  0.08700  Biso   1.000  C
  C28      1.0000 0.51270  0.01570  0.18940  Biso   1.000  C
  H7       1.0000 0.52493  0.02743  0.33724  Biso   1.000  H
  O19      1.0000 0.56200  0.96970  0.59200  Biso   1.000  O
  O20      1.0000 0.62860  0.99330  0.80000  Biso   1.000  O
  O21      1.0000 0.60760  0.02230  0.14500  Biso   1.000  O
  Mn8      1.0000 0.35097  0.38083  0.36033  Biso   1.000  Mn
  C29      1.0000 0.24557  0.32053  0.09133  Biso   1.000  C
  C30      1.0000 0.20497  0.32643  0.22833  Biso   1.000  C
  C31      1.0000 0.22057  0.34313  0.42033  Biso   1.000  C
  C32      1.0000 0.17937  0.34903  0.52273  Biso   1.000  C
  H8       1.0000 0.19160  0.36076  0.67057  Biso   1.000  H
  O22      1.0000 0.22867  0.30303  0.92533  Biso   1.000  O
  O23      1.0000 0.29527  0.32663  0.13333  Biso   1.000  O
  O24      1.0000 0.27427  0.35563  0.47833  Biso   1.000  O
  Mn9      1.0000 0.01763  0.71417  0.69367  Biso   1.000  Mn
  C33      1.0000 0.91223  0.65387  0.42467  Biso   1.000  C
  C34      1.0000 0.87163  0.65977  0.56167  Biso   1.000  C
  C35      1.0000 0.88723  0.67647  0.75367  Biso   1.000  C
  C36      1.0000 0.84603  0.68237  0.85607  Biso   1.000  C
  H9       1.0000 0.85826  0.69410  0.00391  Biso   1.000  H
  O25      1.0000 0.89533  0.63637  0.25867  Biso   1.000  O
  O26      1.0000 0.96193  0.65997  0.46667  Biso   1.000  O
  O27      1.0000 0.94093  0.68897  0.81167  Biso   1.000  O
  Mn10     1.0000 0.04750  0.36320  0.97300  Biso   1.000  Mn
  C37      1.0000 0.98720  0.40830  0.24200  Biso   1.000  C
  C38      1.0000 0.99310  0.45480  0.10500  Biso   1.000  C
  C39      1.0000 0.00980  0.45590  0.91300  Biso   1.000  C
  C40      1.0000 0.01570  0.50300  0.81060  Biso   1.000  C
  H10      1.0000 0.02743  0.50250  0.66276  Biso   1.000  H
  O28      1.0000 0.96970  0.40770  0.40800  Biso   1.000  O
  O29      1.0000 0.99330  0.36470  0.20000  Biso   1.000  O
  O30      1.0000 0.02230  0.41470  0.85500  Biso   1.000  O
  Mn11     1.0000 0.71417  0.69653  0.30633  Biso   1.000  Mn
  C41      1.0000 0.65387  0.74163  0.57533  Biso   1.000  C
  C42      1.0000 0.65977  0.78813  0.43833  Biso   1.000  C
  C43      1.0000 0.67647  0.78923  0.24633  Biso   1.000  C
  C44      1.0000 0.68237  0.83633  0.14393  Biso   1.000  C
  H11      1.0000 0.69410  0.83583  0.99609  Biso   1.000  H
  O31      1.0000 0.63637  0.74103  0.74133  Biso   1.000  O
  O32      1.0000 0.65997  0.69803  0.53333  Biso   1.000  O
  O33      1.0000 0.68897  0.74803  0.18833  Biso   1.000  O
  Mn12     1.0000 0.38083  0.02987  0.63967  Biso   1.000  Mn
  C45      1.0000 0.32053  0.07497  0.90867  Biso   1.000  C
  C46      1.0000 0.32643  0.12147  0.77167  Biso   1.000  C
  C47      1.0000 0.34313  0.12257  0.57967  Biso   1.000  C
  C48      1.0000 0.34903  0.16967  0.47727  Biso   1.000  C
  H12      1.0000 0.36076  0.16917  0.32943  Biso   1.000  H
  O34      1.0000 0.30303  0.07437  0.07467  Biso   1.000  O
  O35      1.0000 0.32663  0.03137  0.86667  Biso   1.000  O
  O36      1.0000 0.35563  0.08137  0.52167  Biso   1.000  O
  Mn13     1.0000 0.63680  0.68430  0.97300  Biso   1.000  Mn
  C49      1.0000 0.59170  0.57890  0.24200  Biso   1.000  C
  C50      1.0000 0.54520  0.53830  0.10500  Biso   1.000  C
  C51      1.0000 0.54410  0.55390  0.91300  Biso   1.000  C
  C52      1.0000 0.49700  0.51270  0.81060  Biso   1.000  C
  H13      1.0000 0.49750  0.52493  0.66276  Biso   1.000  H
  O37      1.0000 0.59230  0.56200  0.40800  Biso   1.000  O
  O38      1.0000 0.63530  0.62860  0.20000  Biso   1.000  O
  O39      1.0000 0.58530  0.60760  0.85500  Biso   1.000  O
  Mn14     1.0000 0.30347  0.01763  0.30633  Biso   1.000  Mn
  C53      1.0000 0.25837  0.91223  0.57533  Biso   1.000  C
  C54      1.0000 0.21187  0.87163  0.43833  Biso   1.000  C
  C55      1.0000 0.21077  0.88723  0.24633  Biso   1.000  C
  C56      1.0000 0.16367  0.84603  0.14393  Biso   1.000  C
  H14      1.0000 0.16417  0.85826  0.99609  Biso   1.000  H
  O40      1.0000 0.25897  0.89533  0.74133  Biso   1.000  O
  O41      1.0000 0.30197  0.96193  0.53333  Biso   1.000  O
  O42      1.0000 0.25197  0.94093  0.18833  Biso   1.000  O
  Mn15     1.0000 0.97013  0.35097  0.63967  Biso   1.000  Mn
  C57      1.0000 0.92503  0.24557  0.90867  Biso   1.000  C
  C58      1.0000 0.87853  0.20497  0.77167  Biso   1.000  C
  C59      1.0000 0.87743  0.22057  0.57967  Biso   1.000  C
  C60      1.0000 0.83033  0.17937  0.47727  Biso   1.000  C
  H15      1.0000 0.83083  0.19160  0.32943  Biso   1.000  H
  O43      1.0000 0.92563  0.22867  0.07467  Biso   1.000  O
  O44      1.0000 0.96863  0.29527  0.86667  Biso   1.000  O
  O45      1.0000 0.91863  0.27427  0.52167  Biso   1.000  O
  Mn16     1.0000 0.31570  0.95250  0.97300  Biso   1.000  Mn
  C61      1.0000 0.42110  0.01280  0.24200  Biso   1.000  C
  C62      1.0000 0.46170  0.00690  0.10500  Biso   1.000  C
  C63      1.0000 0.44610  0.99020  0.91300  Biso   1.000  C
  C64      1.0000 0.48730  0.98430  0.81060  Biso   1.000  C
  H16      1.0000 0.47507  0.97257  0.66276  Biso   1.000  H
  O46      1.0000 0.43800  0.03030  0.40800  Biso   1.000  O
  O47      1.0000 0.37140  0.00670  0.20000  Biso   1.000  O
  O48      1.0000 0.39240  0.97770  0.85500  Biso   1.000  O
  Mn17     1.0000 0.98237  0.28583  0.30633  Biso   1.000  Mn
  C65      1.0000 0.08777  0.34613  0.57533  Biso   1.000  C
  C66      1.0000 0.12837  0.34023  0.43833  Biso   1.000  C
  C67      1.0000 0.11277  0.32353  0.24633  Biso   1.000  C
  C68      1.0000 0.15397  0.31763  0.14393  Biso   1.000  C
  H17      1.0000 0.14174  0.30590  0.99609  Biso   1.000  H
  O49      1.0000 0.10467  0.36363  0.74133  Biso   1.000  O
  O50      1.0000 0.03807  0.34003  0.53333  Biso   1.000  O
  O51      1.0000 0.05907  0.31103  0.18833  Biso   1.000  O
  Mn18     1.0000 0.64903  0.61917  0.63967  Biso   1.000  Mn
  C69      1.0000 0.75443  0.67947  0.90867  Biso   1.000  C
  C70      1.0000 0.79503  0.67357  0.77167  Biso   1.000  C
  C71      1.0000 0.77943  0.65687  0.57967  Biso   1.000  C
  C72      1.0000 0.82063  0.65097  0.47727  Biso   1.000  C
  H18      1.0000 0.80840  0.63924  0.32943  Biso   1.000  H
  O52      1.0000 0.77133  0.69697  0.07467  Biso   1.000  O
  O53      1.0000 0.70473  0.67337  0.86667  Biso   1.000  O
  O54      1.0000 0.72573  0.64437  0.52167  Biso   1.000  O
