data_image0
_cell_length_a       26.4363
_cell_length_b       26.4363
_cell_length_c       7.1068
_cell_angle_alpha    90
_cell_angle_beta     90
_cell_angle_gamma    120

_symmetry_space_group_name_H-M    "P 1"
_symmetry_int_tables_number       1

loop_
  _symmetry_equiv_pos_as_xyz
  'x, y, z'

loop_
  _atom_site_label
  _atom_site_occupancy
  _atom_site_fract_x
  _atom_site_fract_y
  _atom_site_fract_z
  _atom_site_thermal_displace_type
  _atom_site_B_iso_or_equiv
  _atom_site_type_symbol
  Mn1      1.0000 0.96290  0.64300  0.99600  Biso   1.000  Mn
  C1       1.0000 0.01950  0.59790  0.76700  Biso   1.000  C
  C2       1.0000 0.99980  0.54940  0.91900  Biso   1.000  C
  C3       1.0000 0.98830  0.53800  0.11000  Biso   1.000  C
  C4       1.0000 0.98560  0.49370  0.17700  Biso   1.000  C
  O1       1.0000 0.02610  0.58590  0.59900  Biso   1.000  O
  O2       1.0000 0.00130  0.63580  0.79600  Biso   1.000  O
  O3       1.0000 0.97940  0.58620  0.16000  Biso   1.000  O
  Mn2      1.0000 0.62957  0.97633  0.32933  Biso   1.000  Mn
  C5       1.0000 0.68617  0.93123  0.10033  Biso   1.000  C
  C6       1.0000 0.66647  0.88273  0.25233  Biso   1.000  C
  C7       1.0000 0.65497  0.87133  0.44333  Biso   1.000  C
  C8       1.0000 0.65227  0.82703  0.51033  Biso   1.000  C
  O4       1.0000 0.69277  0.91923  0.93233  Biso   1.000  O
  O5       1.0000 0.66797  0.96913  0.12933  Biso   1.000  O
  O6       1.0000 0.64607  0.91953  0.49333  Biso   1.000  O
  Mn3      1.0000 0.29623  0.30967  0.66267  Biso   1.000  Mn
  C9       1.0000 0.35283  0.26457  0.43367  Biso   1.000  C
  C10      1.0000 0.33313  0.21607  0.58567  Biso   1.000  C
  C11      1.0000 0.32163  0.20467  0.77667  Biso   1.000  C
  C12      1.0000 0.31893  0.16037  0.84367  Biso   1.000  C
  O7       1.0000 0.35943  0.25257  0.26567  Biso   1.000  O
  O8       1.0000 0.33463  0.30247  0.46267  Biso   1.000  O
  O9       1.0000 0.31273  0.25287  0.82667  Biso   1.000  O
  Mn4      1.0000 0.35700  0.31990  0.99600  Biso   1.000  Mn
  C13      1.0000 0.40210  0.42160  0.76700  Biso   1.000  C
  C14      1.0000 0.45060  0.45040  0.91900  Biso   1.000  C
  C15      1.0000 0.46200  0.45030  0.11000  Biso   1.000  C
  C16      1.0000 0.50630  0.49190  0.17700  Biso   1.000  C
  O10      1.0000 0.41410  0.44020  0.59900  Biso   1.000  O
  O11      1.0000 0.36420  0.36550  0.79600  Biso   1.000  O
  O12      1.0000 0.41380  0.39320  0.16000  Biso   1.000  O
  Mn5      1.0000 0.02367  0.65323  0.32933  Biso   1.000  Mn
  C17      1.0000 0.06877  0.75493  0.10033  Biso   1.000  C
  C18      1.0000 0.11727  0.78373  0.25233  Biso   1.000  C
  C19      1.0000 0.12867  0.78363  0.44333  Biso   1.000  C
  C20      1.0000 0.17297  0.82523  0.51033  Biso   1.000  C
  O13      1.0000 0.08077  0.77353  0.93233  Biso   1.000  O
  O14      1.0000 0.03087  0.69883  0.12933  Biso   1.000  O
  O15      1.0000 0.08047  0.72653  0.49333  Biso   1.000  O
  Mn6      1.0000 0.69033  0.98657  0.66267  Biso   1.000  Mn
  C21      1.0000 0.73543  0.08827  0.43367  Biso   1.000  C
  C22      1.0000 0.78393  0.11707  0.58567  Biso   1.000  C
  C23      1.0000 0.79533  0.11697  0.77667  Biso   1.000  C
  C24      1.0000 0.83963  0.15857  0.84367  Biso   1.000  C
  O16      1.0000 0.74743  0.10687  0.26567  Biso   1.000  O
  O17      1.0000 0.69753  0.03217  0.46267  Biso   1.000  O
  O18      1.0000 0.74713  0.05987  0.82667  Biso   1.000  O
  Mn7      1.0000 0.68010  0.03710  0.99600  Biso   1.000  Mn
  C25      1.0000 0.57840  0.98050  0.76700  Biso   1.000  C
  C26      1.0000 0.54960  0.00020  0.91900  Biso   1.000  C
  C27      1.0000 0.54970  0.01170  0.11000  Biso   1.000  C
  C28      1.0000 0.50810  0.01440  0.17700  Biso   1.000  C
  O19      1.0000 0.55980  0.97390  0.59900  Biso   1.000  O
  O20      1.0000 0.63450  0.99870  0.79600  Biso   1.000  O
  O21      1.0000 0.60680  0.02060  0.16000  Biso   1.000  O
  Mn8      1.0000 0.34677  0.37043  0.32933  Biso   1.000  Mn
  C29      1.0000 0.24507  0.31383  0.10033  Biso   1.000  C
  C30      1.0000 0.21627  0.33353  0.25233  Biso   1.000  C
  C31      1.0000 0.21637  0.34503  0.44333  Biso   1.000  C
  C32      1.0000 0.17477  0.34773  0.51033  Biso   1.000  C
  O22      1.0000 0.22647  0.30723  0.93233  Biso   1.000  O
  O23      1.0000 0.30117  0.33203  0.12933  Biso   1.000  O
  O24      1.0000 0.27347  0.35393  0.49333  Biso   1.000  O
  Mn9      1.0000 0.01343  0.70377  0.66267  Biso   1.000  Mn
  C33      1.0000 0.91173  0.64717  0.43367  Biso   1.000  C
  C34      1.0000 0.88293  0.66687  0.58567  Biso   1.000  C
  C35      1.0000 0.88303  0.67837  0.77667  Biso   1.000  C
  C36      1.0000 0.84143  0.68107  0.84367  Biso   1.000  C
  O25      1.0000 0.89313  0.64057  0.26567  Biso   1.000  O
  O26      1.0000 0.96783  0.66537  0.46267  Biso   1.000  O
  O27      1.0000 0.94013  0.68727  0.82667  Biso   1.000  O
  Mn10     1.0000 0.03710  0.35700  0.00400  Biso   1.000  Mn
  C37      1.0000 0.98050  0.40210  0.23300  Biso   1.000  C
  C38      1.0000 0.00020  0.45060  0.08100  Biso   1.000  C
  C39      1.0000 0.01170  0.46200  0.89000  Biso   1.000  C
  C40      1.0000 0.01440  0.50630  0.82300  Biso   1.000  C
  O28      1.0000 0.97390  0.41410  0.40100  Biso   1.000  O
  O29      1.0000 0.99870  0.36420  0.20400  Biso   1.000  O
  O30      1.0000 0.02060  0.41380  0.84000  Biso   1.000  O
  Mn11     1.0000 0.70377  0.69033  0.33733  Biso   1.000  Mn
  C41      1.0000 0.64717  0.73543  0.56633  Biso   1.000  C
  C42      1.0000 0.66687  0.78393  0.41433  Biso   1.000  C
  C43      1.0000 0.67837  0.79533  0.22333  Biso   1.000  C
  C44      1.0000 0.68107  0.83963  0.15633  Biso   1.000  C
  O31      1.0000 0.64057  0.74743  0.73433  Biso   1.000  O
  O32      1.0000 0.66537  0.69753  0.53733  Biso   1.000  O
  O33      1.0000 0.68727  0.74713  0.17333  Biso   1.000  O
  Mn12     1.0000 0.37043  0.02367  0.67067  Biso   1.000  Mn
  C45      1.0000 0.31383  0.06877  0.89967  Biso   1.000  C
  C46      1.0000 0.33353  0.11727  0.74767  Biso   1.000  C
  C47      1.0000 0.34503  0.12867  0.55667  Biso   1.000  C
  C48      1.0000 0.34773  0.17297  0.48967  Biso   1.000  C
  O34      1.0000 0.30723  0.08077  0.06767  Biso   1.000  O
  O35      1.0000 0.33203  0.03087  0.87067  Biso   1.000  O
  O36      1.0000 0.35393  0.08047  0.50667  Biso   1.000  O
  Mn13     1.0000 0.64300  0.68010  0.00400  Biso   1.000  Mn
  C49      1.0000 0.59790  0.57840  0.23300  Biso   1.000  C
  C50      1.0000 0.54940  0.54960  0.08100  Biso   1.000  C
  C51      1.0000 0.53800  0.54970  0.89000  Biso   1.000  C
  C52      1.0000 0.49370  0.50810  0.82300  Biso   1.000  C
  O37      1.0000 0.58590  0.55980  0.40100  Biso   1.000  O
  O38      1.0000 0.63580  0.63450  0.20400  Biso   1.000  O
  O39      1.0000 0.58620  0.60680  0.84000  Biso   1.000  O
  Mn14     1.0000 0.30967  0.01343  0.33733  Biso   1.000  Mn
  C53      1.0000 0.26457  0.91173  0.56633  Biso   1.000  C
  C54      1.0000 0.21607  0.88293  0.41433  Biso   1.000  C
  C55      1.0000 0.20467  0.88303  0.22333  Biso   1.000  C
  C56      1.0000 0.16037  0.84143  0.15633  Biso   1.000  C
  O40      1.0000 0.25257  0.89313  0.73433  Biso   1.000  O
  O41      1.0000 0.30247  0.96783  0.53733  Biso   1.000  O
  O42      1.0000 0.25287  0.94013  0.17333  Biso   1.000  O
  Mn15     1.0000 0.97633  0.34677  0.67067  Biso   1.000  Mn
  C57      1.0000 0.93123  0.24507  0.89967  Biso   1.000  C
  C58      1.0000 0.88273  0.21627  0.74767  Biso   1.000  C
  C59      1.0000 0.87133  0.21637  0.55667  Biso   1.000  C
  C60      1.0000 0.82703  0.17477  0.48967  Biso   1.000  C
  O43      1.0000 0.91923  0.22647  0.06767  Biso   1.000  O
  O44      1.0000 0.96913  0.30117  0.87067  Biso   1.000  O
  O45      1.0000 0.91953  0.27347  0.50667  Biso   1.000  O
  Mn16     1.0000 0.31990  0.96290  0.00400  Biso   1.000  Mn
  C61      1.0000 0.42160  0.01950  0.23300  Biso   1.000  C
  C62      1.0000 0.45040  0.99980  0.08100  Biso   1.000  C
  C63      1.0000 0.45030  0.98830  0.89000  Biso   1.000  C
  C64      1.0000 0.49190  0.98560  0.82300  Biso   1.000  C
  O46      1.0000 0.44020  0.02610  0.40100  Biso   1.000  O
  O47      1.0000 0.36550  0.00130  0.20400  Biso   1.000  O
  O48      1.0000 0.39320  0.97940  0.84000  Biso   1.000  O
  Mn17     1.0000 0.98657  0.29623  0.33733  Biso   1.000  Mn
  C65      1.0000 0.08827  0.35283  0.56633  Biso   1.000  C
  C66      1.0000 0.11707  0.33313  0.41433  Biso   1.000  C
  C67      1.0000 0.11697  0.32163  0.22333  Biso   1.000  C
  C68      1.0000 0.15857  0.31893  0.15633  Biso   1.000  C
  O49      1.0000 0.10687  0.35943  0.73433  Biso   1.000  O
  O50      1.0000 0.03217  0.33463  0.53733  Biso   1.000  O
  O51      1.0000 0.05987  0.31273  0.17333  Biso   1.000  O
  Mn18     1.0000 0.65323  0.62957  0.67067  Biso   1.000  Mn
  C69      1.0000 0.75493  0.68617  0.89967  Biso   1.000  C
  C70      1.0000 0.78373  0.66647  0.74767  Biso   1.000  C
  C71      1.0000 0.78363  0.65497  0.55667  Biso   1.000  C
  C72      1.0000 0.82523  0.65227  0.48967  Biso   1.000  C
  O52      1.0000 0.77353  0.69277  0.06767  Biso   1.000  O
  O53      1.0000 0.69883  0.66797  0.87067  Biso   1.000  O
  O54      1.0000 0.72653  0.64607  0.50667  Biso   1.000  O
