data_image0
_cell_length_a       26.2978
_cell_length_b       26.2978
_cell_length_c       7.0741
_cell_angle_alpha    90
_cell_angle_beta     90
_cell_angle_gamma    120

_symmetry_space_group_name_H-M    "P 1"
_symmetry_int_tables_number       1

loop_
  _symmetry_equiv_pos_as_xyz
  'x, y, z'

loop_
  _atom_site_label
  _atom_site_occupancy
  _atom_site_fract_x
  _atom_site_fract_y
  _atom_site_fract_z
  _atom_site_thermal_displace_type
  _atom_site_B_iso_or_equiv
  _atom_site_type_symbol
  Mn1      1.0000 0.95080  0.63850  0.01800  Biso   1.000  Mn
  C1       1.0000 0.01250  0.59020  0.75500  Biso   1.000  C
  C2       1.0000 0.00710  0.54550  0.87400  Biso   1.000  C
  C3       1.0000 0.99300  0.54330  0.06800  Biso   1.000  C
  C4       1.0000 0.98180  0.49800  0.19300  Biso   1.000  C
  H1       1.0000 0.97257  0.49750  0.33724  Biso   1.000  H
  O1       1.0000 0.03260  0.59300  0.58100  Biso   1.000  O
  O2       1.0000 0.00870  0.63350  0.78900  Biso   1.000  O
  O3       1.0000 0.97640  0.58030  0.14100  Biso   1.000  O
  Mn2      1.0000 0.61747  0.97183  0.35133  Biso   1.000  Mn
  C5       1.0000 0.67917  0.92353  0.08833  Biso   1.000  C
  C6       1.0000 0.67377  0.87883  0.20733  Biso   1.000  C
  C7       1.0000 0.65967  0.87663  0.40133  Biso   1.000  C
  C8       1.0000 0.64847  0.83133  0.52633  Biso   1.000  C
  H2       1.0000 0.63924  0.83083  0.67057  Biso   1.000  H
  O4       1.0000 0.69927  0.92633  0.91433  Biso   1.000  O
  O5       1.0000 0.67537  0.96683  0.12233  Biso   1.000  O
  O6       1.0000 0.64307  0.91363  0.47433  Biso   1.000  O
  Mn3      1.0000 0.28413  0.30517  0.68467  Biso   1.000  Mn
  C9       1.0000 0.34583  0.25687  0.42167  Biso   1.000  C
  C10      1.0000 0.34043  0.21217  0.54067  Biso   1.000  C
  C11      1.0000 0.32633  0.20997  0.73467  Biso   1.000  C
  C12      1.0000 0.31513  0.16467  0.85967  Biso   1.000  C
  H3       1.0000 0.30590  0.16417  0.00391  Biso   1.000  H
  O7       1.0000 0.36593  0.25967  0.24767  Biso   1.000  O
  O8       1.0000 0.34203  0.30017  0.45567  Biso   1.000  O
  O9       1.0000 0.30973  0.24697  0.80767  Biso   1.000  O
  Mn4      1.0000 0.36150  0.31230  0.01800  Biso   1.000  Mn
  C13      1.0000 0.40980  0.42230  0.75500  Biso   1.000  C
  C14      1.0000 0.45450  0.46160  0.87400  Biso   1.000  C
  C15      1.0000 0.45670  0.44970  0.06800  Biso   1.000  C
  C16      1.0000 0.50200  0.48380  0.19300  Biso   1.000  C
  H4       1.0000 0.50250  0.47507  0.33724  Biso   1.000  H
  O10      1.0000 0.40700  0.43960  0.58100  Biso   1.000  O
  O11      1.0000 0.36650  0.37520  0.78900  Biso   1.000  O
  O12      1.0000 0.41970  0.39610  0.14100  Biso   1.000  O
  Mn5      1.0000 0.02817  0.64563  0.35133  Biso   1.000  Mn
  C17      1.0000 0.07647  0.75563  0.08833  Biso   1.000  C
  C18      1.0000 0.12117  0.79493  0.20733  Biso   1.000  C
  C19      1.0000 0.12337  0.78303  0.40133  Biso   1.000  C
  C20      1.0000 0.16867  0.81713  0.52633  Biso   1.000  C
  H5       1.0000 0.16917  0.80840  0.67057  Biso   1.000  H
  O13      1.0000 0.07367  0.77293  0.91433  Biso   1.000  O
  O14      1.0000 0.03317  0.70853  0.12233  Biso   1.000  O
  O15      1.0000 0.08637  0.72943  0.47433  Biso   1.000  O
  Mn6      1.0000 0.69483  0.97897  0.68467  Biso   1.000  Mn
  C21      1.0000 0.74313  0.08897  0.42167  Biso   1.000  C
  C22      1.0000 0.78783  0.12827  0.54067  Biso   1.000  C
  C23      1.0000 0.79003  0.11637  0.73467  Biso   1.000  C
  C24      1.0000 0.83533  0.15047  0.85967  Biso   1.000  C
  H6       1.0000 0.83583  0.14174  0.00391  Biso   1.000  H
  O16      1.0000 0.74033  0.10627  0.24767  Biso   1.000  O
  O17      1.0000 0.69983  0.04187  0.45567  Biso   1.000  O
  O18      1.0000 0.75303  0.06277  0.80767  Biso   1.000  O
  Mn7      1.0000 0.68770  0.04920  0.01800  Biso   1.000  Mn
  C25      1.0000 0.57770  0.98750  0.75500  Biso   1.000  C
  C26      1.0000 0.53840  0.99290  0.87400  Biso   1.000  C
  C27      1.0000 0.55030  0.00700  0.06800  Biso   1.000  C
  C28      1.0000 0.51620  0.01820  0.19300  Biso   1.000  C
  H7       1.0000 0.52493  0.02743  0.33724  Biso   1.000  H
  O19      1.0000 0.56040  0.96740  0.58100  Biso   1.000  O
  O20      1.0000 0.62480  0.99130  0.78900  Biso   1.000  O
  O21      1.0000 0.60390  0.02360  0.14100  Biso   1.000  O
  Mn8      1.0000 0.35437  0.38253  0.35133  Biso   1.000  Mn
  C29      1.0000 0.24437  0.32083  0.08833  Biso   1.000  C
  C30      1.0000 0.20507  0.32623  0.20733  Biso   1.000  C
  C31      1.0000 0.21697  0.34033  0.40133  Biso   1.000  C
  C32      1.0000 0.18287  0.35153  0.52633  Biso   1.000  C
  H8       1.0000 0.19160  0.36076  0.67057  Biso   1.000  H
  O22      1.0000 0.22707  0.30073  0.91433  Biso   1.000  O
  O23      1.0000 0.29147  0.32463  0.12233  Biso   1.000  O
  O24      1.0000 0.27057  0.35693  0.47433  Biso   1.000  O
  Mn9      1.0000 0.02103  0.71587  0.68467  Biso   1.000  Mn
  C33      1.0000 0.91103  0.65417  0.42167  Biso   1.000  C
  C34      1.0000 0.87173  0.65957  0.54067  Biso   1.000  C
  C35      1.0000 0.88363  0.67367  0.73467  Biso   1.000  C
  C36      1.0000 0.84953  0.68487  0.85967  Biso   1.000  C
  H9       1.0000 0.85826  0.69410  0.00391  Biso   1.000  H
  O25      1.0000 0.89373  0.63407  0.24767  Biso   1.000  O
  O26      1.0000 0.95813  0.65797  0.45567  Biso   1.000  O
  O27      1.0000 0.93723  0.69027  0.80767  Biso   1.000  O
  Mn10     1.0000 0.04920  0.36150  0.98200  Biso   1.000  Mn
  C37      1.0000 0.98750  0.40980  0.24500  Biso   1.000  C
  C38      1.0000 0.99290  0.45450  0.12600  Biso   1.000  C
  C39      1.0000 0.00700  0.45670  0.93200  Biso   1.000  C
  C40      1.0000 0.01820  0.50200  0.80700  Biso   1.000  C
  H10      1.0000 0.02743  0.50250  0.66276  Biso   1.000  H
  O28      1.0000 0.96740  0.40700  0.41900  Biso   1.000  O
  O29      1.0000 0.99130  0.36650  0.21100  Biso   1.000  O
  O30      1.0000 0.02360  0.41970  0.85900  Biso   1.000  O
  Mn11     1.0000 0.71587  0.69483  0.31533  Biso   1.000  Mn
  C41      1.0000 0.65417  0.74313  0.57833  Biso   1.000  C
  C42      1.0000 0.65957  0.78783  0.45933  Biso   1.000  C
  C43      1.0000 0.67367  0.79003  0.26533  Biso   1.000  C
  C44      1.0000 0.68487  0.83533  0.14033  Biso   1.000  C
  H11      1.0000 0.69410  0.83583  0.99609  Biso   1.000  H
  O31      1.0000 0.63407  0.74033  0.75233  Biso   1.000  O
  O32      1.0000 0.65797  0.69983  0.54433  Biso   1.000  O
  O33      1.0000 0.69027  0.75303  0.19233  Biso   1.000  O
  Mn12     1.0000 0.38253  0.02817  0.64867  Biso   1.000  Mn
  C45      1.0000 0.32083  0.07647  0.91167  Biso   1.000  C
  C46      1.0000 0.32623  0.12117  0.79267  Biso   1.000  C
  C47      1.0000 0.34033  0.12337  0.59867  Biso   1.000  C
  C48      1.0000 0.35153  0.16867  0.47367  Biso   1.000  C
  H12      1.0000 0.36076  0.16917  0.32943  Biso   1.000  H
  O34      1.0000 0.30073  0.07367  0.08567  Biso   1.000  O
  O35      1.0000 0.32463  0.03317  0.87767  Biso   1.000  O
  O36      1.0000 0.35693  0.08637  0.52567  Biso   1.000  O
  Mn13     1.0000 0.63850  0.68770  0.98200  Biso   1.000  Mn
  C49      1.0000 0.59020  0.57770  0.24500  Biso   1.000  C
  C50      1.0000 0.54550  0.53840  0.12600  Biso   1.000  C
  C51      1.0000 0.54330  0.55030  0.93200  Biso   1.000  C
  C52      1.0000 0.49800  0.51620  0.80700  Biso   1.000  C
  H13      1.0000 0.49750  0.52493  0.66276  Biso   1.000  H
  O37      1.0000 0.59300  0.56040  0.41900  Biso   1.000  O
  O38      1.0000 0.63350  0.62480  0.21100  Biso   1.000  O
  O39      1.0000 0.58030  0.60390  0.85900  Biso   1.000  O
  Mn14     1.0000 0.30517  0.02103  0.31533  Biso   1.000  Mn
  C53      1.0000 0.25687  0.91103  0.57833  Biso   1.000  C
  C54      1.0000 0.21217  0.87173  0.45933  Biso   1.000  C
  C55      1.0000 0.20997  0.88363  0.26533  Biso   1.000  C
  C56      1.0000 0.16467  0.84953  0.14033  Biso   1.000  C
  H14      1.0000 0.16417  0.85826  0.99609  Biso   1.000  H
  O40      1.0000 0.25967  0.89373  0.75233  Biso   1.000  O
  O41      1.0000 0.30017  0.95813  0.54433  Biso   1.000  O
  O42      1.0000 0.24697  0.93723  0.19233  Biso   1.000  O
  Mn15     1.0000 0.97183  0.35437  0.64867  Biso   1.000  Mn
  C57      1.0000 0.92353  0.24437  0.91167  Biso   1.000  C
  C58      1.0000 0.87883  0.20507  0.79267  Biso   1.000  C
  C59      1.0000 0.87663  0.21697  0.59867  Biso   1.000  C
  C60      1.0000 0.83133  0.18287  0.47367  Biso   1.000  C
  H15      1.0000 0.83083  0.19160  0.32943  Biso   1.000  H
  O43      1.0000 0.92633  0.22707  0.08567  Biso   1.000  O
  O44      1.0000 0.96683  0.29147  0.87767  Biso   1.000  O
  O45      1.0000 0.91363  0.27057  0.52567  Biso   1.000  O
  Mn16     1.0000 0.31230  0.95080  0.98200  Biso   1.000  Mn
  C61      1.0000 0.42230  0.01250  0.24500  Biso   1.000  C
  C62      1.0000 0.46160  0.00710  0.12600  Biso   1.000  C
  C63      1.0000 0.44970  0.99300  0.93200  Biso   1.000  C
  C64      1.0000 0.48380  0.98180  0.80700  Biso   1.000  C
  H16      1.0000 0.47507  0.97257  0.66276  Biso   1.000  H
  O46      1.0000 0.43960  0.03260  0.41900  Biso   1.000  O
  O47      1.0000 0.37520  0.00870  0.21100  Biso   1.000  O
  O48      1.0000 0.39610  0.97640  0.85900  Biso   1.000  O
  Mn17     1.0000 0.97897  0.28413  0.31533  Biso   1.000  Mn
  C65      1.0000 0.08897  0.34583  0.57833  Biso   1.000  C
  C66      1.0000 0.12827  0.34043  0.45933  Biso   1.000  C
  C67      1.0000 0.11637  0.32633  0.26533  Biso   1.000  C
  C68      1.0000 0.15047  0.31513  0.14033  Biso   1.000  C
  H17      1.0000 0.14174  0.30590  0.99609  Biso   1.000  H
  O49      1.0000 0.10627  0.36593  0.75233  Biso   1.000  O
  O50      1.0000 0.04187  0.34203  0.54433  Biso   1.000  O
  O51      1.0000 0.06277  0.30973  0.19233  Biso   1.000  O
  Mn18     1.0000 0.64563  0.61747  0.64867  Biso   1.000  Mn
  C69      1.0000 0.75563  0.67917  0.91167  Biso   1.000  C
  C70      1.0000 0.79493  0.67377  0.79267  Biso   1.000  C
  C71      1.0000 0.78303  0.65967  0.59867  Biso   1.000  C
  C72      1.0000 0.81713  0.64847  0.47367  Biso   1.000  C
  H18      1.0000 0.80840  0.63924  0.32943  Biso   1.000  H
  O52      1.0000 0.77293  0.69927  0.08567  Biso   1.000  O
  O53      1.0000 0.70853  0.67537  0.87767  Biso   1.000  O
  O54      1.0000 0.72943  0.64307  0.52567  Biso   1.000  O
