data_image0
_cell_length_a       25.8776
_cell_length_b       25.8776
_cell_length_c       6.2623
_cell_angle_alpha    90
_cell_angle_beta     90
_cell_angle_gamma    120

_symmetry_space_group_name_H-M    "P 1"
_symmetry_int_tables_number       1

loop_
  _symmetry_equiv_pos_as_xyz
  'x, y, z'

loop_
  _atom_site_label
  _atom_site_occupancy
  _atom_site_fract_x
  _atom_site_fract_y
  _atom_site_fract_z
  _atom_site_thermal_displace_type
  _atom_site_B_iso_or_equiv
  _atom_site_type_symbol
  Cu1      1.0000 0.94630  0.63150  0.97900  Biso   1.000  Cu
  C1       1.0000 0.00640  0.58560  0.71100  Biso   1.000  C
  C2       1.0000 0.02360  0.50620  0.78800  Biso   1.000  C
  C3       1.0000 0.00390  0.54320  0.87300  Biso   1.000  C
  C4       1.0000 0.98480  0.54280  0.08700  Biso   1.000  C
  H1       1.0000 0.03830  0.51200  0.63600  Biso   1.000  H
  O1       1.0000 0.04060  0.60200  0.54200  Biso   1.000  O
  O2       1.0000 0.97860  0.61530  0.72600  Biso   1.000  O
  O3       1.0000 0.96940  0.58540  0.14700  Biso   1.000  O
  Cu2      1.0000 0.61297  0.96483  0.31233  Biso   1.000  Cu
  C5       1.0000 0.67307  0.91893  0.04433  Biso   1.000  C
  C6       1.0000 0.69027  0.83953  0.12133  Biso   1.000  C
  C7       1.0000 0.67057  0.87653  0.20633  Biso   1.000  C
  C8       1.0000 0.65147  0.87613  0.42033  Biso   1.000  C
  H2       1.0000 0.70497  0.84533  0.96933  Biso   1.000  H
  O4       1.0000 0.70727  0.93533  0.87533  Biso   1.000  O
  O5       1.0000 0.64527  0.94863  0.05933  Biso   1.000  O
  O6       1.0000 0.63607  0.91873  0.48033  Biso   1.000  O
  Cu3      1.0000 0.27963  0.29817  0.64567  Biso   1.000  Cu
  C9       1.0000 0.33973  0.25227  0.37767  Biso   1.000  C
  C10      1.0000 0.35693  0.17287  0.45467  Biso   1.000  C
  C11      1.0000 0.33723  0.20987  0.53967  Biso   1.000  C
  C12      1.0000 0.31813  0.20947  0.75367  Biso   1.000  C
  H3       1.0000 0.37163  0.17867  0.30267  Biso   1.000  H
  O7       1.0000 0.37393  0.26867  0.20867  Biso   1.000  O
  O8       1.0000 0.31193  0.28197  0.39267  Biso   1.000  O
  O9       1.0000 0.30273  0.25207  0.81367  Biso   1.000  O
  Cu4      1.0000 0.36850  0.31480  0.97900  Biso   1.000  Cu
  C13      1.0000 0.41440  0.42080  0.71100  Biso   1.000  C
  C14      1.0000 0.49380  0.51740  0.78800  Biso   1.000  C
  C15      1.0000 0.45680  0.46070  0.87300  Biso   1.000  C
  C16      1.0000 0.45720  0.44200  0.08700  Biso   1.000  C
  H4       1.0000 0.48800  0.52630  0.63600  Biso   1.000  H
  O10      1.0000 0.39800  0.43860  0.54200  Biso   1.000  O
  O11      1.0000 0.38470  0.36330  0.72600  Biso   1.000  O
  O12      1.0000 0.41460  0.38400  0.14700  Biso   1.000  O
  Cu5      1.0000 0.03517  0.64813  0.31233  Biso   1.000  Cu
  C17      1.0000 0.08107  0.75413  0.04433  Biso   1.000  C
  C18      1.0000 0.16047  0.85073  0.12133  Biso   1.000  C
  C19      1.0000 0.12347  0.79403  0.20633  Biso   1.000  C
  C20      1.0000 0.12387  0.77533  0.42033  Biso   1.000  C
  H5       1.0000 0.15467  0.85963  0.96933  Biso   1.000  H
  O13      1.0000 0.06467  0.77193  0.87533  Biso   1.000  O
  O14      1.0000 0.05137  0.69663  0.05933  Biso   1.000  O
  O15      1.0000 0.08127  0.71733  0.48033  Biso   1.000  O
  Cu6      1.0000 0.70183  0.98147  0.64567  Biso   1.000  Cu
  C21      1.0000 0.74773  0.08747  0.37767  Biso   1.000  C
  C22      1.0000 0.82713  0.18407  0.45467  Biso   1.000  C
  C23      1.0000 0.79013  0.12737  0.53967  Biso   1.000  C
  C24      1.0000 0.79053  0.10867  0.75367  Biso   1.000  C
  H6       1.0000 0.82133  0.19297  0.30267  Biso   1.000  H
  O16      1.0000 0.73133  0.10527  0.20867  Biso   1.000  O
  O17      1.0000 0.71803  0.02997  0.39267  Biso   1.000  O
  O18      1.0000 0.74793  0.05067  0.81367  Biso   1.000  O
  Cu7      1.0000 0.68520  0.05370  0.97900  Biso   1.000  Cu
  C25      1.0000 0.57920  0.99360  0.71100  Biso   1.000  C
  C26      1.0000 0.48260  0.97640  0.78800  Biso   1.000  C
  C27      1.0000 0.53930  0.99610  0.87300  Biso   1.000  C
  C28      1.0000 0.55800  0.01520  0.08700  Biso   1.000  C
  H7       1.0000 0.47370  0.96170  0.63600  Biso   1.000  H
  O19      1.0000 0.56140  0.95940  0.54200  Biso   1.000  O
  O20      1.0000 0.63670  0.02140  0.72600  Biso   1.000  O
  O21      1.0000 0.61600  0.03060  0.14700  Biso   1.000  O
  Cu8      1.0000 0.35187  0.38703  0.31233  Biso   1.000  Cu
  C29      1.0000 0.24587  0.32693  0.04433  Biso   1.000  C
  C30      1.0000 0.14927  0.30973  0.12133  Biso   1.000  C
  C31      1.0000 0.20597  0.32943  0.20633  Biso   1.000  C
  C32      1.0000 0.22467  0.34853  0.42033  Biso   1.000  C
  H8       1.0000 0.14037  0.29503  0.96933  Biso   1.000  H
  O22      1.0000 0.22807  0.29273  0.87533  Biso   1.000  O
  O23      1.0000 0.30337  0.35473  0.05933  Biso   1.000  O
  O24      1.0000 0.28267  0.36393  0.48033  Biso   1.000  O
  Cu9      1.0000 0.01853  0.72037  0.64567  Biso   1.000  Cu
  C33      1.0000 0.91253  0.66027  0.37767  Biso   1.000  C
  C34      1.0000 0.81593  0.64307  0.45467  Biso   1.000  C
  C35      1.0000 0.87263  0.66277  0.53967  Biso   1.000  C
  C36      1.0000 0.89133  0.68187  0.75367  Biso   1.000  C
  H9       1.0000 0.80703  0.62837  0.30267  Biso   1.000  H
  O25      1.0000 0.89473  0.62607  0.20867  Biso   1.000  O
  O26      1.0000 0.97003  0.68807  0.39267  Biso   1.000  O
  O27      1.0000 0.94933  0.69727  0.81367  Biso   1.000  O
  Cu10     1.0000 0.05370  0.36850  0.02100  Biso   1.000  Cu
  C37      1.0000 0.99360  0.41440  0.28900  Biso   1.000  C
  C38      1.0000 0.97640  0.49380  0.21200  Biso   1.000  C
  C39      1.0000 0.99610  0.45680  0.12700  Biso   1.000  C
  C40      1.0000 0.01520  0.45720  0.91300  Biso   1.000  C
  H10      1.0000 0.96170  0.48800  0.36400  Biso   1.000  H
  O28      1.0000 0.95940  0.39800  0.45800  Biso   1.000  O
  O29      1.0000 0.02140  0.38470  0.27400  Biso   1.000  O
  O30      1.0000 0.03060  0.41460  0.85300  Biso   1.000  O
  Cu11     1.0000 0.72037  0.70183  0.35433  Biso   1.000  Cu
  C41      1.0000 0.66027  0.74773  0.62233  Biso   1.000  C
  C42      1.0000 0.64307  0.82713  0.54533  Biso   1.000  C
  C43      1.0000 0.66277  0.79013  0.46033  Biso   1.000  C
  C44      1.0000 0.68187  0.79053  0.24633  Biso   1.000  C
  H11      1.0000 0.62837  0.82133  0.69733  Biso   1.000  H
  O31      1.0000 0.62607  0.73133  0.79133  Biso   1.000  O
  O32      1.0000 0.68807  0.71803  0.60733  Biso   1.000  O
  O33      1.0000 0.69727  0.74793  0.18633  Biso   1.000  O
  Cu12     1.0000 0.38703  0.03517  0.68767  Biso   1.000  Cu
  C45      1.0000 0.32693  0.08107  0.95567  Biso   1.000  C
  C46      1.0000 0.30973  0.16047  0.87867  Biso   1.000  C
  C47      1.0000 0.32943  0.12347  0.79367  Biso   1.000  C
  C48      1.0000 0.34853  0.12387  0.57967  Biso   1.000  C
  H12      1.0000 0.29503  0.15467  0.03067  Biso   1.000  H
  O34      1.0000 0.29273  0.06467  0.12467  Biso   1.000  O
  O35      1.0000 0.35473  0.05137  0.94067  Biso   1.000  O
  O36      1.0000 0.36393  0.08127  0.51967  Biso   1.000  O
  Cu13     1.0000 0.63150  0.68520  0.02100  Biso   1.000  Cu
  C49      1.0000 0.58560  0.57920  0.28900  Biso   1.000  C
  C50      1.0000 0.50620  0.48260  0.21200  Biso   1.000  C
  C51      1.0000 0.54320  0.53930  0.12700  Biso   1.000  C
  C52      1.0000 0.54280  0.55800  0.91300  Biso   1.000  C
  H13      1.0000 0.51200  0.47370  0.36400  Biso   1.000  H
  O37      1.0000 0.60200  0.56140  0.45800  Biso   1.000  O
  O38      1.0000 0.61530  0.63670  0.27400  Biso   1.000  O
  O39      1.0000 0.58540  0.61600  0.85300  Biso   1.000  O
  Cu14     1.0000 0.29817  0.01853  0.35433  Biso   1.000  Cu
  C53      1.0000 0.25227  0.91253  0.62233  Biso   1.000  C
  C54      1.0000 0.17287  0.81593  0.54533  Biso   1.000  C
  C55      1.0000 0.20987  0.87263  0.46033  Biso   1.000  C
  C56      1.0000 0.20947  0.89133  0.24633  Biso   1.000  C
  H14      1.0000 0.17867  0.80703  0.69733  Biso   1.000  H
  O40      1.0000 0.26867  0.89473  0.79133  Biso   1.000  O
  O41      1.0000 0.28197  0.97003  0.60733  Biso   1.000  O
  O42      1.0000 0.25207  0.94933  0.18633  Biso   1.000  O
  Cu15     1.0000 0.96483  0.35187  0.68767  Biso   1.000  Cu
  C57      1.0000 0.91893  0.24587  0.95567  Biso   1.000  C
  C58      1.0000 0.83953  0.14927  0.87867  Biso   1.000  C
  C59      1.0000 0.87653  0.20597  0.79367  Biso   1.000  C
  C60      1.0000 0.87613  0.22467  0.57967  Biso   1.000  C
  H15      1.0000 0.84533  0.14037  0.03067  Biso   1.000  H
  O43      1.0000 0.93533  0.22807  0.12467  Biso   1.000  O
  O44      1.0000 0.94863  0.30337  0.94067  Biso   1.000  O
  O45      1.0000 0.91873  0.28267  0.51967  Biso   1.000  O
  Cu16     1.0000 0.31480  0.94630  0.02100  Biso   1.000  Cu
  C61      1.0000 0.42080  0.00640  0.28900  Biso   1.000  C
  C62      1.0000 0.51740  0.02360  0.21200  Biso   1.000  C
  C63      1.0000 0.46070  0.00390  0.12700  Biso   1.000  C
  C64      1.0000 0.44200  0.98480  0.91300  Biso   1.000  C
  H16      1.0000 0.52630  0.03830  0.36400  Biso   1.000  H
  O46      1.0000 0.43860  0.04060  0.45800  Biso   1.000  O
  O47      1.0000 0.36330  0.97860  0.27400  Biso   1.000  O
  O48      1.0000 0.38400  0.96940  0.85300  Biso   1.000  O
  Cu17     1.0000 0.98147  0.27963  0.35433  Biso   1.000  Cu
  C65      1.0000 0.08747  0.33973  0.62233  Biso   1.000  C
  C66      1.0000 0.18407  0.35693  0.54533  Biso   1.000  C
  C67      1.0000 0.12737  0.33723  0.46033  Biso   1.000  C
  C68      1.0000 0.10867  0.31813  0.24633  Biso   1.000  C
  H17      1.0000 0.19297  0.37163  0.69733  Biso   1.000  H
  O49      1.0000 0.10527  0.37393  0.79133  Biso   1.000  O
  O50      1.0000 0.02997  0.31193  0.60733  Biso   1.000  O
  O51      1.0000 0.05067  0.30273  0.18633  Biso   1.000  O
  Cu18     1.0000 0.64813  0.61297  0.68767  Biso   1.000  Cu
  C69      1.0000 0.75413  0.67307  0.95567  Biso   1.000  C
  C70      1.0000 0.85073  0.69027  0.87867  Biso   1.000  C
  C71      1.0000 0.79403  0.67057  0.79367  Biso   1.000  C
  C72      1.0000 0.77533  0.65147  0.57967  Biso   1.000  C
  H18      1.0000 0.85963  0.70497  0.03067  Biso   1.000  H
  O52      1.0000 0.77193  0.70727  0.12467  Biso   1.000  O
  O53      1.0000 0.69663  0.64527  0.94067  Biso   1.000  O
  O54      1.0000 0.71733  0.63607  0.51967  Biso   1.000  O
