data_image0
_cell_length_a       25.8717
_cell_length_b       25.8717
_cell_length_c       6.2631
_cell_angle_alpha    90
_cell_angle_beta     90
_cell_angle_gamma    120

_symmetry_space_group_name_H-M    "P 1"
_symmetry_int_tables_number       1

loop_
  _symmetry_equiv_pos_as_xyz
  'x, y, z'

loop_
  _atom_site_label
  _atom_site_occupancy
  _atom_site_fract_x
  _atom_site_fract_y
  _atom_site_fract_z
  _atom_site_thermal_displace_type
  _atom_site_B_iso_or_equiv
  _atom_site_type_symbol
  Cu1      1.0000 0.94680  0.63170  0.98590  Biso   1.000  Cu
  C1       1.0000 0.00620  0.58660  0.69600  Biso   1.000  C
  C2       1.0000 0.02200  0.50560  0.79900  Biso   1.000  C
  C3       1.0000 0.00470  0.54540  0.86600  Biso   1.000  C
  C4       1.0000 0.98840  0.54320  0.08300  Biso   1.000  C
  H1       1.0000 0.03800  0.50930  0.63000  Biso   1.000  H
  O1       1.0000 0.04240  0.60190  0.53900  Biso   1.000  O
  O2       1.0000 0.97800  0.61520  0.74300  Biso   1.000  O
  O3       1.0000 0.97080  0.58360  0.14500  Biso   1.000  O
  Cu2      1.0000 0.61347  0.96503  0.31923  Biso   1.000  Cu
  C5       1.0000 0.67287  0.91993  0.02933  Biso   1.000  C
  C6       1.0000 0.68867  0.83893  0.13233  Biso   1.000  C
  C7       1.0000 0.67137  0.87873  0.19933  Biso   1.000  C
  C8       1.0000 0.65507  0.87653  0.41633  Biso   1.000  C
  H2       1.0000 0.70467  0.84263  0.96333  Biso   1.000  H
  O4       1.0000 0.70907  0.93523  0.87233  Biso   1.000  O
  O5       1.0000 0.64467  0.94853  0.07633  Biso   1.000  O
  O6       1.0000 0.63747  0.91693  0.47833  Biso   1.000  O
  Cu3      1.0000 0.28013  0.29837  0.65257  Biso   1.000  Cu
  C9       1.0000 0.33953  0.25327  0.36267  Biso   1.000  C
  C10      1.0000 0.35533  0.17227  0.46567  Biso   1.000  C
  C11      1.0000 0.33803  0.21207  0.53267  Biso   1.000  C
  C12      1.0000 0.32173  0.20987  0.74967  Biso   1.000  C
  H3       1.0000 0.37133  0.17597  0.29667  Biso   1.000  H
  O7       1.0000 0.37573  0.26857  0.20567  Biso   1.000  O
  O8       1.0000 0.31133  0.28187  0.40967  Biso   1.000  O
  O9       1.0000 0.30413  0.25027  0.81167  Biso   1.000  O
  Cu4      1.0000 0.36830  0.31510  0.98590  Biso   1.000  Cu
  C13      1.0000 0.41340  0.41960  0.69600  Biso   1.000  C
  C14      1.0000 0.49440  0.51640  0.79900  Biso   1.000  C
  C15      1.0000 0.45460  0.45930  0.86600  Biso   1.000  C
  C16      1.0000 0.45680  0.44520  0.08300  Biso   1.000  C
  H4       1.0000 0.49070  0.52870  0.63000  Biso   1.000  H
  O10      1.0000 0.39810  0.44050  0.53900  Biso   1.000  O
  O11      1.0000 0.38480  0.36280  0.74300  Biso   1.000  O
  O12      1.0000 0.41640  0.38720  0.14500  Biso   1.000  O
  Cu5      1.0000 0.03497  0.64843  0.31923  Biso   1.000  Cu
  C17      1.0000 0.08007  0.75293  0.02933  Biso   1.000  C
  C18      1.0000 0.16107  0.84973  0.13233  Biso   1.000  C
  C19      1.0000 0.12127  0.79263  0.19933  Biso   1.000  C
  C20      1.0000 0.12347  0.77853  0.41633  Biso   1.000  C
  H5       1.0000 0.15737  0.86203  0.96333  Biso   1.000  H
  O13      1.0000 0.06477  0.77383  0.87233  Biso   1.000  O
  O14      1.0000 0.05147  0.69613  0.07633  Biso   1.000  O
  O15      1.0000 0.08307  0.72053  0.47833  Biso   1.000  O
  Cu6      1.0000 0.70163  0.98177  0.65257  Biso   1.000  Cu
  C21      1.0000 0.74673  0.08627  0.36267  Biso   1.000  C
  C22      1.0000 0.82773  0.18307  0.46567  Biso   1.000  C
  C23      1.0000 0.78793  0.12597  0.53267  Biso   1.000  C
  C24      1.0000 0.79013  0.11187  0.74967  Biso   1.000  C
  H6       1.0000 0.82403  0.19537  0.29667  Biso   1.000  H
  O16      1.0000 0.73143  0.10717  0.20567  Biso   1.000  O
  O17      1.0000 0.71813  0.02947  0.40967  Biso   1.000  O
  O18      1.0000 0.74973  0.05387  0.81167  Biso   1.000  O
  Cu7      1.0000 0.68490  0.05320  0.98590  Biso   1.000  Cu
  C25      1.0000 0.58040  0.99380  0.69600  Biso   1.000  C
  C26      1.0000 0.48360  0.97800  0.79900  Biso   1.000  C
  C27      1.0000 0.54070  0.99530  0.86600  Biso   1.000  C
  C28      1.0000 0.55480  0.01160  0.08300  Biso   1.000  C
  H7       1.0000 0.47130  0.96200  0.63000  Biso   1.000  H
  O19      1.0000 0.55950  0.95760  0.53900  Biso   1.000  O
  O20      1.0000 0.63720  0.02200  0.74300  Biso   1.000  O
  O21      1.0000 0.61280  0.02920  0.14500  Biso   1.000  O
  Cu8      1.0000 0.35157  0.38653  0.31923  Biso   1.000  Cu
  C29      1.0000 0.24707  0.32713  0.02933  Biso   1.000  C
  C30      1.0000 0.15027  0.31133  0.13233  Biso   1.000  C
  C31      1.0000 0.20737  0.32863  0.19933  Biso   1.000  C
  C32      1.0000 0.22147  0.34493  0.41633  Biso   1.000  C
  H8       1.0000 0.13797  0.29533  0.96333  Biso   1.000  H
  O22      1.0000 0.22617  0.29093  0.87233  Biso   1.000  O
  O23      1.0000 0.30387  0.35533  0.07633  Biso   1.000  O
  O24      1.0000 0.27947  0.36253  0.47833  Biso   1.000  O
  Cu9      1.0000 0.01823  0.71987  0.65257  Biso   1.000  Cu
  C33      1.0000 0.91373  0.66047  0.36267  Biso   1.000  C
  C34      1.0000 0.81693  0.64467  0.46567  Biso   1.000  C
  C35      1.0000 0.87403  0.66197  0.53267  Biso   1.000  C
  C36      1.0000 0.88813  0.67827  0.74967  Biso   1.000  C
  H9       1.0000 0.80463  0.62867  0.29667  Biso   1.000  H
  O25      1.0000 0.89283  0.62427  0.20567  Biso   1.000  O
  O26      1.0000 0.97053  0.68867  0.40967  Biso   1.000  O
  O27      1.0000 0.94613  0.69587  0.81167  Biso   1.000  O
  Cu10     1.0000 0.05320  0.36830  0.01410  Biso   1.000  Cu
  C37      1.0000 0.99380  0.41340  0.30400  Biso   1.000  C
  C38      1.0000 0.97800  0.49440  0.20100  Biso   1.000  C
  C39      1.0000 0.99530  0.45460  0.13400  Biso   1.000  C
  C40      1.0000 0.01160  0.45680  0.91700  Biso   1.000  C
  H10      1.0000 0.96200  0.49070  0.37000  Biso   1.000  H
  O28      1.0000 0.95760  0.39810  0.46100  Biso   1.000  O
  O29      1.0000 0.02200  0.38480  0.25700  Biso   1.000  O
  O30      1.0000 0.02920  0.41640  0.85500  Biso   1.000  O
  Cu11     1.0000 0.71987  0.70163  0.34743  Biso   1.000  Cu
  C41      1.0000 0.66047  0.74673  0.63733  Biso   1.000  C
  C42      1.0000 0.64467  0.82773  0.53433  Biso   1.000  C
  C43      1.0000 0.66197  0.78793  0.46733  Biso   1.000  C
  C44      1.0000 0.67827  0.79013  0.25033  Biso   1.000  C
  H11      1.0000 0.62867  0.82403  0.70333  Biso   1.000  H
  O31      1.0000 0.62427  0.73143  0.79433  Biso   1.000  O
  O32      1.0000 0.68867  0.71813  0.59033  Biso   1.000  O
  O33      1.0000 0.69587  0.74973  0.18833  Biso   1.000  O
  Cu12     1.0000 0.38653  0.03497  0.68077  Biso   1.000  Cu
  C45      1.0000 0.32713  0.08007  0.97067  Biso   1.000  C
  C46      1.0000 0.31133  0.16107  0.86767  Biso   1.000  C
  C47      1.0000 0.32863  0.12127  0.80067  Biso   1.000  C
  C48      1.0000 0.34493  0.12347  0.58367  Biso   1.000  C
  H12      1.0000 0.29533  0.15737  0.03667  Biso   1.000  H
  O34      1.0000 0.29093  0.06477  0.12767  Biso   1.000  O
  O35      1.0000 0.35533  0.05147  0.92367  Biso   1.000  O
  O36      1.0000 0.36253  0.08307  0.52167  Biso   1.000  O
  Cu13     1.0000 0.63170  0.68490  0.01410  Biso   1.000  Cu
  C49      1.0000 0.58660  0.58040  0.30400  Biso   1.000  C
  C50      1.0000 0.50560  0.48360  0.20100  Biso   1.000  C
  C51      1.0000 0.54540  0.54070  0.13400  Biso   1.000  C
  C52      1.0000 0.54320  0.55480  0.91700  Biso   1.000  C
  H13      1.0000 0.50930  0.47130  0.37000  Biso   1.000  H
  O37      1.0000 0.60190  0.55950  0.46100  Biso   1.000  O
  O38      1.0000 0.61520  0.63720  0.25700  Biso   1.000  O
  O39      1.0000 0.58360  0.61280  0.85500  Biso   1.000  O
  Cu14     1.0000 0.29837  0.01823  0.34743  Biso   1.000  Cu
  C53      1.0000 0.25327  0.91373  0.63733  Biso   1.000  C
  C54      1.0000 0.17227  0.81693  0.53433  Biso   1.000  C
  C55      1.0000 0.21207  0.87403  0.46733  Biso   1.000  C
  C56      1.0000 0.20987  0.88813  0.25033  Biso   1.000  C
  H14      1.0000 0.17597  0.80463  0.70333  Biso   1.000  H
  O40      1.0000 0.26857  0.89283  0.79433  Biso   1.000  O
  O41      1.0000 0.28187  0.97053  0.59033  Biso   1.000  O
  O42      1.0000 0.25027  0.94613  0.18833  Biso   1.000  O
  Cu15     1.0000 0.96503  0.35157  0.68077  Biso   1.000  Cu
  C57      1.0000 0.91993  0.24707  0.97067  Biso   1.000  C
  C58      1.0000 0.83893  0.15027  0.86767  Biso   1.000  C
  C59      1.0000 0.87873  0.20737  0.80067  Biso   1.000  C
  C60      1.0000 0.87653  0.22147  0.58367  Biso   1.000  C
  H15      1.0000 0.84263  0.13797  0.03667  Biso   1.000  H
  O43      1.0000 0.93523  0.22617  0.12767  Biso   1.000  O
  O44      1.0000 0.94853  0.30387  0.92367  Biso   1.000  O
  O45      1.0000 0.91693  0.27947  0.52167  Biso   1.000  O
  Cu16     1.0000 0.31510  0.94680  0.01410  Biso   1.000  Cu
  C61      1.0000 0.41960  0.00620  0.30400  Biso   1.000  C
  C62      1.0000 0.51640  0.02200  0.20100  Biso   1.000  C
  C63      1.0000 0.45930  0.00470  0.13400  Biso   1.000  C
  C64      1.0000 0.44520  0.98840  0.91700  Biso   1.000  C
  H16      1.0000 0.52870  0.03800  0.37000  Biso   1.000  H
  O46      1.0000 0.44050  0.04240  0.46100  Biso   1.000  O
  O47      1.0000 0.36280  0.97800  0.25700  Biso   1.000  O
  O48      1.0000 0.38720  0.97080  0.85500  Biso   1.000  O
  Cu17     1.0000 0.98177  0.28013  0.34743  Biso   1.000  Cu
  C65      1.0000 0.08627  0.33953  0.63733  Biso   1.000  C
  C66      1.0000 0.18307  0.35533  0.53433  Biso   1.000  C
  C67      1.0000 0.12597  0.33803  0.46733  Biso   1.000  C
  C68      1.0000 0.11187  0.32173  0.25033  Biso   1.000  C
  H17      1.0000 0.19537  0.37133  0.70333  Biso   1.000  H
  O49      1.0000 0.10717  0.37573  0.79433  Biso   1.000  O
  O50      1.0000 0.02947  0.31133  0.59033  Biso   1.000  O
  O51      1.0000 0.05387  0.30413  0.18833  Biso   1.000  O
  Cu18     1.0000 0.64843  0.61347  0.68077  Biso   1.000  Cu
  C69      1.0000 0.75293  0.67287  0.97067  Biso   1.000  C
  C70      1.0000 0.84973  0.68867  0.86767  Biso   1.000  C
  C71      1.0000 0.79263  0.67137  0.80067  Biso   1.000  C
  C72      1.0000 0.77853  0.65507  0.58367  Biso   1.000  C
  H18      1.0000 0.86203  0.70467  0.03667  Biso   1.000  H
  O52      1.0000 0.77383  0.70907  0.12767  Biso   1.000  O
  O53      1.0000 0.69613  0.64467  0.92367  Biso   1.000  O
  O54      1.0000 0.72053  0.63747  0.52167  Biso   1.000  O
