data_image0
_cell_length_a       7.5987
_cell_length_b       10.0166
_cell_length_c       17.4578
_cell_angle_alpha    90
_cell_angle_beta     90
_cell_angle_gamma    90

_symmetry_space_group_name_H-M    "P 1"
_symmetry_int_tables_number       1

loop_
  _symmetry_equiv_pos_as_xyz
  'x, y, z'

loop_
  _atom_site_label
  _atom_site_occupancy
  _atom_site_fract_x
  _atom_site_fract_y
  _atom_site_fract_z
  _atom_site_thermal_displace_type
  _atom_site_B_iso_or_equiv
  _atom_site_type_symbol
  N1       1.0000 0.20604  0.41247  0.63896  Biso   1.000  N
  N2       1.0000 0.32756  0.59813  0.69395  Biso   1.000  N
  C1       1.0000 0.08357  0.48079  0.67616  Biso   1.000  C
  C2       1.0000 0.36604  0.48374  0.64825  Biso   1.000  C
  N3       1.0000 0.15143  0.59496  0.70966  Biso   1.000  N
  H1       1.0000 0.94353  0.44241  0.67723  Biso   1.000  H
  H2       1.0000 0.49075  0.44421  0.62085  Biso   1.000  H
  N4       1.0000 0.29396  0.58753  0.13896  Biso   1.000  N
  N5       1.0000 0.17244  0.40187  0.19395  Biso   1.000  N
  C3       1.0000 0.41643  0.51921  0.17616  Biso   1.000  C
  C4       1.0000 0.13396  0.51626  0.14825  Biso   1.000  C
  N6       1.0000 0.34857  0.40504  0.20966  Biso   1.000  N
  H3       1.0000 0.55647  0.55759  0.17723  Biso   1.000  H
  H4       1.0000 0.00925  0.55579  0.12085  Biso   1.000  H
  N7       1.0000 0.79396  0.91247  0.36104  Biso   1.000  N
  N8       1.0000 0.67244  0.09813  0.30605  Biso   1.000  N
  C5       1.0000 0.91643  0.98079  0.32384  Biso   1.000  C
  C6       1.0000 0.63396  0.98374  0.35175  Biso   1.000  C
  N9       1.0000 0.84857  0.09496  0.29034  Biso   1.000  N
  H5       1.0000 0.05647  0.94241  0.32277  Biso   1.000  H
  H6       1.0000 0.50925  0.94421  0.37915  Biso   1.000  H
  N10      1.0000 0.70604  0.08753  0.86104  Biso   1.000  N
  N11      1.0000 0.82756  0.90187  0.80605  Biso   1.000  N
  C7       1.0000 0.58357  0.01921  0.82384  Biso   1.000  C
  C8       1.0000 0.86604  0.01626  0.85175  Biso   1.000  C
  N12      1.0000 0.65143  0.90504  0.79034  Biso   1.000  N
  H7       1.0000 0.44353  0.05759  0.82277  Biso   1.000  H
  H8       1.0000 0.99075  0.05579  0.87915  Biso   1.000  H
  N13      1.0000 0.79396  0.58753  0.36104  Biso   1.000  N
  N14      1.0000 0.67244  0.40187  0.30605  Biso   1.000  N
  C9       1.0000 0.91643  0.51921  0.32384  Biso   1.000  C
  C10      1.0000 0.63396  0.51626  0.35175  Biso   1.000  C
  N15      1.0000 0.84857  0.40504  0.29034  Biso   1.000  N
  H9       1.0000 0.05647  0.55759  0.32277  Biso   1.000  H
  H10      1.0000 0.50925  0.55579  0.37915  Biso   1.000  H
  N16      1.0000 0.70604  0.41247  0.86104  Biso   1.000  N
  N17      1.0000 0.82756  0.59813  0.80605  Biso   1.000  N
  C11      1.0000 0.58357  0.48079  0.82384  Biso   1.000  C
  C12      1.0000 0.86604  0.48374  0.85175  Biso   1.000  C
  N18      1.0000 0.65143  0.59496  0.79034  Biso   1.000  N
  H11      1.0000 0.44353  0.44241  0.82277  Biso   1.000  H
  H12      1.0000 0.99075  0.44421  0.87915  Biso   1.000  H
  N19      1.0000 0.20604  0.08753  0.63896  Biso   1.000  N
  N20      1.0000 0.32756  0.90187  0.69395  Biso   1.000  N
  C13      1.0000 0.08357  0.01921  0.67616  Biso   1.000  C
  C14      1.0000 0.36604  0.01626  0.64825  Biso   1.000  C
  N21      1.0000 0.15143  0.90504  0.70966  Biso   1.000  N
  H13      1.0000 0.94353  0.05759  0.67723  Biso   1.000  H
  H14      1.0000 0.49075  0.05579  0.62085  Biso   1.000  H
  N22      1.0000 0.29396  0.91247  0.13896  Biso   1.000  N
  N23      1.0000 0.17244  0.09813  0.19395  Biso   1.000  N
  C15      1.0000 0.41643  0.98079  0.17616  Biso   1.000  C
  C16      1.0000 0.13396  0.98374  0.14825  Biso   1.000  C
  N24      1.0000 0.34857  0.09496  0.20966  Biso   1.000  N
  H15      1.0000 0.55647  0.94241  0.17723  Biso   1.000  H
  H16      1.0000 0.00925  0.94421  0.12085  Biso   1.000  H
  Co1      1.0000 0.15613  0.25000  0.58217  Biso   1.000  Co
  N25      1.0000 0.21997  0.25000  0.47267  Biso   1.000  N
  C17      1.0000 0.38573  0.25000  0.43735  Biso   1.000  C
  H17      1.0000 0.50631  0.25000  0.47225  Biso   1.000  H
  H18      1.0000 0.93543  0.25000  0.43976  Biso   1.000  H
  N26      1.0000 0.16824  0.25000  0.34993  Biso   1.000  N
  N27      1.0000 0.34238  0.25000  0.35874  Biso   1.000  N
  C18      1.0000 0.07276  0.25000  0.41732  Biso   1.000  C
  Co2      1.0000 0.34387  0.75000  0.08217  Biso   1.000  Co
  N28      1.0000 0.28003  0.75000  0.97267  Biso   1.000  N
  C19      1.0000 0.11427  0.75000  0.93735  Biso   1.000  C
  H19      1.0000 0.99369  0.75000  0.97225  Biso   1.000  H
  H20      1.0000 0.56457  0.75000  0.93976  Biso   1.000  H
  N29      1.0000 0.33176  0.75000  0.84993  Biso   1.000  N
  N30      1.0000 0.15762  0.75000  0.85874  Biso   1.000  N
  C20      1.0000 0.42724  0.75000  0.91732  Biso   1.000  C
  Co3      1.0000 0.84387  0.75000  0.41783  Biso   1.000  Co
  N31      1.0000 0.78003  0.75000  0.52733  Biso   1.000  N
  C21      1.0000 0.61427  0.75000  0.56265  Biso   1.000  C
  H21      1.0000 0.49369  0.75000  0.52775  Biso   1.000  H
  H22      1.0000 0.06457  0.75000  0.56024  Biso   1.000  H
  N32      1.0000 0.83176  0.75000  0.65007  Biso   1.000  N
  N33      1.0000 0.65762  0.75000  0.64126  Biso   1.000  N
  C22      1.0000 0.92724  0.75000  0.58268  Biso   1.000  C
  Co4      1.0000 0.65613  0.25000  0.91783  Biso   1.000  Co
  N34      1.0000 0.71997  0.25000  0.02733  Biso   1.000  N
  C23      1.0000 0.88573  0.25000  0.06265  Biso   1.000  C
  H23      1.0000 0.00631  0.25000  0.02775  Biso   1.000  H
  H24      1.0000 0.43543  0.25000  0.06024  Biso   1.000  H
  N35      1.0000 0.66824  0.25000  0.15007  Biso   1.000  N
  N36      1.0000 0.84238  0.25000  0.14126  Biso   1.000  N
  C24      1.0000 0.57276  0.25000  0.08268  Biso   1.000  C
  Co5      1.0000 0.51066  0.75000  0.74155  Biso   1.000  Co
  Co6      1.0000 0.98934  0.25000  0.24155  Biso   1.000  Co
  Co7      1.0000 0.48934  0.25000  0.25845  Biso   1.000  Co
  Co8      1.0000 0.01066  0.75000  0.75845  Biso   1.000  Co
