data_PACZUQ_clean
_audit_creation_date              2014-07-02
_audit_creation_method            'Materials Studio'
_symmetry_space_group_name_H-M    'P1'
_symmetry_Int_Tables_number       1
_symmetry_cell_setting            triclinic
loop_
_symmetry_equiv_pos_as_xyz
  x,y,z
_cell_length_a                    12.5140
_cell_length_b                    15.7670
_cell_length_c                    16.1710
_cell_angle_alpha                 114.1300
_cell_angle_beta                  104.0600
_cell_angle_gamma                 103.7200
loop_
_atom_site_label
_atom_site_type_symbol
_atom_site_fract_x
_atom_site_fract_y
_atom_site_fract_z
_atom_site_U_iso_or_equiv
_atom_site_adp_type
_atom_site_occupancy
Pr1    Pr    0.53441   0.89374   0.03187   0.01267  Uiso   1.00
Pr2    Pr    0.99719   0.97634   0.36568   0.01267  Uiso   1.00
Pr3    Pr    0.86863   0.36322   0.90212   0.01267  Uiso   1.00
Pr4    Pr    0.46559   0.10626   0.96813   0.01267  Uiso   1.00
Pr5    Pr    0.00281   0.02366   0.63432   0.01267  Uiso   1.00
Pr6    Pr    0.13137   0.63678   0.09788   0.01267  Uiso   1.00
H1     H     0.17950   0.43150   0.21240   0.01267  Uiso   1.00
H2     H     0.09030   0.43230   0.26440   0.01267  Uiso   1.00
H3     H     0.02660   0.29090   0.20970   0.01267  Uiso   1.00
H4     H     0.15090   0.30410   0.20310   0.01267  Uiso   1.00
H5     H     0.36900   0.90160   0.31490   0.01267  Uiso   1.00
H6     H     0.27230   0.92170   0.25270   0.01267  Uiso   1.00
H7     H     0.39310   0.06540   0.29200   0.01267  Uiso   1.00
H8     H     0.41930   0.06050   0.38900   0.01267  Uiso   1.00
H9     H     0.68700   0.19790   0.41120   0.01267  Uiso   1.00
H10    H     0.56450   0.20530   0.40730   0.01267  Uiso   1.00
H11    H     0.53130   0.21730   0.28840   0.01267  Uiso   1.00
H12    H     0.66950   0.26560   0.33340   0.01267  Uiso   1.00
H13    H     0.57330   0.01300   0.44030   0.01267  Uiso   1.00
H14    H     0.67070   0.11930   0.48210   0.01267  Uiso   1.00
H15    H     0.66570   0.93870   0.34700   0.01267  Uiso   1.00
H16    H     0.75670   0.04280   0.37540   0.01267  Uiso   1.00
H17    H     0.59520   0.66500   0.08900   0.01267  Uiso   1.00
H18    H     0.52400   0.72640   0.13620   0.01267  Uiso   1.00
H19    H     0.61150   0.73420   0.28190   0.01267  Uiso   1.00
H20    H     0.54670   0.62220   0.19760   0.01267  Uiso   1.00
H21    H     0.70440   0.58630   0.32300   0.01267  Uiso   1.00
H22    H     0.72200   0.69880   0.38630   0.01267  Uiso   1.00
H23    H     0.88940   0.66490   0.44630   0.01267  Uiso   1.00
H24    H     0.90830   0.64010   0.34780   0.01267  Uiso   1.00
H25    H     0.74970   0.53320   0.18810   0.01267  Uiso   1.00
H26    H     0.65230   0.54200   0.11340   0.01267  Uiso   1.00
H27    H     0.90000   0.65150   0.18200   0.01267  Uiso   1.00
H28    H     0.80220   0.65880   0.10630   0.01267  Uiso   1.00
H29    H     0.11930   0.12200   0.89950   0.01267  Uiso   1.00
H30    H     0.00300   0.06640   0.90600   0.01267  Uiso   1.00
H31    H     0.14530   0.16750   0.06280   0.01267  Uiso   1.00
H32    H     0.16990   0.26190   0.04870   0.01267  Uiso   1.00
H33    H     0.93620   0.07570   0.01600   0.01267  Uiso   1.00
H34    H     0.95280   0.13730   0.12590   0.01267  Uiso   1.00
H35    H     0.78700   0.12850   0.96870   0.01267  Uiso   1.00
H36    H     0.80380   0.19070   0.07840   0.01267  Uiso   1.00
H37    H     0.62930   0.74260   0.94200   0.01267  Uiso   1.00
H38    H     0.34850   0.72600   0.00490   0.01267  Uiso   1.00
H39    H     0.16060   0.08680   0.30960   0.01267  Uiso   1.00
H40    H     0.82710   0.99690   0.22650   0.01267  Uiso   1.00
H41    H     0.65320   0.31930   0.74620   0.01267  Uiso   1.00
H42    H     0.83450   0.27790   0.69870   0.01267  Uiso   1.00
H43    H     0.82050   0.56850   0.78760   0.01267  Uiso   1.00
H44    H     0.90970   0.56770   0.73560   0.01267  Uiso   1.00
H45    H     0.97340   0.70910   0.79030   0.01267  Uiso   1.00
H46    H     0.84910   0.69590   0.79690   0.01267  Uiso   1.00
H47    H     0.63100   0.09840   0.68510   0.01267  Uiso   1.00
H48    H     0.72770   0.07830   0.74730   0.01267  Uiso   1.00
H49    H     0.60690   0.93460   0.70800   0.01267  Uiso   1.00
H50    H     0.58070   0.93950   0.61100   0.01267  Uiso   1.00
H51    H     0.31300   0.80210   0.58880   0.01267  Uiso   1.00
H52    H     0.43550   0.79470   0.59270   0.01267  Uiso   1.00
H53    H     0.46870   0.78270   0.71160   0.01267  Uiso   1.00
H54    H     0.33050   0.73440   0.66660   0.01267  Uiso   1.00
H55    H     0.42670   0.98700   0.55970   0.01267  Uiso   1.00
H56    H     0.32930   0.88070   0.51790   0.01267  Uiso   1.00
H57    H     0.33430   0.06130   0.65300   0.01267  Uiso   1.00
H58    H     0.24330   0.95720   0.62460   0.01267  Uiso   1.00
H59    H     0.40480   0.33500   0.91100   0.01267  Uiso   1.00
H60    H     0.47600   0.27360   0.86380   0.01267  Uiso   1.00
H61    H     0.38850   0.26580   0.71810   0.01267  Uiso   1.00
H62    H     0.45330   0.37780   0.80240   0.01267  Uiso   1.00
H63    H     0.29560   0.41370   0.67700   0.01267  Uiso   1.00
H64    H     0.27800   0.30120   0.61370   0.01267  Uiso   1.00
H65    H     0.11060   0.33510   0.55370   0.01267  Uiso   1.00
H66    H     0.09170   0.35990   0.65220   0.01267  Uiso   1.00
H67    H     0.25030   0.46680   0.81190   0.01267  Uiso   1.00
H68    H     0.34770   0.45800   0.88660   0.01267  Uiso   1.00
H69    H     0.10000   0.34850   0.81800   0.01267  Uiso   1.00
H70    H     0.19780   0.34120   0.89370   0.01267  Uiso   1.00
H71    H     0.88070   0.87800   0.10050   0.01267  Uiso   1.00
H72    H     0.99700   0.93360   0.09400   0.01267  Uiso   1.00
H73    H     0.85470   0.83250   0.93720   0.01267  Uiso   1.00
H74    H     0.83010   0.73810   0.95130   0.01267  Uiso   1.00
H75    H     0.06380   0.92430   0.98400   0.01267  Uiso   1.00
H76    H     0.04720   0.86270   0.87410   0.01267  Uiso   1.00
H77    H     0.21300   0.87150   0.03130   0.01267  Uiso   1.00
H78    H     0.19620   0.80930   0.92160   0.01267  Uiso   1.00
H79    H     0.37070   0.25740   0.05800   0.01267  Uiso   1.00
H80    H     0.65150   0.27400   0.99510   0.01267  Uiso   1.00
H81    H     0.83940   0.91320   0.69040   0.01267  Uiso   1.00
H82    H     0.17290   0.00310   0.77350   0.01267  Uiso   1.00
H83    H     0.34680   0.68070   0.25380   0.01267  Uiso   1.00
H84    H     0.16550   0.72210   0.30130   0.01267  Uiso   1.00
C1     C     0.09600   0.40200   0.20080   0.01267  Uiso   1.00
C2     C     0.07500   0.30760   0.17570   0.01267  Uiso   1.00
C3     C     0.03260   0.44070   0.14420   0.01267  Uiso   1.00
C4     C     0.36980   0.86080   0.17710   0.01267  Uiso   1.00
C5     C     0.35500   0.92860   0.27100   0.01267  Uiso   1.00
C6     C     0.42670   0.03360   0.32580   0.01267  Uiso   1.00
C7     C     0.60410   0.17090   0.36800   0.01267  Uiso   1.00
C8     C     0.60230   0.20220   0.30080   0.01267  Uiso   1.00
C9     C     0.60490   0.14160   0.20270   0.01267  Uiso   1.00
C10    C     0.62690   0.05350   0.42420   0.01267  Uiso   1.00
C11    C     0.71060   0.00740   0.39990   0.01267  Uiso   1.00
C12    C     0.79530   0.00580   0.48190   0.01267  Uiso   1.00
C13    C     0.69900   0.81600   0.17960   0.01267  Uiso   1.00
C14    C     0.59930   0.71770   0.14950   0.01267  Uiso   1.00
C15    C     0.61360   0.68410   0.22300   0.01267  Uiso   1.00
C16    C     0.74960   0.65500   0.34190   0.01267  Uiso   1.00
C17    C     0.87920   0.68050   0.39350   0.01267  Uiso   1.00
C18    C     0.95110   0.79160   0.43510   0.01267  Uiso   1.00
C19    C     0.73030   0.57850   0.16620   0.01267  Uiso   1.00
C20    C     0.82230   0.61410   0.12880   0.01267  Uiso   1.00
C21    C     0.82690   0.52730   0.04650   0.01267  Uiso   1.00
C22    C     0.98530   0.16600   0.86040   0.01267  Uiso   1.00
C23    C     0.05480   0.13160   0.92060   0.01267  Uiso   1.00
C24    C     0.10820   0.20040   0.03220   0.01267  Uiso   1.00
C25    C     0.93130   0.13560   0.06320   0.01267  Uiso   1.00
C26    C     0.80780   0.13010   0.03130   0.01267  Uiso   1.00
C27    C     0.71750   0.04100   0.02090   0.01267  Uiso   1.00
C28    C     0.90400   0.59800   0.79920   0.01267  Uiso   1.00
C29    C     0.92500   0.69240   0.82430   0.01267  Uiso   1.00
C30    C     0.96740   0.55930   0.85580   0.01267  Uiso   1.00
C31    C     0.63020   0.13920   0.82290   0.01267  Uiso   1.00
C32    C     0.64500   0.07140   0.72900   0.01267  Uiso   1.00
C33    C     0.57330   0.96640   0.67420   0.01267  Uiso   1.00
C34    C     0.39590   0.82910   0.63200   0.01267  Uiso   1.00
C35    C     0.39770   0.79780   0.69920   0.01267  Uiso   1.00
C36    C     0.39510   0.85840   0.79730   0.01267  Uiso   1.00
C37    C     0.37310   0.94650   0.57580   0.01267  Uiso   1.00
C38    C     0.28940   0.99260   0.60010   0.01267  Uiso   1.00
C39    C     0.20470   0.99420   0.51810   0.01267  Uiso   1.00
C40    C     0.30100   0.18400   0.82040   0.01267  Uiso   1.00
C41    C     0.40070   0.28230   0.85050   0.01267  Uiso   1.00
C42    C     0.38640   0.31590   0.77700   0.01267  Uiso   1.00
C43    C     0.25040   0.34500   0.65810   0.01267  Uiso   1.00
C44    C     0.12080   0.31950   0.60650   0.01267  Uiso   1.00
C45    C     0.04890   0.20840   0.56490   0.01267  Uiso   1.00
C46    C     0.26970   0.42150   0.83380   0.01267  Uiso   1.00
C47    C     0.17770   0.38590   0.87120   0.01267  Uiso   1.00
C48    C     0.17310   0.47270   0.95350   0.01267  Uiso   1.00
C49    C     0.01470   0.83400   0.13960   0.01267  Uiso   1.00
C50    C     0.94520   0.86840   0.07940   0.01267  Uiso   1.00
C51    C     0.89180   0.79960   0.96780   0.01267  Uiso   1.00
C52    C     0.06870   0.86440   0.93680   0.01267  Uiso   1.00
C53    C     0.19220   0.86990   0.96870   0.01267  Uiso   1.00
C54    C     0.28250   0.95900   0.97910   0.01267  Uiso   1.00
N1     N     0.55500   0.06470   0.34400   0.01267  Uiso   1.00
N2     N     0.72800   0.66680   0.25000   0.01267  Uiso   1.00
N3     N     0.01790   0.22610   0.07310   0.01267  Uiso   1.00
N4     N     0.44500   0.93530   0.65600   0.01267  Uiso   1.00
N5     N     0.27200   0.33320   0.75000   0.01267  Uiso   1.00
N6     N     0.98210   0.77390   0.92690   0.01267  Uiso   1.00
O1     O     0.45680   0.89460   0.16180   0.01267  Uiso   1.00
O2     O     0.62130   0.06180   0.18550   0.01267  Uiso   1.00
O3     O     0.74730   0.98920   0.05440   0.01267  Uiso   1.00
O4     O     0.67720   0.86640   0.13870   0.01267  Uiso   1.00
O5     O     0.60440   0.77370   0.91720   0.01267  Uiso   1.00
O6     O     0.38250   0.72380   0.96710   0.01267  Uiso   1.00
O7     O     0.59100   0.17620   0.14530   0.01267  Uiso   1.00
O8     O     0.60670   0.02190   0.97720   0.01267  Uiso   1.00
O9     O     0.87050   0.96730   0.46050   0.01267  Uiso   1.00
O10    O     0.79730   0.84100   0.24200   0.01267  Uiso   1.00
O11    O     0.96440   0.81800   0.37420   0.01267  Uiso   1.00
O12    O     0.79520   0.04020   0.56430   0.01267  Uiso   1.00
O13    O     0.16590   0.10400   0.36620   0.01267  Uiso   1.00
O14    O     0.98500   0.84860   0.52630   0.01267  Uiso   1.00
O15    O     0.89180   0.04100   0.26730   0.01267  Uiso   1.00
O16    O     0.95240   0.23560   0.90210   0.01267  Uiso   1.00
O17    O     0.29530   0.77290   0.12270   0.01267  Uiso   1.00
O18    O     0.94370   0.37790   0.06770   0.01267  Uiso   1.00
O19    O     0.75210   0.44040   0.00690   0.01267  Uiso   1.00
O20    O     0.68600   0.37080   0.79970   0.01267  Uiso   1.00
O21    O     0.07120   0.53340   0.17640   0.01267  Uiso   1.00
O22    O     0.85160   0.25270   0.73300   0.01267  Uiso   1.00
O23    O     0.91380   0.54590   0.01960   0.01267  Uiso   1.00
O24    O     0.96180   0.12340   0.77100   0.01267  Uiso   1.00
O25    O     0.54320   0.10540   0.83820   0.01267  Uiso   1.00
O26    O     0.37870   0.93820   0.81450   0.01267  Uiso   1.00
O27    O     0.25270   0.01080   0.94560   0.01267  Uiso   1.00
O28    O     0.32280   0.13360   0.86130   0.01267  Uiso   1.00
O29    O     0.39560   0.22630   0.08280   0.01267  Uiso   1.00
O30    O     0.61750   0.27620   0.03290   0.01267  Uiso   1.00
O31    O     0.40900   0.82380   0.85470   0.01267  Uiso   1.00
O32    O     0.39330   0.97810   0.02280   0.01267  Uiso   1.00
O33    O     0.12950   0.03270   0.53950   0.01267  Uiso   1.00
O34    O     0.20270   0.15900   0.75800   0.01267  Uiso   1.00
O35    O     0.03560   0.18200   0.62580   0.01267  Uiso   1.00
O36    O     0.20480   0.95980   0.43570   0.01267  Uiso   1.00
O37    O     0.83410   0.89600   0.63380   0.01267  Uiso   1.00
O38    O     0.01500   0.15140   0.47370   0.01267  Uiso   1.00
O39    O     0.10820   0.95900   0.73270   0.01267  Uiso   1.00
O40    O     0.04760   0.76440   0.09790   0.01267  Uiso   1.00
O41    O     0.70470   0.22710   0.87730   0.01267  Uiso   1.00
O42    O     0.05630   0.62210   0.93230   0.01267  Uiso   1.00
O43    O     0.24790   0.55960   0.99310   0.01267  Uiso   1.00
O44    O     0.31400   0.62920   0.20030   0.01267  Uiso   1.00
O45    O     0.92880   0.46660   0.82360   0.01267  Uiso   1.00
O46    O     0.14840   0.74730   0.26700   0.01267  Uiso   1.00
O47    O     0.08620   0.45410   0.98040   0.01267  Uiso   1.00
O48    O     0.03820   0.87660   0.22900   0.01267  Uiso   1.00
