data_image0
_cell_length_a       26.5068
_cell_length_b       26.5068
_cell_length_c       26.5068
_cell_angle_alpha    90
_cell_angle_beta     90
_cell_angle_gamma    90

_symmetry_space_group_name_H-M    "P 1"
_symmetry_int_tables_number       1

loop_
  _symmetry_equiv_pos_as_xyz
  'x, y, z'

loop_
  _atom_site_label
  _atom_site_occupancy
  _atom_site_fract_x
  _atom_site_fract_y
  _atom_site_fract_z
  _atom_site_thermal_displace_type
  _atom_site_B_iso_or_equiv
  _atom_site_type_symbol
  O1       1.0000 0.22976  0.29603  0.04732  Biso   1.000  O
  O2       1.0000 0.35850  0.28950  0.10500  Biso   1.000  O
  O3       1.0000 0.22410  0.39770  0.95130  Biso   1.000  O
  O4       1.0000 0.72976  0.79603  0.54732  Biso   1.000  O
  O5       1.0000 0.85850  0.78950  0.60500  Biso   1.000  O
  O6       1.0000 0.72410  0.89770  0.45130  Biso   1.000  O
  O7       1.0000 0.77024  0.70397  0.04732  Biso   1.000  O
  O8       1.0000 0.64150  0.71050  0.10500  Biso   1.000  O
  O9       1.0000 0.77590  0.60230  0.95130  Biso   1.000  O
  O10      1.0000 0.27024  0.20397  0.54732  Biso   1.000  O
  O11      1.0000 0.14150  0.21050  0.60500  Biso   1.000  O
  O12      1.0000 0.27590  0.10230  0.45130  Biso   1.000  O
  O13      1.0000 0.77024  0.29603  0.95268  Biso   1.000  O
  O14      1.0000 0.64150  0.28950  0.89500  Biso   1.000  O
  O15      1.0000 0.77590  0.39770  0.04870  Biso   1.000  O
  O16      1.0000 0.27024  0.79603  0.45268  Biso   1.000  O
  O17      1.0000 0.14150  0.78950  0.39500  Biso   1.000  O
  O18      1.0000 0.27590  0.89770  0.54870  Biso   1.000  O
  O19      1.0000 0.22976  0.70397  0.95268  Biso   1.000  O
  O20      1.0000 0.35850  0.71050  0.89500  Biso   1.000  O
  O21      1.0000 0.22410  0.60230  0.04870  Biso   1.000  O
  O22      1.0000 0.72976  0.20397  0.45268  Biso   1.000  O
  O23      1.0000 0.85850  0.21050  0.39500  Biso   1.000  O
  O24      1.0000 0.72410  0.10230  0.54870  Biso   1.000  O
  O25      1.0000 0.04732  0.22976  0.29603  Biso   1.000  O
  O26      1.0000 0.10500  0.35850  0.28950  Biso   1.000  O
  O27      1.0000 0.95130  0.22410  0.39770  Biso   1.000  O
  O28      1.0000 0.54732  0.72976  0.79603  Biso   1.000  O
  O29      1.0000 0.60500  0.85850  0.78950  Biso   1.000  O
  O30      1.0000 0.45130  0.72410  0.89770  Biso   1.000  O
  O31      1.0000 0.04732  0.77024  0.70397  Biso   1.000  O
  O32      1.0000 0.10500  0.64150  0.71050  Biso   1.000  O
  O33      1.0000 0.95130  0.77590  0.60230  Biso   1.000  O
  O34      1.0000 0.54732  0.27024  0.20397  Biso   1.000  O
  O35      1.0000 0.60500  0.14150  0.21050  Biso   1.000  O
  O36      1.0000 0.45130  0.27590  0.10230  Biso   1.000  O
  O37      1.0000 0.95268  0.77024  0.29603  Biso   1.000  O
  O38      1.0000 0.89500  0.64150  0.28950  Biso   1.000  O
  O39      1.0000 0.04870  0.77590  0.39770  Biso   1.000  O
  O40      1.0000 0.45268  0.27024  0.79603  Biso   1.000  O
  O41      1.0000 0.39500  0.14150  0.78950  Biso   1.000  O
  O42      1.0000 0.54870  0.27590  0.89770  Biso   1.000  O
  O43      1.0000 0.95268  0.22976  0.70397  Biso   1.000  O
  O44      1.0000 0.89500  0.35850  0.71050  Biso   1.000  O
  O45      1.0000 0.04870  0.22410  0.60230  Biso   1.000  O
  O46      1.0000 0.45268  0.72976  0.20397  Biso   1.000  O
  O47      1.0000 0.39500  0.85850  0.21050  Biso   1.000  O
  O48      1.0000 0.54870  0.72410  0.10230  Biso   1.000  O
  O49      1.0000 0.29603  0.04732  0.22976  Biso   1.000  O
  O50      1.0000 0.28950  0.10500  0.35850  Biso   1.000  O
  O51      1.0000 0.39770  0.95130  0.22410  Biso   1.000  O
  O52      1.0000 0.79603  0.54732  0.72976  Biso   1.000  O
  O53      1.0000 0.78950  0.60500  0.85850  Biso   1.000  O
  O54      1.0000 0.89770  0.45130  0.72410  Biso   1.000  O
  O55      1.0000 0.70397  0.04732  0.77024  Biso   1.000  O
  O56      1.0000 0.71050  0.10500  0.64150  Biso   1.000  O
  O57      1.0000 0.60230  0.95130  0.77590  Biso   1.000  O
  O58      1.0000 0.20397  0.54732  0.27024  Biso   1.000  O
  O59      1.0000 0.21050  0.60500  0.14150  Biso   1.000  O
  O60      1.0000 0.10230  0.45130  0.27590  Biso   1.000  O
  O61      1.0000 0.29603  0.95268  0.77024  Biso   1.000  O
  O62      1.0000 0.28950  0.89500  0.64150  Biso   1.000  O
  O63      1.0000 0.39770  0.04870  0.77590  Biso   1.000  O
  O64      1.0000 0.79603  0.45268  0.27024  Biso   1.000  O
  O65      1.0000 0.78950  0.39500  0.14150  Biso   1.000  O
  O66      1.0000 0.89770  0.54870  0.27590  Biso   1.000  O
  O67      1.0000 0.70397  0.95268  0.22976  Biso   1.000  O
  O68      1.0000 0.71050  0.89500  0.35850  Biso   1.000  O
  O69      1.0000 0.60230  0.04870  0.22410  Biso   1.000  O
  O70      1.0000 0.20397  0.45268  0.72976  Biso   1.000  O
  O71      1.0000 0.21050  0.39500  0.85850  Biso   1.000  O
  O72      1.0000 0.10230  0.54870  0.72410  Biso   1.000  O
  O73      1.0000 0.29603  0.22976  0.95268  Biso   1.000  O
  O74      1.0000 0.28950  0.35850  0.89500  Biso   1.000  O
  O75      1.0000 0.39770  0.22410  0.04870  Biso   1.000  O
  O76      1.0000 0.79603  0.72976  0.45268  Biso   1.000  O
  O77      1.0000 0.78950  0.85850  0.39500  Biso   1.000  O
  O78      1.0000 0.89770  0.72410  0.54870  Biso   1.000  O
  O79      1.0000 0.70397  0.77024  0.95268  Biso   1.000  O
  O80      1.0000 0.71050  0.64150  0.89500  Biso   1.000  O
  O81      1.0000 0.60230  0.77590  0.04870  Biso   1.000  O
  O82      1.0000 0.20397  0.27024  0.45268  Biso   1.000  O
  O83      1.0000 0.21050  0.14150  0.39500  Biso   1.000  O
  O84      1.0000 0.10230  0.27590  0.54870  Biso   1.000  O
  O85      1.0000 0.29603  0.77024  0.04732  Biso   1.000  O
  O86      1.0000 0.28950  0.64150  0.10500  Biso   1.000  O
  O87      1.0000 0.39770  0.77590  0.95130  Biso   1.000  O
  O88      1.0000 0.79603  0.27024  0.54732  Biso   1.000  O
  O89      1.0000 0.78950  0.14150  0.60500  Biso   1.000  O
  O90      1.0000 0.89770  0.27590  0.45130  Biso   1.000  O
  O91      1.0000 0.70397  0.22976  0.04732  Biso   1.000  O
  O92      1.0000 0.71050  0.35850  0.10500  Biso   1.000  O
  O93      1.0000 0.60230  0.22410  0.95130  Biso   1.000  O
  O94      1.0000 0.20397  0.72976  0.54732  Biso   1.000  O
  O95      1.0000 0.21050  0.85850  0.60500  Biso   1.000  O
  O96      1.0000 0.10230  0.72410  0.45130  Biso   1.000  O
  O97      1.0000 0.22976  0.04732  0.70397  Biso   1.000  O
  O98      1.0000 0.35850  0.10500  0.71050  Biso   1.000  O
  O99      1.0000 0.22410  0.95130  0.60230  Biso   1.000  O
  O100     1.0000 0.72976  0.54732  0.20397  Biso   1.000  O
  O101     1.0000 0.85850  0.60500  0.21050  Biso   1.000  O
  O102     1.0000 0.72410  0.45130  0.10230  Biso   1.000  O
  O103     1.0000 0.77024  0.04732  0.29603  Biso   1.000  O
  O104     1.0000 0.64150  0.10500  0.28950  Biso   1.000  O
  O105     1.0000 0.77590  0.95130  0.39770  Biso   1.000  O
  O106     1.0000 0.27024  0.54732  0.79603  Biso   1.000  O
  O107     1.0000 0.14150  0.60500  0.78950  Biso   1.000  O
  O108     1.0000 0.27590  0.45130  0.89770  Biso   1.000  O
  O109     1.0000 0.77024  0.95268  0.70397  Biso   1.000  O
  O110     1.0000 0.64150  0.89500  0.71050  Biso   1.000  O
  O111     1.0000 0.77590  0.04870  0.60230  Biso   1.000  O
  O112     1.0000 0.27024  0.45268  0.20397  Biso   1.000  O
  O113     1.0000 0.14150  0.39500  0.21050  Biso   1.000  O
  O114     1.0000 0.27590  0.54870  0.10230  Biso   1.000  O
  O115     1.0000 0.22976  0.95268  0.29603  Biso   1.000  O
  O116     1.0000 0.35850  0.89500  0.28950  Biso   1.000  O
  O117     1.0000 0.22410  0.04870  0.39770  Biso   1.000  O
  O118     1.0000 0.72976  0.45268  0.79603  Biso   1.000  O
  O119     1.0000 0.85850  0.39500  0.78950  Biso   1.000  O
  O120     1.0000 0.72410  0.54870  0.89770  Biso   1.000  O
  O121     1.0000 0.04732  0.29603  0.77024  Biso   1.000  O
  O122     1.0000 0.10500  0.28950  0.64150  Biso   1.000  O
  O123     1.0000 0.95130  0.39770  0.77590  Biso   1.000  O
  O124     1.0000 0.54732  0.79603  0.27024  Biso   1.000  O
  O125     1.0000 0.60500  0.78950  0.14150  Biso   1.000  O
  O126     1.0000 0.45130  0.89770  0.27590  Biso   1.000  O
  O127     1.0000 0.04732  0.70397  0.22976  Biso   1.000  O
  O128     1.0000 0.10500  0.71050  0.35850  Biso   1.000  O
  O129     1.0000 0.95130  0.60230  0.22410  Biso   1.000  O
  O130     1.0000 0.54732  0.20397  0.72976  Biso   1.000  O
  O131     1.0000 0.60500  0.21050  0.85850  Biso   1.000  O
  O132     1.0000 0.45130  0.10230  0.72410  Biso   1.000  O
  O133     1.0000 0.95268  0.29603  0.22976  Biso   1.000  O
  O134     1.0000 0.89500  0.28950  0.35850  Biso   1.000  O
  O135     1.0000 0.04870  0.39770  0.22410  Biso   1.000  O
  O136     1.0000 0.45268  0.79603  0.72976  Biso   1.000  O
  O137     1.0000 0.39500  0.78950  0.85850  Biso   1.000  O
  O138     1.0000 0.54870  0.89770  0.72410  Biso   1.000  O
  O139     1.0000 0.95268  0.70397  0.77024  Biso   1.000  O
  O140     1.0000 0.89500  0.71050  0.64150  Biso   1.000  O
  O141     1.0000 0.04870  0.60230  0.77590  Biso   1.000  O
  O142     1.0000 0.45268  0.20397  0.27024  Biso   1.000  O
  O143     1.0000 0.39500  0.21050  0.14150  Biso   1.000  O
  O144     1.0000 0.54870  0.10230  0.27590  Biso   1.000  O
  O145     1.0000 0.77024  0.70397  0.95268  Biso   1.000  O
  O146     1.0000 0.64150  0.71050  0.89500  Biso   1.000  O
  O147     1.0000 0.77590  0.60230  0.04870  Biso   1.000  O
  O148     1.0000 0.27024  0.20397  0.45268  Biso   1.000  O
  O149     1.0000 0.14150  0.21050  0.39500  Biso   1.000  O
  O150     1.0000 0.27590  0.10230  0.54870  Biso   1.000  O
  O151     1.0000 0.22976  0.29603  0.95268  Biso   1.000  O
  O152     1.0000 0.35850  0.28950  0.89500  Biso   1.000  O
  O153     1.0000 0.22410  0.39770  0.04870  Biso   1.000  O
  O154     1.0000 0.72976  0.79603  0.45268  Biso   1.000  O
  O155     1.0000 0.85850  0.78950  0.39500  Biso   1.000  O
  O156     1.0000 0.72410  0.89770  0.54870  Biso   1.000  O
  O157     1.0000 0.22976  0.70397  0.04732  Biso   1.000  O
  O158     1.0000 0.35850  0.71050  0.10500  Biso   1.000  O
  O159     1.0000 0.22410  0.60230  0.95130  Biso   1.000  O
  O160     1.0000 0.72976  0.20397  0.54732  Biso   1.000  O
  O161     1.0000 0.85850  0.21050  0.60500  Biso   1.000  O
  O162     1.0000 0.72410  0.10230  0.45130  Biso   1.000  O
  O163     1.0000 0.77024  0.29603  0.04732  Biso   1.000  O
  O164     1.0000 0.64150  0.28950  0.10500  Biso   1.000  O
  O165     1.0000 0.77590  0.39770  0.95130  Biso   1.000  O
  O166     1.0000 0.27024  0.79603  0.54732  Biso   1.000  O
  O167     1.0000 0.14150  0.78950  0.60500  Biso   1.000  O
  O168     1.0000 0.27590  0.89770  0.45130  Biso   1.000  O
  O169     1.0000 0.95268  0.77024  0.70397  Biso   1.000  O
  O170     1.0000 0.89500  0.64150  0.71050  Biso   1.000  O
  O171     1.0000 0.04870  0.77590  0.60230  Biso   1.000  O
  O172     1.0000 0.45268  0.27024  0.20397  Biso   1.000  O
  O173     1.0000 0.39500  0.14150  0.21050  Biso   1.000  O
  O174     1.0000 0.54870  0.27590  0.10230  Biso   1.000  O
  O175     1.0000 0.95268  0.22976  0.29603  Biso   1.000  O
  O176     1.0000 0.89500  0.35850  0.28950  Biso   1.000  O
  O177     1.0000 0.04870  0.22410  0.39770  Biso   1.000  O
  O178     1.0000 0.45268  0.72976  0.79603  Biso   1.000  O
  O179     1.0000 0.39500  0.85850  0.78950  Biso   1.000  O
  O180     1.0000 0.54870  0.72410  0.89770  Biso   1.000  O
  O181     1.0000 0.04732  0.22976  0.70397  Biso   1.000  O
  O182     1.0000 0.10500  0.35850  0.71050  Biso   1.000  O
  O183     1.0000 0.95130  0.22410  0.60230  Biso   1.000  O
  O184     1.0000 0.54732  0.72976  0.20397  Biso   1.000  O
  O185     1.0000 0.60500  0.85850  0.21050  Biso   1.000  O
  O186     1.0000 0.45130  0.72410  0.10230  Biso   1.000  O
  O187     1.0000 0.04732  0.77024  0.29603  Biso   1.000  O
  O188     1.0000 0.10500  0.64150  0.28950  Biso   1.000  O
  O189     1.0000 0.95130  0.77590  0.39770  Biso   1.000  O
  O190     1.0000 0.54732  0.27024  0.79603  Biso   1.000  O
  O191     1.0000 0.60500  0.14150  0.78950  Biso   1.000  O
  O192     1.0000 0.45130  0.27590  0.89770  Biso   1.000  O
  O193     1.0000 0.70397  0.95268  0.77024  Biso   1.000  O
  O194     1.0000 0.71050  0.89500  0.64150  Biso   1.000  O
  O195     1.0000 0.60230  0.04870  0.77590  Biso   1.000  O
  O196     1.0000 0.20397  0.45268  0.27024  Biso   1.000  O
  O197     1.0000 0.21050  0.39500  0.14150  Biso   1.000  O
  O198     1.0000 0.10230  0.54870  0.27590  Biso   1.000  O
  O199     1.0000 0.29603  0.95268  0.22976  Biso   1.000  O
  O200     1.0000 0.28950  0.89500  0.35850  Biso   1.000  O
  O201     1.0000 0.39770  0.04870  0.22410  Biso   1.000  O
  O202     1.0000 0.79603  0.45268  0.72976  Biso   1.000  O
  O203     1.0000 0.78950  0.39500  0.85850  Biso   1.000  O
  O204     1.0000 0.89770  0.54870  0.72410  Biso   1.000  O
  O205     1.0000 0.70397  0.04732  0.22976  Biso   1.000  O
  O206     1.0000 0.71050  0.10500  0.35850  Biso   1.000  O
  O207     1.0000 0.60230  0.95130  0.22410  Biso   1.000  O
  O208     1.0000 0.20397  0.54732  0.72976  Biso   1.000  O
  O209     1.0000 0.21050  0.60500  0.85850  Biso   1.000  O
  O210     1.0000 0.10230  0.45130  0.72410  Biso   1.000  O
  O211     1.0000 0.29603  0.04732  0.77024  Biso   1.000  O
  O212     1.0000 0.28950  0.10500  0.64150  Biso   1.000  O
  O213     1.0000 0.39770  0.95130  0.77590  Biso   1.000  O
  O214     1.0000 0.79603  0.54732  0.27024  Biso   1.000  O
  O215     1.0000 0.78950  0.60500  0.14150  Biso   1.000  O
  O216     1.0000 0.89770  0.45130  0.27590  Biso   1.000  O
  O217     1.0000 0.70397  0.77024  0.04732  Biso   1.000  O
  O218     1.0000 0.71050  0.64150  0.10500  Biso   1.000  O
  O219     1.0000 0.60230  0.77590  0.95130  Biso   1.000  O
  O220     1.0000 0.20397  0.27024  0.54732  Biso   1.000  O
  O221     1.0000 0.21050  0.14150  0.60500  Biso   1.000  O
  O222     1.0000 0.10230  0.27590  0.45130  Biso   1.000  O
  O223     1.0000 0.29603  0.22976  0.04732  Biso   1.000  O
  O224     1.0000 0.28950  0.35850  0.10500  Biso   1.000  O
  O225     1.0000 0.39770  0.22410  0.95130  Biso   1.000  O
  O226     1.0000 0.79603  0.72976  0.54732  Biso   1.000  O
  O227     1.0000 0.78950  0.85850  0.60500  Biso   1.000  O
  O228     1.0000 0.89770  0.72410  0.45130  Biso   1.000  O
  O229     1.0000 0.70397  0.22976  0.95268  Biso   1.000  O
  O230     1.0000 0.71050  0.35850  0.89500  Biso   1.000  O
  O231     1.0000 0.60230  0.22410  0.04870  Biso   1.000  O
  O232     1.0000 0.20397  0.72976  0.45268  Biso   1.000  O
  O233     1.0000 0.21050  0.85850  0.39500  Biso   1.000  O
  O234     1.0000 0.10230  0.72410  0.54870  Biso   1.000  O
  O235     1.0000 0.29603  0.77024  0.95268  Biso   1.000  O
  O236     1.0000 0.28950  0.64150  0.89500  Biso   1.000  O
  O237     1.0000 0.39770  0.77590  0.04870  Biso   1.000  O
  O238     1.0000 0.79603  0.27024  0.45268  Biso   1.000  O
  O239     1.0000 0.78950  0.14150  0.39500  Biso   1.000  O
  O240     1.0000 0.89770  0.27590  0.54870  Biso   1.000  O
  O241     1.0000 0.77024  0.95268  0.29603  Biso   1.000  O
  O242     1.0000 0.64150  0.89500  0.28950  Biso   1.000  O
  O243     1.0000 0.77590  0.04870  0.39770  Biso   1.000  O
  O244     1.0000 0.27024  0.45268  0.79603  Biso   1.000  O
  O245     1.0000 0.14150  0.39500  0.78950  Biso   1.000  O
  O246     1.0000 0.27590  0.54870  0.89770  Biso   1.000  O
  O247     1.0000 0.22976  0.95268  0.70397  Biso   1.000  O
  O248     1.0000 0.35850  0.89500  0.71050  Biso   1.000  O
  O249     1.0000 0.22410  0.04870  0.60230  Biso   1.000  O
  O250     1.0000 0.72976  0.45268  0.20397  Biso   1.000  O
  O251     1.0000 0.85850  0.39500  0.21050  Biso   1.000  O
  O252     1.0000 0.72410  0.54870  0.10230  Biso   1.000  O
  O253     1.0000 0.22976  0.04732  0.29603  Biso   1.000  O
  O254     1.0000 0.35850  0.10500  0.28950  Biso   1.000  O
  O255     1.0000 0.22410  0.95130  0.39770  Biso   1.000  O
  O256     1.0000 0.72976  0.54732  0.79603  Biso   1.000  O
  O257     1.0000 0.85850  0.60500  0.78950  Biso   1.000  O
  O258     1.0000 0.72410  0.45130  0.89770  Biso   1.000  O
  O259     1.0000 0.77024  0.04732  0.70397  Biso   1.000  O
  O260     1.0000 0.64150  0.10500  0.71050  Biso   1.000  O
  O261     1.0000 0.77590  0.95130  0.60230  Biso   1.000  O
  O262     1.0000 0.27024  0.54732  0.20397  Biso   1.000  O
  O263     1.0000 0.14150  0.60500  0.21050  Biso   1.000  O
  O264     1.0000 0.27590  0.45130  0.10230  Biso   1.000  O
  O265     1.0000 0.95268  0.70397  0.22976  Biso   1.000  O
  O266     1.0000 0.89500  0.71050  0.35850  Biso   1.000  O
  O267     1.0000 0.04870  0.60230  0.22410  Biso   1.000  O
  O268     1.0000 0.45268  0.20397  0.72976  Biso   1.000  O
  O269     1.0000 0.39500  0.21050  0.85850  Biso   1.000  O
  O270     1.0000 0.54870  0.10230  0.72410  Biso   1.000  O
  O271     1.0000 0.95268  0.29603  0.77024  Biso   1.000  O
  O272     1.0000 0.89500  0.28950  0.64150  Biso   1.000  O
  O273     1.0000 0.04870  0.39770  0.77590  Biso   1.000  O
  O274     1.0000 0.45268  0.79603  0.27024  Biso   1.000  O
  O275     1.0000 0.39500  0.78950  0.14150  Biso   1.000  O
  O276     1.0000 0.54870  0.89770  0.27590  Biso   1.000  O
  O277     1.0000 0.04732  0.70397  0.77024  Biso   1.000  O
  O278     1.0000 0.10500  0.71050  0.64150  Biso   1.000  O
  O279     1.0000 0.95130  0.60230  0.77590  Biso   1.000  O
  O280     1.0000 0.54732  0.20397  0.27024  Biso   1.000  O
  O281     1.0000 0.60500  0.21050  0.14150  Biso   1.000  O
  O282     1.0000 0.45130  0.10230  0.27590  Biso   1.000  O
  O283     1.0000 0.04732  0.29603  0.22976  Biso   1.000  O
  O284     1.0000 0.10500  0.28950  0.35850  Biso   1.000  O
  O285     1.0000 0.95130  0.39770  0.22410  Biso   1.000  O
  O286     1.0000 0.54732  0.79603  0.72976  Biso   1.000  O
  O287     1.0000 0.60500  0.78950  0.85850  Biso   1.000  O
  O288     1.0000 0.45130  0.89770  0.72410  Biso   1.000  O
  V1       1.0000 0.28579  0.28579  0.09440  Biso   1.000  V
  V2       1.0000 0.78579  0.78579  0.59440  Biso   1.000  V
  V3       1.0000 0.71421  0.71421  0.09440  Biso   1.000  V
  V4       1.0000 0.21421  0.21421  0.59440  Biso   1.000  V
  V5       1.0000 0.71421  0.28579  0.90560  Biso   1.000  V
  V6       1.0000 0.21421  0.78579  0.40560  Biso   1.000  V
  V7       1.0000 0.28579  0.71421  0.90560  Biso   1.000  V
  V8       1.0000 0.78579  0.21421  0.40560  Biso   1.000  V
  V9       1.0000 0.09440  0.28579  0.28579  Biso   1.000  V
  V10      1.0000 0.59440  0.78579  0.78579  Biso   1.000  V
  V11      1.0000 0.09440  0.71421  0.71421  Biso   1.000  V
  V12      1.0000 0.59440  0.21421  0.21421  Biso   1.000  V
  V13      1.0000 0.90560  0.71421  0.28579  Biso   1.000  V
  V14      1.0000 0.40560  0.21421  0.78579  Biso   1.000  V
  V15      1.0000 0.90560  0.28579  0.71421  Biso   1.000  V
  V16      1.0000 0.40560  0.78579  0.21421  Biso   1.000  V
  V17      1.0000 0.28579  0.09440  0.28579  Biso   1.000  V
  V18      1.0000 0.78579  0.59440  0.78579  Biso   1.000  V
  V19      1.0000 0.71421  0.09440  0.71421  Biso   1.000  V
  V20      1.0000 0.21421  0.59440  0.21421  Biso   1.000  V
  V21      1.0000 0.28579  0.90560  0.71421  Biso   1.000  V
  V22      1.0000 0.78579  0.40560  0.21421  Biso   1.000  V
  V23      1.0000 0.71421  0.90560  0.28579  Biso   1.000  V
  V24      1.0000 0.21421  0.40560  0.78579  Biso   1.000  V
  V25      1.0000 0.28579  0.28579  0.90560  Biso   1.000  V
  V26      1.0000 0.78579  0.78579  0.40560  Biso   1.000  V
  V27      1.0000 0.71421  0.71421  0.90560  Biso   1.000  V
  V28      1.0000 0.21421  0.21421  0.40560  Biso   1.000  V
  V29      1.0000 0.28579  0.71421  0.09440  Biso   1.000  V
  V30      1.0000 0.78579  0.21421  0.59440  Biso   1.000  V
  V31      1.0000 0.71421  0.28579  0.09440  Biso   1.000  V
  V32      1.0000 0.21421  0.78579  0.59440  Biso   1.000  V
  V33      1.0000 0.28579  0.09440  0.71421  Biso   1.000  V
  V34      1.0000 0.78579  0.59440  0.21421  Biso   1.000  V
  V35      1.0000 0.71421  0.09440  0.28579  Biso   1.000  V
  V36      1.0000 0.21421  0.59440  0.78579  Biso   1.000  V
  V37      1.0000 0.71421  0.90560  0.71421  Biso   1.000  V
  V38      1.0000 0.21421  0.40560  0.21421  Biso   1.000  V
  V39      1.0000 0.28579  0.90560  0.28579  Biso   1.000  V
  V40      1.0000 0.78579  0.40560  0.78579  Biso   1.000  V
  V41      1.0000 0.09440  0.28579  0.71421  Biso   1.000  V
  V42      1.0000 0.59440  0.78579  0.21421  Biso   1.000  V
  V43      1.0000 0.09440  0.71421  0.28579  Biso   1.000  V
  V44      1.0000 0.59440  0.21421  0.78579  Biso   1.000  V
  V45      1.0000 0.90560  0.28579  0.28579  Biso   1.000  V
  V46      1.0000 0.40560  0.78579  0.78579  Biso   1.000  V
  V47      1.0000 0.90560  0.71421  0.71421  Biso   1.000  V
  V48      1.0000 0.40560  0.21421  0.21421  Biso   1.000  V
  V49      1.0000 0.24572  0.24572  0.00000  Biso   1.000  V
  V50      1.0000 0.74572  0.74572  0.50000  Biso   1.000  V
  V51      1.0000 0.75428  0.75428  0.00000  Biso   1.000  V
  V52      1.0000 0.25428  0.25428  0.50000  Biso   1.000  V
  V53      1.0000 0.75428  0.24572  0.00000  Biso   1.000  V
  V54      1.0000 0.25428  0.74572  0.50000  Biso   1.000  V
  V55      1.0000 0.24572  0.75428  0.00000  Biso   1.000  V
  V56      1.0000 0.74572  0.25428  0.50000  Biso   1.000  V
  V57      1.0000 0.00000  0.24572  0.24572  Biso   1.000  V
  V58      1.0000 0.50000  0.74572  0.74572  Biso   1.000  V
  V59      1.0000 0.00000  0.75428  0.75428  Biso   1.000  V
  V60      1.0000 0.50000  0.25428  0.25428  Biso   1.000  V
  V61      1.0000 0.00000  0.75428  0.24572  Biso   1.000  V
  V62      1.0000 0.50000  0.25428  0.74572  Biso   1.000  V
  V63      1.0000 0.00000  0.24572  0.75428  Biso   1.000  V
  V64      1.0000 0.50000  0.74572  0.25428  Biso   1.000  V
  V65      1.0000 0.24572  0.00000  0.24572  Biso   1.000  V
  V66      1.0000 0.74572  0.50000  0.74572  Biso   1.000  V
  V67      1.0000 0.75428  0.00000  0.75428  Biso   1.000  V
  V68      1.0000 0.25428  0.50000  0.25428  Biso   1.000  V
  V69      1.0000 0.24572  0.00000  0.75428  Biso   1.000  V
  V70      1.0000 0.74572  0.50000  0.25428  Biso   1.000  V
  V71      1.0000 0.75428  0.00000  0.24572  Biso   1.000  V
  V72      1.0000 0.25428  0.50000  0.74572  Biso   1.000  V
  V73      1.0000 0.20591  0.34661  0.00000  Biso   1.000  V
  V74      1.0000 0.70591  0.84661  0.50000  Biso   1.000  V
  V75      1.0000 0.79409  0.65339  0.00000  Biso   1.000  V
  V76      1.0000 0.29409  0.15339  0.50000  Biso   1.000  V
  V77      1.0000 0.79409  0.34661  0.00000  Biso   1.000  V
  V78      1.0000 0.29409  0.84661  0.50000  Biso   1.000  V
  V79      1.0000 0.20591  0.65339  0.00000  Biso   1.000  V
  V80      1.0000 0.70591  0.15339  0.50000  Biso   1.000  V
  V81      1.0000 0.00000  0.20591  0.34661  Biso   1.000  V
  V82      1.0000 0.50000  0.70591  0.84661  Biso   1.000  V
  V83      1.0000 0.00000  0.79409  0.65339  Biso   1.000  V
  V84      1.0000 0.50000  0.29409  0.15339  Biso   1.000  V
  V85      1.0000 0.00000  0.79409  0.34661  Biso   1.000  V
  V86      1.0000 0.50000  0.29409  0.84661  Biso   1.000  V
  V87      1.0000 0.00000  0.20591  0.65339  Biso   1.000  V
  V88      1.0000 0.50000  0.70591  0.15339  Biso   1.000  V
  V89      1.0000 0.34661  0.00000  0.20591  Biso   1.000  V
  V90      1.0000 0.84661  0.50000  0.70591  Biso   1.000  V
  V91      1.0000 0.65339  0.00000  0.79409  Biso   1.000  V
  V92      1.0000 0.15339  0.50000  0.29409  Biso   1.000  V
  V93      1.0000 0.34661  0.00000  0.79409  Biso   1.000  V
  V94      1.0000 0.84661  0.50000  0.29409  Biso   1.000  V
  V95      1.0000 0.65339  0.00000  0.20591  Biso   1.000  V
  V96      1.0000 0.15339  0.50000  0.70591  Biso   1.000  V
  V97      1.0000 0.34661  0.20591  0.00000  Biso   1.000  V
  V98      1.0000 0.84661  0.70591  0.50000  Biso   1.000  V
  V99      1.0000 0.65339  0.79409  0.00000  Biso   1.000  V
  V100     1.0000 0.15339  0.29409  0.50000  Biso   1.000  V
  V101     1.0000 0.34661  0.79409  0.00000  Biso   1.000  V
  V102     1.0000 0.84661  0.29409  0.50000  Biso   1.000  V
  V103     1.0000 0.65339  0.20591  0.00000  Biso   1.000  V
  V104     1.0000 0.15339  0.70591  0.50000  Biso   1.000  V
  V105     1.0000 0.20591  0.00000  0.65339  Biso   1.000  V
  V106     1.0000 0.70591  0.50000  0.15339  Biso   1.000  V
  V107     1.0000 0.79409  0.00000  0.34661  Biso   1.000  V
  V108     1.0000 0.29409  0.50000  0.84661  Biso   1.000  V
  V109     1.0000 0.79409  0.00000  0.65339  Biso   1.000  V
  V110     1.0000 0.29409  0.50000  0.15339  Biso   1.000  V
  V111     1.0000 0.20591  0.00000  0.34661  Biso   1.000  V
  V112     1.0000 0.70591  0.50000  0.84661  Biso   1.000  V
  V113     1.0000 0.00000  0.34661  0.79409  Biso   1.000  V
  V114     1.0000 0.50000  0.84661  0.29409  Biso   1.000  V
  V115     1.0000 0.00000  0.65339  0.20591  Biso   1.000  V
  V116     1.0000 0.50000  0.15339  0.70591  Biso   1.000  V
  V117     1.0000 0.00000  0.34661  0.20591  Biso   1.000  V
  V118     1.0000 0.50000  0.84661  0.70591  Biso   1.000  V
  V119     1.0000 0.00000  0.65339  0.79409  Biso   1.000  V
  V120     1.0000 0.50000  0.15339  0.29409  Biso   1.000  V
  P1       1.0000 0.40019  0.25000  0.09981  Biso   1.000  P
  P2       1.0000 0.59981  0.75000  0.09981  Biso   1.000  P
  P3       1.0000 0.59981  0.25000  0.90019  Biso   1.000  P
  P4       1.0000 0.40019  0.75000  0.90019  Biso   1.000  P
  P5       1.0000 0.09981  0.40019  0.25000  Biso   1.000  P
  P6       1.0000 0.09981  0.59981  0.75000  Biso   1.000  P
  P7       1.0000 0.90019  0.59981  0.25000  Biso   1.000  P
  P8       1.0000 0.90019  0.40019  0.75000  Biso   1.000  P
  P9       1.0000 0.25000  0.09981  0.40019  Biso   1.000  P
  P10      1.0000 0.75000  0.09981  0.59981  Biso   1.000  P
  P11      1.0000 0.25000  0.90019  0.59981  Biso   1.000  P
  P12      1.0000 0.75000  0.90019  0.40019  Biso   1.000  P
  P13      1.0000 0.25000  0.40019  0.90019  Biso   1.000  P
  P14      1.0000 0.75000  0.59981  0.90019  Biso   1.000  P
  P15      1.0000 0.25000  0.59981  0.09981  Biso   1.000  P
  P16      1.0000 0.75000  0.40019  0.09981  Biso   1.000  P
  P17      1.0000 0.40019  0.09981  0.75000  Biso   1.000  P
  P18      1.0000 0.59981  0.09981  0.25000  Biso   1.000  P
  P19      1.0000 0.59981  0.90019  0.75000  Biso   1.000  P
  P20      1.0000 0.40019  0.90019  0.25000  Biso   1.000  P
  P21      1.0000 0.09981  0.25000  0.59981  Biso   1.000  P
  P22      1.0000 0.09981  0.75000  0.40019  Biso   1.000  P
  P23      1.0000 0.90019  0.25000  0.40019  Biso   1.000  P
  P24      1.0000 0.90019  0.75000  0.59981  Biso   1.000  P
  P25      1.0000 0.59981  0.75000  0.90019  Biso   1.000  P
  P26      1.0000 0.09981  0.25000  0.40019  Biso   1.000  P
  P27      1.0000 0.40019  0.25000  0.90019  Biso   1.000  P
  P28      1.0000 0.40019  0.75000  0.09981  Biso   1.000  P
  P29      1.0000 0.59981  0.25000  0.09981  Biso   1.000  P
  P30      1.0000 0.90019  0.59981  0.75000  Biso   1.000  P
  P31      1.0000 0.40019  0.09981  0.25000  Biso   1.000  P
  P32      1.0000 0.90019  0.40019  0.25000  Biso   1.000  P
  P33      1.0000 0.09981  0.40019  0.75000  Biso   1.000  P
  P34      1.0000 0.09981  0.59981  0.25000  Biso   1.000  P
  P35      1.0000 0.75000  0.90019  0.59981  Biso   1.000  P
  P36      1.0000 0.25000  0.40019  0.09981  Biso   1.000  P
  P37      1.0000 0.25000  0.90019  0.40019  Biso   1.000  P
  P38      1.0000 0.75000  0.09981  0.40019  Biso   1.000  P
  P39      1.0000 0.25000  0.09981  0.59981  Biso   1.000  P
  P40      1.0000 0.75000  0.59981  0.09981  Biso   1.000  P
  P41      1.0000 0.75000  0.40019  0.90019  Biso   1.000  P
  P42      1.0000 0.25000  0.59981  0.90019  Biso   1.000  P
  P43      1.0000 0.59981  0.90019  0.25000  Biso   1.000  P
  P44      1.0000 0.40019  0.90019  0.75000  Biso   1.000  P
  P45      1.0000 0.59981  0.09981  0.75000  Biso   1.000  P
  P46      1.0000 0.90019  0.75000  0.40019  Biso   1.000  P
  P47      1.0000 0.90019  0.25000  0.59981  Biso   1.000  P
  P48      1.0000 0.09981  0.75000  0.59981  Biso   1.000  P
