data_image0
_cell_length_a       16.095
_cell_length_b       16.492
_cell_length_c       16.308
_cell_angle_alpha    90
_cell_angle_beta     118.02
_cell_angle_gamma    90

_symmetry_space_group_name_H-M    "P 1"
_symmetry_int_tables_number       1

loop_
  _symmetry_equiv_pos_as_xyz
  'x, y, z'

loop_
  _atom_site_label
  _atom_site_occupancy
  _atom_site_fract_x
  _atom_site_fract_y
  _atom_site_fract_z
  _atom_site_thermal_displace_type
  _atom_site_B_iso_or_equiv
  _atom_site_type_symbol
  Cd1      1.0000 0.83525  0.27358  0.17587  Biso   1.000  Cd
  Cd2      1.0000 0.10988  0.30290  0.29048  Biso   1.000  Cd
  O1       1.0000 0.97100  0.37870  0.20890  Biso   1.000  O
  O2       1.0000 0.82310  0.39310  0.10590  Biso   1.000  O
  O3       1.0000 0.73320  0.62280  0.86200  Biso   1.000  O
  O4       1.0000 0.80020  0.73160  0.94360  Biso   1.000  O
  O5       1.0000 0.74890  0.30940  0.25010  Biso   1.000  O
  O6       1.0000 0.72040  0.28960  0.36900  Biso   1.000  O
  O7       1.0000 0.80300  0.50020  0.61340  Biso   1.000  O
  O8       1.0000 0.84880  0.61950  0.58450  Biso   1.000  O
  N1       1.0000 0.93540  0.22460  0.31870  Biso   1.000  N
  N2       1.0000 0.03150  0.23300  0.36170  Biso   1.000  N
  N3       1.0000 0.99180  0.16550  0.45210  Biso   1.000  N
  N4       1.0000 0.02480  0.22220  0.15500  Biso   1.000  N
  N5       1.0000 0.92960  0.21920  0.11210  Biso   1.000  N
  N6       1.0000 0.98080  0.15340  0.02820  Biso   1.000  N
  C1       1.0000 0.99540  0.96470  0.74000  Biso   1.000  C
  H1       1.0000 0.05170  0.93150  0.76600  Biso   1.000  H
  H2       1.0000 0.94130  0.92890  0.71190  Biso   1.000  H
  C2       1.0000 0.99620  0.01960  0.66680  Biso   1.000  C
  C3       1.0000 0.07490  0.02780  0.65480  Biso   1.000  C
  H3       1.0000 0.12950  0.00020  0.69460  Biso   1.000  H
  C4       1.0000 0.07540  0.07600  0.58540  Biso   1.000  C
  H4       1.0000 0.12900  0.08010  0.57760  Biso   1.000  H
  C5       1.0000 0.99540  0.11710  0.52880  Biso   1.000  C
  C6       1.0000 0.91540  0.11280  0.53930  Biso   1.000  C
  H5       1.0000 0.86210  0.14300  0.50180  Biso   1.000  H
  C7       1.0000 0.91710  0.06220  0.60750  Biso   1.000  C
  H6       1.0000 0.86270  0.05670  0.61350  Biso   1.000  H
  C8       1.0000 0.99110  0.01370  0.81760  Biso   1.000  C
  C9       1.0000 0.06960  0.04920  0.88460  Biso   1.000  C
  H7       1.0000 0.12680  0.04210  0.88440  Biso   1.000  H
  C10      1.0000 0.06590  0.09570  0.95310  Biso   1.000  C
  H8       1.0000 0.12010  0.12060  0.99800  Biso   1.000  H
  C11      1.0000 0.98300  0.10520  0.95480  Biso   1.000  C
  C12      1.0000 0.90390  0.07100  0.88890  Biso   1.000  C
  H9       1.0000 0.84690  0.07870  0.88950  Biso   1.000  H
  C13      1.0000 0.90750  0.02500  0.82110  Biso   1.000  C
  H10      1.0000 0.85280  0.00070  0.77640  Biso   1.000  H
  C14      1.0000 0.91350  0.18430  0.37390  Biso   1.000  C
  H11      1.0000 0.85270  0.17030  0.36120  Biso   1.000  H
  C15      1.0000 0.06410  0.19760  0.44110  Biso   1.000  C
  H12      1.0000 0.12740  0.19440  0.48450  Biso   1.000  H
  C16      1.0000 0.05460  0.18270  0.10430  Biso   1.000  C
  H13      1.0000 0.11740  0.17590  0.11880  Biso   1.000  H
  C17      1.0000 0.90300  0.17730  0.03600  Biso   1.000  C
  H14      1.0000 0.84100  0.16550  0.99360  Biso   1.000  H
  C18      1.0000 0.92890  0.49130  0.10380  Biso   1.000  C
  C19      1.0000 0.85780  0.53500  0.03370  Biso   1.000  C
  H15      1.0000 0.79650  0.51540  0.00700  Biso   1.000  H
  C20      1.0000 0.87570  0.60630  0.00290  Biso   1.000  C
  C21      1.0000 0.96840  0.63270  0.03870  Biso   1.000  C
  H16      1.0000 0.98050  0.68160  0.01800  Biso   1.000  H
  C22      1.0000 0.04480  0.58750  0.10550  Biso   1.000  C
  C23      1.0000 0.02000  0.51830  0.13770  Biso   1.000  C
  H17      1.0000 0.06770  0.48860  0.18480  Biso   1.000  H
  C24      1.0000 0.90670  0.41640  0.14150  Biso   1.000  C
  C25      1.0000 0.79820  0.65650  0.93000  Biso   1.000  C
  C26      1.0000 0.14470  0.61280  0.13980  Biso   1.000  C
  H18      1.0000 0.18570  0.57440  0.18500  Biso   1.000  H
  H19      1.0000 0.15420  0.66550  0.16770  Biso   1.000  H
  H20      1.0000 0.15860  0.61470  0.08860  Biso   1.000  H
  C27      1.0000 0.80370  0.40840  0.37120  Biso   1.000  C
  C28      1.0000 0.79910  0.43750  0.44840  Biso   1.000  C
  H21      1.0000 0.76960  0.40670  0.47490  Biso   1.000  H
  C29      1.0000 0.83760  0.51160  0.48680  Biso   1.000  C
  C30      1.0000 0.88460  0.55550  0.44840  Biso   1.000  C
  H22      1.0000 0.91180  0.60500  0.47480  Biso   1.000  H
  C31      1.0000 0.89230  0.52770  0.37160  Biso   1.000  C
  C32      1.0000 0.84940  0.45400  0.33350  Biso   1.000  C
  H23      1.0000 0.85150  0.43480  0.28090  Biso   1.000  H
  C33      1.0000 0.75550  0.33010  0.32830  Biso   1.000  C
  C34      1.0000 0.83000  0.54530  0.56830  Biso   1.000  C
  C35      1.0000 0.94190  0.57480  0.32910  Biso   1.000  C
  H24      1.0000 0.96830  0.62330  0.36450  Biso   1.000  H
  H25      1.0000 0.89800  0.58910  0.26640  Biso   1.000  H
  H26      1.0000 0.99140  0.54230  0.32900  Biso   1.000  H
  Cd3      1.0000 0.66475  0.77358  0.82413  Biso   1.000  Cd
  Cd4      1.0000 0.39012  0.80290  0.70952  Biso   1.000  Cd
  O9       1.0000 0.52900  0.87870  0.79110  Biso   1.000  O
  O10      1.0000 0.67690  0.89310  0.89410  Biso   1.000  O
  O11      1.0000 0.76680  0.12280  0.13800  Biso   1.000  O
  O12      1.0000 0.69980  0.23160  0.05640  Biso   1.000  O
  O13      1.0000 0.75110  0.80940  0.74990  Biso   1.000  O
  O14      1.0000 0.77960  0.78960  0.63100  Biso   1.000  O
  O15      1.0000 0.69700  0.00020  0.38660  Biso   1.000  O
  O16      1.0000 0.65120  0.11950  0.41550  Biso   1.000  O
  N7       1.0000 0.56460  0.72460  0.68130  Biso   1.000  N
  N8       1.0000 0.46850  0.73300  0.63830  Biso   1.000  N
  N9       1.0000 0.50820  0.66550  0.54790  Biso   1.000  N
  N10      1.0000 0.47520  0.72220  0.84500  Biso   1.000  N
  N11      1.0000 0.57040  0.71920  0.88790  Biso   1.000  N
  N12      1.0000 0.51920  0.65340  0.97180  Biso   1.000  N
  C36      1.0000 0.50460  0.46470  0.26000  Biso   1.000  C
  H27      1.0000 0.44830  0.43150  0.23400  Biso   1.000  H
  H28      1.0000 0.55870  0.42890  0.28810  Biso   1.000  H
  C37      1.0000 0.50380  0.51960  0.33320  Biso   1.000  C
  C38      1.0000 0.42510  0.52780  0.34520  Biso   1.000  C
  H29      1.0000 0.37050  0.50020  0.30540  Biso   1.000  H
  C39      1.0000 0.42460  0.57600  0.41460  Biso   1.000  C
  H30      1.0000 0.37100  0.58010  0.42240  Biso   1.000  H
  C40      1.0000 0.50460  0.61710  0.47120  Biso   1.000  C
  C41      1.0000 0.58460  0.61280  0.46070  Biso   1.000  C
  H31      1.0000 0.63790  0.64300  0.49820  Biso   1.000  H
  C42      1.0000 0.58290  0.56220  0.39250  Biso   1.000  C
  H32      1.0000 0.63730  0.55670  0.38650  Biso   1.000  H
  C43      1.0000 0.50890  0.51370  0.18240  Biso   1.000  C
  C44      1.0000 0.43040  0.54920  0.11540  Biso   1.000  C
  H33      1.0000 0.37320  0.54210  0.11560  Biso   1.000  H
  C45      1.0000 0.43410  0.59570  0.04690  Biso   1.000  C
  H34      1.0000 0.37990  0.62060  0.00200  Biso   1.000  H
  C46      1.0000 0.51700  0.60520  0.04520  Biso   1.000  C
  C47      1.0000 0.59610  0.57100  0.11110  Biso   1.000  C
  H35      1.0000 0.65310  0.57870  0.11050  Biso   1.000  H
  C48      1.0000 0.59250  0.52500  0.17890  Biso   1.000  C
  H36      1.0000 0.64720  0.50070  0.22360  Biso   1.000  H
  C49      1.0000 0.58650  0.68430  0.62610  Biso   1.000  C
  H37      1.0000 0.64730  0.67030  0.63880  Biso   1.000  H
  C50      1.0000 0.43590  0.69760  0.55890  Biso   1.000  C
  H38      1.0000 0.37260  0.69440  0.51550  Biso   1.000  H
  C51      1.0000 0.44540  0.68270  0.89570  Biso   1.000  C
  H39      1.0000 0.38260  0.67590  0.88120  Biso   1.000  H
  C52      1.0000 0.59700  0.67730  0.96400  Biso   1.000  C
  H40      1.0000 0.65900  0.66550  0.00640  Biso   1.000  H
  C53      1.0000 0.57110  0.99130  0.89620  Biso   1.000  C
  C54      1.0000 0.64220  0.03500  0.96630  Biso   1.000  C
  H41      1.0000 0.70350  0.01540  0.99300  Biso   1.000  H
  C55      1.0000 0.62430  0.10630  0.99710  Biso   1.000  C
  C56      1.0000 0.53160  0.13270  0.96130  Biso   1.000  C
  H42      1.0000 0.51950  0.18160  0.98200  Biso   1.000  H
  C57      1.0000 0.45520  0.08750  0.89450  Biso   1.000  C
  C58      1.0000 0.48000  0.01830  0.86230  Biso   1.000  C
  H43      1.0000 0.43230  0.98860  0.81520  Biso   1.000  H
  C59      1.0000 0.59330  0.91640  0.85850  Biso   1.000  C
  C60      1.0000 0.70180  0.15650  0.07000  Biso   1.000  C
  C61      1.0000 0.35530  0.11280  0.86020  Biso   1.000  C
  H44      1.0000 0.31430  0.07440  0.81500  Biso   1.000  H
  H45      1.0000 0.34580  0.16550  0.83230  Biso   1.000  H
  H46      1.0000 0.34140  0.11470  0.91140  Biso   1.000  H
  C62      1.0000 0.69630  0.90840  0.62880  Biso   1.000  C
  C63      1.0000 0.70090  0.93750  0.55160  Biso   1.000  C
  H47      1.0000 0.73040  0.90670  0.52510  Biso   1.000  H
  C64      1.0000 0.66240  0.01160  0.51320  Biso   1.000  C
  C65      1.0000 0.61540  0.05550  0.55160  Biso   1.000  C
  H48      1.0000 0.58820  0.10500  0.52520  Biso   1.000  H
  C66      1.0000 0.60770  0.02770  0.62840  Biso   1.000  C
  C67      1.0000 0.65060  0.95400  0.66650  Biso   1.000  C
  H49      1.0000 0.64850  0.93480  0.71910  Biso   1.000  H
  C68      1.0000 0.74450  0.83010  0.67170  Biso   1.000  C
  C69      1.0000 0.67000  0.04530  0.43170  Biso   1.000  C
  C70      1.0000 0.55810  0.07480  0.67090  Biso   1.000  C
  H50      1.0000 0.53170  0.12330  0.63550  Biso   1.000  H
  H51      1.0000 0.60200  0.08910  0.73360  Biso   1.000  H
  H52      1.0000 0.50860  0.04230  0.67100  Biso   1.000  H
  Cd5      1.0000 0.16475  0.72642  0.82413  Biso   1.000  Cd
  Cd6      1.0000 0.89012  0.69710  0.70952  Biso   1.000  Cd
  O17      1.0000 0.02900  0.62130  0.79110  Biso   1.000  O
  O18      1.0000 0.17690  0.60690  0.89410  Biso   1.000  O
  O19      1.0000 0.26680  0.37720  0.13800  Biso   1.000  O
  O20      1.0000 0.19980  0.26840  0.05640  Biso   1.000  O
  O21      1.0000 0.25110  0.69060  0.74990  Biso   1.000  O
  O22      1.0000 0.27960  0.71040  0.63100  Biso   1.000  O
  O23      1.0000 0.19700  0.49980  0.38660  Biso   1.000  O
  O24      1.0000 0.15120  0.38050  0.41550  Biso   1.000  O
  N13      1.0000 0.06460  0.77540  0.68130  Biso   1.000  N
  N14      1.0000 0.96850  0.76700  0.63830  Biso   1.000  N
  N15      1.0000 0.00820  0.83450  0.54790  Biso   1.000  N
  N16      1.0000 0.97520  0.77780  0.84500  Biso   1.000  N
  N17      1.0000 0.07040  0.78080  0.88790  Biso   1.000  N
  N18      1.0000 0.01920  0.84660  0.97180  Biso   1.000  N
  C71      1.0000 0.00460  0.03530  0.26000  Biso   1.000  C
  H53      1.0000 0.94830  0.06850  0.23400  Biso   1.000  H
  H54      1.0000 0.05870  0.07110  0.28810  Biso   1.000  H
  C72      1.0000 0.00380  0.98040  0.33320  Biso   1.000  C
  C73      1.0000 0.92510  0.97220  0.34520  Biso   1.000  C
  H55      1.0000 0.87050  0.99980  0.30540  Biso   1.000  H
  C74      1.0000 0.92460  0.92400  0.41460  Biso   1.000  C
  H56      1.0000 0.87100  0.91990  0.42240  Biso   1.000  H
  C75      1.0000 0.00460  0.88290  0.47120  Biso   1.000  C
  C76      1.0000 0.08460  0.88720  0.46070  Biso   1.000  C
  H57      1.0000 0.13790  0.85700  0.49820  Biso   1.000  H
  C77      1.0000 0.08290  0.93780  0.39250  Biso   1.000  C
  H58      1.0000 0.13730  0.94330  0.38650  Biso   1.000  H
  C78      1.0000 0.00890  0.98630  0.18240  Biso   1.000  C
  C79      1.0000 0.93040  0.95080  0.11540  Biso   1.000  C
  H59      1.0000 0.87320  0.95790  0.11560  Biso   1.000  H
  C80      1.0000 0.93410  0.90430  0.04690  Biso   1.000  C
  H60      1.0000 0.87990  0.87940  0.00200  Biso   1.000  H
  C81      1.0000 0.01700  0.89480  0.04520  Biso   1.000  C
  C82      1.0000 0.09610  0.92900  0.11110  Biso   1.000  C
  H61      1.0000 0.15310  0.92130  0.11050  Biso   1.000  H
  C83      1.0000 0.09250  0.97500  0.17890  Biso   1.000  C
  H62      1.0000 0.14720  0.99930  0.22360  Biso   1.000  H
  C84      1.0000 0.08650  0.81570  0.62610  Biso   1.000  C
  H63      1.0000 0.14730  0.82970  0.63880  Biso   1.000  H
  C85      1.0000 0.93590  0.80240  0.55890  Biso   1.000  C
  H64      1.0000 0.87260  0.80560  0.51550  Biso   1.000  H
  C86      1.0000 0.94540  0.81730  0.89570  Biso   1.000  C
  H65      1.0000 0.88260  0.82410  0.88120  Biso   1.000  H
  C87      1.0000 0.09700  0.82270  0.96400  Biso   1.000  C
  H66      1.0000 0.15900  0.83450  0.00640  Biso   1.000  H
  C88      1.0000 0.07110  0.50870  0.89620  Biso   1.000  C
  C89      1.0000 0.14220  0.46500  0.96630  Biso   1.000  C
  H67      1.0000 0.20350  0.48460  0.99300  Biso   1.000  H
  C90      1.0000 0.12430  0.39370  0.99710  Biso   1.000  C
  C91      1.0000 0.03160  0.36730  0.96130  Biso   1.000  C
  H68      1.0000 0.01950  0.31840  0.98200  Biso   1.000  H
  C92      1.0000 0.95520  0.41250  0.89450  Biso   1.000  C
  C93      1.0000 0.98000  0.48170  0.86230  Biso   1.000  C
  H69      1.0000 0.93230  0.51140  0.81520  Biso   1.000  H
  C94      1.0000 0.09330  0.58360  0.85850  Biso   1.000  C
  C95      1.0000 0.20180  0.34350  0.07000  Biso   1.000  C
  C96      1.0000 0.85530  0.38720  0.86020  Biso   1.000  C
  H70      1.0000 0.81430  0.42560  0.81500  Biso   1.000  H
  H71      1.0000 0.84580  0.33450  0.83230  Biso   1.000  H
  H72      1.0000 0.84140  0.38530  0.91140  Biso   1.000  H
  C97      1.0000 0.19630  0.59160  0.62880  Biso   1.000  C
  C98      1.0000 0.20090  0.56250  0.55160  Biso   1.000  C
  H73      1.0000 0.23040  0.59330  0.52510  Biso   1.000  H
  C99      1.0000 0.16240  0.48840  0.51320  Biso   1.000  C
  C100     1.0000 0.11540  0.44450  0.55160  Biso   1.000  C
  H74      1.0000 0.08820  0.39500  0.52520  Biso   1.000  H
  C101     1.0000 0.10770  0.47230  0.62840  Biso   1.000  C
  C102     1.0000 0.15060  0.54600  0.66650  Biso   1.000  C
  H75      1.0000 0.14850  0.56520  0.71910  Biso   1.000  H
  C103     1.0000 0.24450  0.66990  0.67170  Biso   1.000  C
  C104     1.0000 0.17000  0.45470  0.43170  Biso   1.000  C
  C105     1.0000 0.05810  0.42520  0.67090  Biso   1.000  C
  H76      1.0000 0.03170  0.37670  0.63550  Biso   1.000  H
  H77      1.0000 0.10200  0.41090  0.73360  Biso   1.000  H
  H78      1.0000 0.00860  0.45770  0.67100  Biso   1.000  H
  Cd7      1.0000 0.33525  0.22642  0.17587  Biso   1.000  Cd
  Cd8      1.0000 0.60988  0.19710  0.29048  Biso   1.000  Cd
  O25      1.0000 0.47100  0.12130  0.20890  Biso   1.000  O
  O26      1.0000 0.32310  0.10690  0.10590  Biso   1.000  O
  O27      1.0000 0.23320  0.87720  0.86200  Biso   1.000  O
  O28      1.0000 0.30020  0.76840  0.94360  Biso   1.000  O
  O29      1.0000 0.24890  0.19060  0.25010  Biso   1.000  O
  O30      1.0000 0.22040  0.21040  0.36900  Biso   1.000  O
  O31      1.0000 0.30300  0.99980  0.61340  Biso   1.000  O
  O32      1.0000 0.34880  0.88050  0.58450  Biso   1.000  O
  N19      1.0000 0.43540  0.27540  0.31870  Biso   1.000  N
  N20      1.0000 0.53150  0.26700  0.36170  Biso   1.000  N
  N21      1.0000 0.49180  0.33450  0.45210  Biso   1.000  N
  N22      1.0000 0.52480  0.27780  0.15500  Biso   1.000  N
  N23      1.0000 0.42960  0.28080  0.11210  Biso   1.000  N
  N24      1.0000 0.48080  0.34660  0.02820  Biso   1.000  N
  C106     1.0000 0.49540  0.53530  0.74000  Biso   1.000  C
  H79      1.0000 0.55170  0.56850  0.76600  Biso   1.000  H
  H80      1.0000 0.44130  0.57110  0.71190  Biso   1.000  H
  C107     1.0000 0.49620  0.48040  0.66680  Biso   1.000  C
  C108     1.0000 0.57490  0.47220  0.65480  Biso   1.000  C
  H81      1.0000 0.62950  0.49980  0.69460  Biso   1.000  H
  C109     1.0000 0.57540  0.42400  0.58540  Biso   1.000  C
  H82      1.0000 0.62900  0.41990  0.57760  Biso   1.000  H
  C110     1.0000 0.49540  0.38290  0.52880  Biso   1.000  C
  C111     1.0000 0.41540  0.38720  0.53930  Biso   1.000  C
  H83      1.0000 0.36210  0.35700  0.50180  Biso   1.000  H
  C112     1.0000 0.41710  0.43780  0.60750  Biso   1.000  C
  H84      1.0000 0.36270  0.44330  0.61350  Biso   1.000  H
  C113     1.0000 0.49110  0.48630  0.81760  Biso   1.000  C
  C114     1.0000 0.56960  0.45080  0.88460  Biso   1.000  C
  H85      1.0000 0.62680  0.45790  0.88440  Biso   1.000  H
  C115     1.0000 0.56590  0.40430  0.95310  Biso   1.000  C
  H86      1.0000 0.62010  0.37940  0.99800  Biso   1.000  H
  C116     1.0000 0.48300  0.39480  0.95480  Biso   1.000  C
  C117     1.0000 0.40390  0.42900  0.88890  Biso   1.000  C
  H87      1.0000 0.34690  0.42130  0.88950  Biso   1.000  H
  C118     1.0000 0.40750  0.47500  0.82110  Biso   1.000  C
  H88      1.0000 0.35280  0.49930  0.77640  Biso   1.000  H
  C119     1.0000 0.41350  0.31570  0.37390  Biso   1.000  C
  H89      1.0000 0.35270  0.32970  0.36120  Biso   1.000  H
  C120     1.0000 0.56410  0.30240  0.44110  Biso   1.000  C
  H90      1.0000 0.62740  0.30560  0.48450  Biso   1.000  H
  C121     1.0000 0.55460  0.31730  0.10430  Biso   1.000  C
  H91      1.0000 0.61740  0.32410  0.11880  Biso   1.000  H
  C122     1.0000 0.40300  0.32270  0.03600  Biso   1.000  C
  H92      1.0000 0.34100  0.33450  0.99360  Biso   1.000  H
  C123     1.0000 0.42890  0.00870  0.10380  Biso   1.000  C
  C124     1.0000 0.35780  0.96500  0.03370  Biso   1.000  C
  H93      1.0000 0.29650  0.98460  0.00700  Biso   1.000  H
  C125     1.0000 0.37570  0.89370  0.00290  Biso   1.000  C
  C126     1.0000 0.46840  0.86730  0.03870  Biso   1.000  C
  H94      1.0000 0.48050  0.81840  0.01800  Biso   1.000  H
  C127     1.0000 0.54480  0.91250  0.10550  Biso   1.000  C
  C128     1.0000 0.52000  0.98170  0.13770  Biso   1.000  C
  H95      1.0000 0.56770  0.01140  0.18480  Biso   1.000  H
  C129     1.0000 0.40670  0.08360  0.14150  Biso   1.000  C
  C130     1.0000 0.29820  0.84350  0.93000  Biso   1.000  C
  C131     1.0000 0.64470  0.88720  0.13980  Biso   1.000  C
  H96      1.0000 0.68570  0.92560  0.18500  Biso   1.000  H
  H97      1.0000 0.65420  0.83450  0.16770  Biso   1.000  H
  H98      1.0000 0.65860  0.88530  0.08860  Biso   1.000  H
  C132     1.0000 0.30370  0.09160  0.37120  Biso   1.000  C
  C133     1.0000 0.29910  0.06250  0.44840  Biso   1.000  C
  H99      1.0000 0.26960  0.09330  0.47490  Biso   1.000  H
  C134     1.0000 0.33760  0.98840  0.48680  Biso   1.000  C
  C135     1.0000 0.38460  0.94450  0.44840  Biso   1.000  C
  H100     1.0000 0.41180  0.89500  0.47480  Biso   1.000  H
  C136     1.0000 0.39230  0.97230  0.37160  Biso   1.000  C
  C137     1.0000 0.34940  0.04600  0.33350  Biso   1.000  C
  H101     1.0000 0.35150  0.06520  0.28090  Biso   1.000  H
  C138     1.0000 0.25550  0.16990  0.32830  Biso   1.000  C
  C139     1.0000 0.33000  0.95470  0.56830  Biso   1.000  C
  C140     1.0000 0.44190  0.92520  0.32910  Biso   1.000  C
  H102     1.0000 0.46830  0.87670  0.36450  Biso   1.000  H
  H103     1.0000 0.39800  0.91090  0.26640  Biso   1.000  H
  H104     1.0000 0.49140  0.95770  0.32900  Biso   1.000  H
