data_image0
_cell_length_a       7.2338
_cell_length_b       15.0238
_cell_length_c       9.2153
_cell_angle_alpha    90
_cell_angle_beta     107.741
_cell_angle_gamma    90

_symmetry_space_group_name_H-M    "P 1"
_symmetry_int_tables_number       1

loop_
  _symmetry_equiv_pos_as_xyz
  'x, y, z'

loop_
  _atom_site_label
  _atom_site_occupancy
  _atom_site_fract_x
  _atom_site_fract_y
  _atom_site_fract_z
  _atom_site_thermal_displace_type
  _atom_site_B_iso_or_equiv
  _atom_site_type_symbol
  Zn1      1.0000 0.48795  0.23994  0.02498  Biso   1.000  Zn
  P1       1.0000 0.23097  0.34172  0.72520  Biso   1.000  P
  H1       1.0000 0.11100  0.28100  0.66100  Biso   1.000  H
  P2       1.0000 0.76667  0.31754  0.33530  Biso   1.000  P
  H2       1.0000 0.84600  0.23400  0.38800  Biso   1.000  H
  O1       1.0000 0.31340  0.32230  0.89390  Biso   1.000  O
  O2       1.0000 0.68630  0.31420  0.16130  Biso   1.000  O
  O3       1.0000 0.38450  0.34210  0.64160  Biso   1.000  O
  O4       1.0000 0.60740  0.33680  0.40880  Biso   1.000  O
  O5       1.0000 0.11990  0.42870  0.70370  Biso   1.000  O
  O6       1.0000 0.93380  0.38120  0.38220  Biso   1.000  O
  Zn2      1.0000 0.51205  0.73994  0.47502  Biso   1.000  Zn
  P3       1.0000 0.76903  0.84172  0.77480  Biso   1.000  P
  H3       1.0000 0.88900  0.78100  0.83900  Biso   1.000  H
  P4       1.0000 0.23333  0.81754  0.16470  Biso   1.000  P
  H4       1.0000 0.15400  0.73400  0.11200  Biso   1.000  H
  O7       1.0000 0.68660  0.82230  0.60610  Biso   1.000  O
  O8       1.0000 0.31370  0.81420  0.33870  Biso   1.000  O
  O9       1.0000 0.61550  0.84210  0.85840  Biso   1.000  O
  O10      1.0000 0.39260  0.83680  0.09120  Biso   1.000  O
  O11      1.0000 0.88010  0.92870  0.79630  Biso   1.000  O
  O12      1.0000 0.06620  0.88120  0.11780  Biso   1.000  O
  Zn3      1.0000 0.51205  0.76006  0.97502  Biso   1.000  Zn
  P5       1.0000 0.76903  0.65828  0.27480  Biso   1.000  P
  H5       1.0000 0.88900  0.71900  0.33900  Biso   1.000  H
  P6       1.0000 0.23333  0.68246  0.66470  Biso   1.000  P
  H6       1.0000 0.15400  0.76600  0.61200  Biso   1.000  H
  O13      1.0000 0.68660  0.67770  0.10610  Biso   1.000  O
  O14      1.0000 0.31370  0.68580  0.83870  Biso   1.000  O
  O15      1.0000 0.61550  0.65790  0.35840  Biso   1.000  O
  O16      1.0000 0.39260  0.66320  0.59120  Biso   1.000  O
  O17      1.0000 0.88010  0.57130  0.29630  Biso   1.000  O
  O18      1.0000 0.06620  0.61880  0.61780  Biso   1.000  O
  Zn4      1.0000 0.48795  0.26006  0.52498  Biso   1.000  Zn
  P7       1.0000 0.23097  0.15828  0.22520  Biso   1.000  P
  H7       1.0000 0.11100  0.21900  0.16100  Biso   1.000  H
  P8       1.0000 0.76667  0.18246  0.83530  Biso   1.000  P
  H8       1.0000 0.84600  0.26600  0.88800  Biso   1.000  H
  O19      1.0000 0.31340  0.17770  0.39390  Biso   1.000  O
  O20      1.0000 0.68630  0.18580  0.66130  Biso   1.000  O
  O21      1.0000 0.38450  0.15790  0.14160  Biso   1.000  O
  O22      1.0000 0.60740  0.16320  0.90880  Biso   1.000  O
  O23      1.0000 0.11990  0.07130  0.20370  Biso   1.000  O
  O24      1.0000 0.93380  0.11880  0.88220  Biso   1.000  O
  Zn5      1.0000 0.00000  0.50000  0.50000  Biso   1.000  Zn
  Zn6      1.0000 0.00000  0.00000  0.00000  Biso   1.000  Zn
