data_image0
_cell_length_a       12.2383
_cell_length_b       25.491
_cell_length_c       7.5539
_cell_angle_alpha    90
_cell_angle_beta     94.329
_cell_angle_gamma    90

_symmetry_space_group_name_H-M    "P 1"
_symmetry_int_tables_number       1

loop_
  _symmetry_equiv_pos_as_xyz
  'x, y, z'

loop_
  _atom_site_label
  _atom_site_occupancy
  _atom_site_fract_x
  _atom_site_fract_y
  _atom_site_fract_z
  _atom_site_thermal_displace_type
  _atom_site_B_iso_or_equiv
  _atom_site_type_symbol
  C1       1.0000 0.86520  0.88960  0.39280  Biso   1.000  C
  C2       1.0000 0.86470  0.95740  0.91220  Biso   1.000  C
  C3       1.0000 0.76570  0.75594  0.75710  Biso   1.000  C
  H1       1.0000 0.70280  0.75030  0.68250  Biso   1.000  H
  C4       1.0000 0.82150  0.71271  0.83000  Biso   1.000  C
  H2       1.0000 0.79550  0.67900  0.80550  Biso   1.000  H
  C5       1.0000 0.91480  0.72001  0.93790  Biso   1.000  C
  C6       1.0000 0.95270  0.77076  0.96600  Biso   1.000  C
  H3       1.0000 0.01770  0.77720  0.03450  Biso   1.000  H
  C7       1.0000 0.89250  0.81110  0.89080  Biso   1.000  C
  H4       1.0000 0.91840  0.84500  0.91120  Biso   1.000  H
  C8       1.0000 0.97220  0.67370  0.03030  Biso   1.000  C
  Mn1      1.0000 0.68809  0.87537  0.70307  Biso   1.000  Mn
  N1       1.0000 0.79280  0.88396  0.47840  Biso   1.000  N
  N2       1.0000 0.79260  0.93132  0.85970  Biso   1.000  N
  N3       1.0000 0.79790  0.80516  0.78880  Biso   1.000  N
  O1       1.0000 0.07380  0.67752  0.06520  Biso   1.000  O
  O2       1.0000 0.91310  0.63492  0.06610  Biso   1.000  O
  C9       1.0000 0.36520  0.38960  0.39280  Biso   1.000  C
  C10      1.0000 0.36470  0.45740  0.91220  Biso   1.000  C
  C11      1.0000 0.26570  0.25594  0.75710  Biso   1.000  C
  H5       1.0000 0.20280  0.25030  0.68250  Biso   1.000  H
  C12      1.0000 0.32150  0.21271  0.83000  Biso   1.000  C
  H6       1.0000 0.29550  0.17900  0.80550  Biso   1.000  H
  C13      1.0000 0.41480  0.22001  0.93790  Biso   1.000  C
  C14      1.0000 0.45270  0.27076  0.96600  Biso   1.000  C
  H7       1.0000 0.51770  0.27720  0.03450  Biso   1.000  H
  C15      1.0000 0.39250  0.31110  0.89080  Biso   1.000  C
  H8       1.0000 0.41840  0.34500  0.91120  Biso   1.000  H
  C16      1.0000 0.47220  0.17370  0.03030  Biso   1.000  C
  Mn2      1.0000 0.18809  0.37537  0.70307  Biso   1.000  Mn
  N4       1.0000 0.29280  0.38396  0.47840  Biso   1.000  N
  N5       1.0000 0.29260  0.43132  0.85970  Biso   1.000  N
  N6       1.0000 0.29790  0.30516  0.78880  Biso   1.000  N
  O3       1.0000 0.57380  0.17752  0.06520  Biso   1.000  O
  O4       1.0000 0.41310  0.13492  0.06610  Biso   1.000  O
  C17      1.0000 0.13480  0.88960  0.10720  Biso   1.000  C
  C18      1.0000 0.13530  0.95740  0.58780  Biso   1.000  C
  C19      1.0000 0.23430  0.75594  0.74290  Biso   1.000  C
  H9       1.0000 0.29720  0.75030  0.81750  Biso   1.000  H
  C20      1.0000 0.17850  0.71271  0.67000  Biso   1.000  C
  H10      1.0000 0.20450  0.67900  0.69450  Biso   1.000  H
  C21      1.0000 0.08520  0.72001  0.56210  Biso   1.000  C
  C22      1.0000 0.04730  0.77076  0.53400  Biso   1.000  C
  H11      1.0000 0.98230  0.77720  0.46550  Biso   1.000  H
  C23      1.0000 0.10750  0.81110  0.60920  Biso   1.000  C
  H12      1.0000 0.08160  0.84500  0.58880  Biso   1.000  H
  C24      1.0000 0.02780  0.67370  0.46970  Biso   1.000  C
  Mn3      1.0000 0.31191  0.87537  0.79693  Biso   1.000  Mn
  N7       1.0000 0.20720  0.88396  0.02160  Biso   1.000  N
  N8       1.0000 0.20740  0.93132  0.64030  Biso   1.000  N
  N9       1.0000 0.20210  0.80516  0.71120  Biso   1.000  N
  O5       1.0000 0.92620  0.67752  0.43480  Biso   1.000  O
  O6       1.0000 0.08690  0.63492  0.43390  Biso   1.000  O
  C25      1.0000 0.63480  0.38960  0.10720  Biso   1.000  C
  C26      1.0000 0.63530  0.45740  0.58780  Biso   1.000  C
  C27      1.0000 0.73430  0.25594  0.74290  Biso   1.000  C
  H13      1.0000 0.79720  0.25030  0.81750  Biso   1.000  H
  C28      1.0000 0.67850  0.21271  0.67000  Biso   1.000  C
  H14      1.0000 0.70450  0.17900  0.69450  Biso   1.000  H
  C29      1.0000 0.58520  0.22001  0.56210  Biso   1.000  C
  C30      1.0000 0.54730  0.27076  0.53400  Biso   1.000  C
  H15      1.0000 0.48230  0.27720  0.46550  Biso   1.000  H
  C31      1.0000 0.60750  0.31110  0.60920  Biso   1.000  C
  H16      1.0000 0.58160  0.34500  0.58880  Biso   1.000  H
  C32      1.0000 0.52780  0.17370  0.46970  Biso   1.000  C
  Mn4      1.0000 0.81191  0.37537  0.79693  Biso   1.000  Mn
  N10      1.0000 0.70720  0.38396  0.02160  Biso   1.000  N
  N11      1.0000 0.70740  0.43132  0.64030  Biso   1.000  N
  N12      1.0000 0.70210  0.30516  0.71120  Biso   1.000  N
  O7       1.0000 0.42620  0.17752  0.43480  Biso   1.000  O
  O8       1.0000 0.58690  0.13492  0.43390  Biso   1.000  O
  C33      1.0000 0.13480  0.11040  0.60720  Biso   1.000  C
  C34      1.0000 0.13530  0.04260  0.08780  Biso   1.000  C
  C35      1.0000 0.23430  0.24406  0.24290  Biso   1.000  C
  H17      1.0000 0.29720  0.24970  0.31750  Biso   1.000  H
  C36      1.0000 0.17850  0.28729  0.17000  Biso   1.000  C
  H18      1.0000 0.20450  0.32100  0.19450  Biso   1.000  H
  C37      1.0000 0.08520  0.27999  0.06210  Biso   1.000  C
  C38      1.0000 0.04730  0.22924  0.03400  Biso   1.000  C
  H19      1.0000 0.98230  0.22280  0.96550  Biso   1.000  H
  C39      1.0000 0.10750  0.18890  0.10920  Biso   1.000  C
  H20      1.0000 0.08160  0.15500  0.08880  Biso   1.000  H
  C40      1.0000 0.02780  0.32630  0.96970  Biso   1.000  C
  Mn5      1.0000 0.31191  0.12463  0.29693  Biso   1.000  Mn
  N13      1.0000 0.20720  0.11604  0.52160  Biso   1.000  N
  N14      1.0000 0.20740  0.06868  0.14030  Biso   1.000  N
  N15      1.0000 0.20210  0.19484  0.21120  Biso   1.000  N
  O9       1.0000 0.92620  0.32248  0.93480  Biso   1.000  O
  O10      1.0000 0.08690  0.36508  0.93390  Biso   1.000  O
  C41      1.0000 0.63480  0.61040  0.60720  Biso   1.000  C
  C42      1.0000 0.63530  0.54260  0.08780  Biso   1.000  C
  C43      1.0000 0.73430  0.74406  0.24290  Biso   1.000  C
  H21      1.0000 0.79720  0.74970  0.31750  Biso   1.000  H
  C44      1.0000 0.67850  0.78729  0.17000  Biso   1.000  C
  H22      1.0000 0.70450  0.82100  0.19450  Biso   1.000  H
  C45      1.0000 0.58520  0.77999  0.06210  Biso   1.000  C
  C46      1.0000 0.54730  0.72924  0.03400  Biso   1.000  C
  H23      1.0000 0.48230  0.72280  0.96550  Biso   1.000  H
  C47      1.0000 0.60750  0.68890  0.10920  Biso   1.000  C
  H24      1.0000 0.58160  0.65500  0.08880  Biso   1.000  H
  C48      1.0000 0.52780  0.82630  0.96970  Biso   1.000  C
  Mn6      1.0000 0.81191  0.62463  0.29693  Biso   1.000  Mn
  N16      1.0000 0.70720  0.61604  0.52160  Biso   1.000  N
  N17      1.0000 0.70740  0.56868  0.14030  Biso   1.000  N
  N18      1.0000 0.70210  0.69484  0.21120  Biso   1.000  N
  O11      1.0000 0.42620  0.82248  0.93480  Biso   1.000  O
  O12      1.0000 0.58690  0.86508  0.93390  Biso   1.000  O
  C49      1.0000 0.86520  0.11040  0.89280  Biso   1.000  C
  C50      1.0000 0.86470  0.04260  0.41220  Biso   1.000  C
  C51      1.0000 0.76570  0.24406  0.25710  Biso   1.000  C
  H25      1.0000 0.70280  0.24970  0.18250  Biso   1.000  H
  C52      1.0000 0.82150  0.28729  0.33000  Biso   1.000  C
  H26      1.0000 0.79550  0.32100  0.30550  Biso   1.000  H
  C53      1.0000 0.91480  0.27999  0.43790  Biso   1.000  C
  C54      1.0000 0.95270  0.22924  0.46600  Biso   1.000  C
  H27      1.0000 0.01770  0.22280  0.53450  Biso   1.000  H
  C55      1.0000 0.89250  0.18890  0.39080  Biso   1.000  C
  H28      1.0000 0.91840  0.15500  0.41120  Biso   1.000  H
  C56      1.0000 0.97220  0.32630  0.53030  Biso   1.000  C
  Mn7      1.0000 0.68809  0.12463  0.20307  Biso   1.000  Mn
  N19      1.0000 0.79280  0.11604  0.97840  Biso   1.000  N
  N20      1.0000 0.79260  0.06868  0.35970  Biso   1.000  N
  N21      1.0000 0.79790  0.19484  0.28880  Biso   1.000  N
  O13      1.0000 0.07380  0.32248  0.56520  Biso   1.000  O
  O14      1.0000 0.91310  0.36508  0.56610  Biso   1.000  O
  C57      1.0000 0.36520  0.61040  0.89280  Biso   1.000  C
  C58      1.0000 0.36470  0.54260  0.41220  Biso   1.000  C
  C59      1.0000 0.26570  0.74406  0.25710  Biso   1.000  C
  H29      1.0000 0.20280  0.74970  0.18250  Biso   1.000  H
  C60      1.0000 0.32150  0.78729  0.33000  Biso   1.000  C
  H30      1.0000 0.29550  0.82100  0.30550  Biso   1.000  H
  C61      1.0000 0.41480  0.77999  0.43790  Biso   1.000  C
  C62      1.0000 0.45270  0.72924  0.46600  Biso   1.000  C
  H31      1.0000 0.51770  0.72280  0.53450  Biso   1.000  H
  C63      1.0000 0.39250  0.68890  0.39080  Biso   1.000  C
  H32      1.0000 0.41840  0.65500  0.41120  Biso   1.000  H
  C64      1.0000 0.47220  0.82630  0.53030  Biso   1.000  C
  Mn8      1.0000 0.18809  0.62463  0.20307  Biso   1.000  Mn
  N22      1.0000 0.29280  0.61604  0.97840  Biso   1.000  N
  N23      1.0000 0.29260  0.56868  0.35970  Biso   1.000  N
  N24      1.0000 0.29790  0.69484  0.28880  Biso   1.000  N
  O15      1.0000 0.57380  0.82248  0.56520  Biso   1.000  O
  O16      1.0000 0.41310  0.86508  0.56610  Biso   1.000  O
  Ag1      1.0000 0.00000  0.89711  0.25000  Biso   1.000  Ag
  Ag2      1.0000 0.50000  0.39711  0.25000  Biso   1.000  Ag
  Ag3      1.0000 0.00000  0.10289  0.75000  Biso   1.000  Ag
  Ag4      1.0000 0.50000  0.60289  0.75000  Biso   1.000  Ag
  Ag5      1.0000 0.00000  0.00000  0.00000  Biso   1.000  Ag
  Ag6      1.0000 0.50000  0.50000  0.00000  Biso   1.000  Ag
  Ag7      1.0000 0.00000  0.00000  0.50000  Biso   1.000  Ag
  Ag8      1.0000 0.50000  0.50000  0.50000  Biso   1.000  Ag
