data_image0
_cell_length_a       12.133
_cell_length_b       25.156
_cell_length_c       7.6373
_cell_angle_alpha    90
_cell_angle_beta     93.317
_cell_angle_gamma    90

_symmetry_space_group_name_H-M    "P 1"
_symmetry_int_tables_number       1

loop_
  _symmetry_equiv_pos_as_xyz
  'x, y, z'

loop_
  _atom_site_label
  _atom_site_occupancy
  _atom_site_fract_x
  _atom_site_fract_y
  _atom_site_fract_z
  _atom_site_thermal_displace_type
  _atom_site_B_iso_or_equiv
  _atom_site_type_symbol
  Mn1      1.0000 0.80938  0.62358  0.29714  Biso   1.000  Mn
  N1       1.0000 0.70550  0.61660  0.52640  Biso   1.000  N
  N2       1.0000 0.70310  0.56620  0.14940  Biso   1.000  N
  N3       1.0000 0.69960  0.69475  0.21120  Biso   1.000  N
  O1       1.0000 0.42610  0.82293  0.93100  Biso   1.000  O
  O2       1.0000 0.58740  0.86691  0.93310  Biso   1.000  O
  C1       1.0000 0.63230  0.61230  0.61080  Biso   1.000  C
  C2       1.0000 0.63070  0.54070  0.09420  Biso   1.000  C
  C3       1.0000 0.60570  0.68830  0.11010  Biso   1.000  C
  H1       1.0000 0.57860  0.65430  0.08630  Biso   1.000  H
  C4       1.0000 0.54910  0.73260  0.04120  Biso   1.000  C
  H2       1.0000 0.48260  0.72730  0.97680  Biso   1.000  H
  C5       1.0000 0.58430  0.77930  0.06250  Biso   1.000  C
  C6       1.0000 0.67880  0.78800  0.16730  Biso   1.000  C
  H3       1.0000 0.70590  0.82230  0.18660  Biso   1.000  H
  C7       1.0000 0.73180  0.74480  0.24240  Biso   1.000  C
  H4       1.0000 0.79320  0.75070  0.31870  Biso   1.000  H
  C8       1.0000 0.52790  0.82740  0.96910  Biso   1.000  C
  Mn2      1.0000 0.30938  0.12358  0.29714  Biso   1.000  Mn
  N4       1.0000 0.20550  0.11660  0.52640  Biso   1.000  N
  N5       1.0000 0.20310  0.06620  0.14940  Biso   1.000  N
  N6       1.0000 0.19960  0.19475  0.21120  Biso   1.000  N
  O3       1.0000 0.92610  0.32293  0.93100  Biso   1.000  O
  O4       1.0000 0.08740  0.36691  0.93310  Biso   1.000  O
  C9       1.0000 0.13230  0.11230  0.61080  Biso   1.000  C
  C10      1.0000 0.13070  0.04070  0.09420  Biso   1.000  C
  C11      1.0000 0.10570  0.18830  0.11010  Biso   1.000  C
  H5       1.0000 0.07860  0.15430  0.08630  Biso   1.000  H
  C12      1.0000 0.04910  0.23260  0.04120  Biso   1.000  C
  H6       1.0000 0.98260  0.22730  0.97680  Biso   1.000  H
  C13      1.0000 0.08430  0.27930  0.06250  Biso   1.000  C
  C14      1.0000 0.17880  0.28800  0.16730  Biso   1.000  C
  H7       1.0000 0.20590  0.32230  0.18660  Biso   1.000  H
  C15      1.0000 0.23180  0.24480  0.24240  Biso   1.000  C
  H8       1.0000 0.29320  0.25070  0.31870  Biso   1.000  H
  C16      1.0000 0.02790  0.32740  0.96910  Biso   1.000  C
  Mn3      1.0000 0.19062  0.62358  0.20286  Biso   1.000  Mn
  N7       1.0000 0.29450  0.61660  0.97360  Biso   1.000  N
  N8       1.0000 0.29690  0.56620  0.35060  Biso   1.000  N
  N9       1.0000 0.30040  0.69475  0.28880  Biso   1.000  N
  O5       1.0000 0.57390  0.82293  0.56900  Biso   1.000  O
  O6       1.0000 0.41260  0.86691  0.56690  Biso   1.000  O
  C17      1.0000 0.36770  0.61230  0.88920  Biso   1.000  C
  C18      1.0000 0.36930  0.54070  0.40580  Biso   1.000  C
  C19      1.0000 0.39430  0.68830  0.38990  Biso   1.000  C
  H9       1.0000 0.42140  0.65430  0.41370  Biso   1.000  H
  C20      1.0000 0.45090  0.73260  0.45880  Biso   1.000  C
  H10      1.0000 0.51740  0.72730  0.52320  Biso   1.000  H
  C21      1.0000 0.41570  0.77930  0.43750  Biso   1.000  C
  C22      1.0000 0.32120  0.78800  0.33270  Biso   1.000  C
  H11      1.0000 0.29410  0.82230  0.31340  Biso   1.000  H
  C23      1.0000 0.26820  0.74480  0.25760  Biso   1.000  C
  H12      1.0000 0.20680  0.75070  0.18130  Biso   1.000  H
  C24      1.0000 0.47210  0.82740  0.53090  Biso   1.000  C
  Mn4      1.0000 0.69062  0.12358  0.20286  Biso   1.000  Mn
  N10      1.0000 0.79450  0.11660  0.97360  Biso   1.000  N
  N11      1.0000 0.79690  0.06620  0.35060  Biso   1.000  N
  N12      1.0000 0.80040  0.19475  0.28880  Biso   1.000  N
  O7       1.0000 0.07390  0.32293  0.56900  Biso   1.000  O
  O8       1.0000 0.91260  0.36691  0.56690  Biso   1.000  O
  C25      1.0000 0.86770  0.11230  0.88920  Biso   1.000  C
  C26      1.0000 0.86930  0.04070  0.40580  Biso   1.000  C
  C27      1.0000 0.89430  0.18830  0.38990  Biso   1.000  C
  H13      1.0000 0.92140  0.15430  0.41370  Biso   1.000  H
  C28      1.0000 0.95090  0.23260  0.45880  Biso   1.000  C
  H14      1.0000 0.01740  0.22730  0.52320  Biso   1.000  H
  C29      1.0000 0.91570  0.27930  0.43750  Biso   1.000  C
  C30      1.0000 0.82120  0.28800  0.33270  Biso   1.000  C
  H15      1.0000 0.79410  0.32230  0.31340  Biso   1.000  H
  C31      1.0000 0.76820  0.24480  0.25760  Biso   1.000  C
  H16      1.0000 0.70680  0.25070  0.18130  Biso   1.000  H
  C32      1.0000 0.97210  0.32740  0.53090  Biso   1.000  C
  Mn5      1.0000 0.19062  0.37642  0.70286  Biso   1.000  Mn
  N13      1.0000 0.29450  0.38340  0.47360  Biso   1.000  N
  N14      1.0000 0.29690  0.43380  0.85060  Biso   1.000  N
  N15      1.0000 0.30040  0.30525  0.78880  Biso   1.000  N
  O9       1.0000 0.57390  0.17707  0.06900  Biso   1.000  O
  O10      1.0000 0.41260  0.13309  0.06690  Biso   1.000  O
  C33      1.0000 0.36770  0.38770  0.38920  Biso   1.000  C
  C34      1.0000 0.36930  0.45930  0.90580  Biso   1.000  C
  C35      1.0000 0.39430  0.31170  0.88990  Biso   1.000  C
  H17      1.0000 0.42140  0.34570  0.91370  Biso   1.000  H
  C36      1.0000 0.45090  0.26740  0.95880  Biso   1.000  C
  H18      1.0000 0.51740  0.27270  0.02320  Biso   1.000  H
  C37      1.0000 0.41570  0.22070  0.93750  Biso   1.000  C
  C38      1.0000 0.32120  0.21200  0.83270  Biso   1.000  C
  H19      1.0000 0.29410  0.17770  0.81340  Biso   1.000  H
  C39      1.0000 0.26820  0.25520  0.75760  Biso   1.000  C
  H20      1.0000 0.20680  0.24930  0.68130  Biso   1.000  H
  C40      1.0000 0.47210  0.17260  0.03090  Biso   1.000  C
  Mn6      1.0000 0.69062  0.87642  0.70286  Biso   1.000  Mn
  N16      1.0000 0.79450  0.88340  0.47360  Biso   1.000  N
  N17      1.0000 0.79690  0.93380  0.85060  Biso   1.000  N
  N18      1.0000 0.80040  0.80525  0.78880  Biso   1.000  N
  O11      1.0000 0.07390  0.67707  0.06900  Biso   1.000  O
  O12      1.0000 0.91260  0.63309  0.06690  Biso   1.000  O
  C41      1.0000 0.86770  0.88770  0.38920  Biso   1.000  C
  C42      1.0000 0.86930  0.95930  0.90580  Biso   1.000  C
  C43      1.0000 0.89430  0.81170  0.88990  Biso   1.000  C
  H21      1.0000 0.92140  0.84570  0.91370  Biso   1.000  H
  C44      1.0000 0.95090  0.76740  0.95880  Biso   1.000  C
  H22      1.0000 0.01740  0.77270  0.02320  Biso   1.000  H
  C45      1.0000 0.91570  0.72070  0.93750  Biso   1.000  C
  C46      1.0000 0.82120  0.71200  0.83270  Biso   1.000  C
  H23      1.0000 0.79410  0.67770  0.81340  Biso   1.000  H
  C47      1.0000 0.76820  0.75520  0.75760  Biso   1.000  C
  H24      1.0000 0.70680  0.74930  0.68130  Biso   1.000  H
  C48      1.0000 0.97210  0.67260  0.03090  Biso   1.000  C
  Mn7      1.0000 0.80938  0.37642  0.79714  Biso   1.000  Mn
  N19      1.0000 0.70550  0.38340  0.02640  Biso   1.000  N
  N20      1.0000 0.70310  0.43380  0.64940  Biso   1.000  N
  N21      1.0000 0.69960  0.30525  0.71120  Biso   1.000  N
  O13      1.0000 0.42610  0.17707  0.43100  Biso   1.000  O
  O14      1.0000 0.58740  0.13309  0.43310  Biso   1.000  O
  C49      1.0000 0.63230  0.38770  0.11080  Biso   1.000  C
  C50      1.0000 0.63070  0.45930  0.59420  Biso   1.000  C
  C51      1.0000 0.60570  0.31170  0.61010  Biso   1.000  C
  H25      1.0000 0.57860  0.34570  0.58630  Biso   1.000  H
  C52      1.0000 0.54910  0.26740  0.54120  Biso   1.000  C
  H26      1.0000 0.48260  0.27270  0.47680  Biso   1.000  H
  C53      1.0000 0.58430  0.22070  0.56250  Biso   1.000  C
  C54      1.0000 0.67880  0.21200  0.66730  Biso   1.000  C
  H27      1.0000 0.70590  0.17770  0.68660  Biso   1.000  H
  C55      1.0000 0.73180  0.25520  0.74240  Biso   1.000  C
  H28      1.0000 0.79320  0.24930  0.81870  Biso   1.000  H
  C56      1.0000 0.52790  0.17260  0.46910  Biso   1.000  C
  Mn8      1.0000 0.30938  0.87642  0.79714  Biso   1.000  Mn
  N22      1.0000 0.20550  0.88340  0.02640  Biso   1.000  N
  N23      1.0000 0.20310  0.93380  0.64940  Biso   1.000  N
  N24      1.0000 0.19960  0.80525  0.71120  Biso   1.000  N
  O15      1.0000 0.92610  0.67707  0.43100  Biso   1.000  O
  O16      1.0000 0.08740  0.63309  0.43310  Biso   1.000  O
  C57      1.0000 0.13230  0.88770  0.11080  Biso   1.000  C
  C58      1.0000 0.13070  0.95930  0.59420  Biso   1.000  C
  C59      1.0000 0.10570  0.81170  0.61010  Biso   1.000  C
  H29      1.0000 0.07860  0.84570  0.58630  Biso   1.000  H
  C60      1.0000 0.04910  0.76740  0.54120  Biso   1.000  C
  H30      1.0000 0.98260  0.77270  0.47680  Biso   1.000  H
  C61      1.0000 0.08430  0.72070  0.56250  Biso   1.000  C
  C62      1.0000 0.17880  0.71200  0.66730  Biso   1.000  C
  H31      1.0000 0.20590  0.67770  0.68660  Biso   1.000  H
  C63      1.0000 0.23180  0.75520  0.74240  Biso   1.000  C
  H32      1.0000 0.29320  0.74930  0.81870  Biso   1.000  H
  C64      1.0000 0.02790  0.67260  0.46910  Biso   1.000  C
  Au1      1.0000 0.50000  0.60729  0.75000  Biso   1.000  Au
  Au2      1.0000 0.00000  0.10729  0.75000  Biso   1.000  Au
  Au3      1.0000 0.50000  0.39271  0.25000  Biso   1.000  Au
  Au4      1.0000 0.00000  0.89271  0.25000  Biso   1.000  Au
  Au5      1.0000 0.50000  0.50000  0.00000  Biso   1.000  Au
  Au6      1.0000 0.00000  0.00000  0.00000  Biso   1.000  Au
  Au7      1.0000 0.50000  0.50000  0.50000  Biso   1.000  Au
  Au8      1.0000 0.00000  0.00000  0.50000  Biso   1.000  Au
