data_PAKXIK_clean
_audit_creation_date              2014-07-02
_audit_creation_method            'Materials Studio'
_symmetry_space_group_name_H-M    'P1'
_symmetry_Int_Tables_number       1
_symmetry_cell_setting            triclinic
loop_
_symmetry_equiv_pos_as_xyz
  x,y,z
_cell_length_a                    12.6784
_cell_length_b                    13.5433
_cell_length_c                    17.1322
_cell_angle_alpha                 77.8390
_cell_angle_beta                  76.4040
_cell_angle_gamma                 80.6140
loop_
_atom_site_label
_atom_site_type_symbol
_atom_site_fract_x
_atom_site_fract_y
_atom_site_fract_z
_atom_site_U_iso_or_equiv
_atom_site_adp_type
_atom_site_occupancy
Cd1    Cd    0.47832   0.52757   0.73899   0.01267  Uiso   1.00
Cd2    Cd    0.72066   0.24598   0.24118   0.01267  Uiso   1.00
Cd3    Cd    0.71925   0.30059   0.74905   0.01267  Uiso   1.00
Cd4    Cd    0.52168   0.47243   0.26101   0.01267  Uiso   1.00
Cd5    Cd    0.27934   0.75402   0.75882   0.01267  Uiso   1.00
Cd6    Cd    0.28075   0.69941   0.25095   0.01267  Uiso   1.00
H1     H     0.80080   0.67960   0.65780   0.01267  Uiso   1.00
H2     H     0.95440   0.74860   0.65780   0.01267  Uiso   1.00
H3     H     0.97620   0.56710   0.87230   0.01267  Uiso   1.00
H4     H     0.72150   0.54920   0.97150   0.01267  Uiso   1.00
H5     H     0.72550   0.25270   0.06960   0.01267  Uiso   1.00
H6     H     0.84610   0.21350   0.95320   0.01267  Uiso   1.00
H7     H     0.52580   0.70740   0.45020   0.01267  Uiso   1.00
H8     H     0.16550   0.85090   0.47290   0.01267  Uiso   1.00
H9     H     0.22180   0.74830   0.58430   0.01267  Uiso   1.00
H10    H     0.30500   0.02130   0.41380   0.01267  Uiso   1.00
H11    H     0.32000   0.11680   0.34410   0.01267  Uiso   1.00
H12    H     0.20310   0.09800   0.39590   0.01267  Uiso   1.00
H13    H     0.14430   0.08560   0.25450   0.01267  Uiso   1.00
H14    H     0.25760   0.12800   0.22380   0.01267  Uiso   1.00
H15    H     0.23990   0.02830   0.19830   0.01267  Uiso   1.00
H16    H     0.67540   0.77360   0.15320   0.01267  Uiso   1.00
H17    H     0.71710   0.93710   0.13640   0.01267  Uiso   1.00
H18    H     0.50000   0.97620   0.34140   0.01267  Uiso   1.00
H19    H     0.07340   0.32450   0.68760   0.01267  Uiso   1.00
H20    H     0.17460   0.33420   0.72220   0.01267  Uiso   1.00
H21    H     0.12630   0.23020   0.74180   0.01267  Uiso   1.00
H22    H     0.13440   0.29570   0.88740   0.01267  Uiso   1.00
H23    H     0.13220   0.40980   0.84360   0.01267  Uiso   1.00
H24    H     0.03360   0.37470   0.91300   0.01267  Uiso   1.00
H25    H     0.19920   0.32040   0.34220   0.01267  Uiso   1.00
H26    H     0.04560   0.25140   0.34220   0.01267  Uiso   1.00
H27    H     0.02380   0.43290   0.12770   0.01267  Uiso   1.00
H28    H     0.27850   0.45080   0.02850   0.01267  Uiso   1.00
H29    H     0.27450   0.74730   0.93040   0.01267  Uiso   1.00
H30    H     0.15390   0.78650   0.04680   0.01267  Uiso   1.00
H31    H     0.47420   0.29260   0.54980   0.01267  Uiso   1.00
H32    H     0.83450   0.14910   0.52710   0.01267  Uiso   1.00
H33    H     0.77820   0.25170   0.41570   0.01267  Uiso   1.00
H34    H     0.69500   0.97870   0.58620   0.01267  Uiso   1.00
H35    H     0.68000   0.88320   0.65590   0.01267  Uiso   1.00
H36    H     0.79690   0.90200   0.60410   0.01267  Uiso   1.00
H37    H     0.85570   0.91440   0.74550   0.01267  Uiso   1.00
H38    H     0.74240   0.87200   0.77620   0.01267  Uiso   1.00
H39    H     0.76010   0.97170   0.80170   0.01267  Uiso   1.00
H40    H     0.32460   0.22640   0.84680   0.01267  Uiso   1.00
H41    H     0.28290   0.06290   0.86360   0.01267  Uiso   1.00
H42    H     0.50000   0.02380   0.65860   0.01267  Uiso   1.00
H43    H     0.92660   0.67550   0.31240   0.01267  Uiso   1.00
H44    H     0.82540   0.66580   0.27780   0.01267  Uiso   1.00
H45    H     0.87370   0.76980   0.25820   0.01267  Uiso   1.00
H46    H     0.86560   0.70430   0.11260   0.01267  Uiso   1.00
H47    H     0.86780   0.59020   0.15640   0.01267  Uiso   1.00
H48    H     0.96640   0.62530   0.08700   0.01267  Uiso   1.00
C1     C     0.69480   0.53910   0.75960   0.01267  Uiso   1.00
C2     C     0.79770   0.57920   0.76230   0.01267  Uiso   1.00
C3     C     0.83700   0.65590   0.70070   0.01267  Uiso   1.00
C4     C     0.92820   0.69840   0.70090   0.01267  Uiso   1.00
C5     C     0.98120   0.66540   0.76640   0.01267  Uiso   1.00
C6     C     0.94130   0.58870   0.82860   0.01267  Uiso   1.00
C7     C     0.85190   0.54320   0.82810   0.01267  Uiso   1.00
C8     C     0.08270   0.70770   0.76770   0.01267  Uiso   1.00
C9     C     0.81680   0.45880   0.89670   0.01267  Uiso   1.00
C10    C     0.74640   0.48160   0.96750   0.01267  Uiso   1.00
C11    C     0.71210   0.40480   0.03320   0.01267  Uiso   1.00
C12    C     0.74890   0.30450   0.02690   0.01267  Uiso   1.00
C13    C     0.82070   0.28100   0.95700   0.01267  Uiso   1.00
C14    C     0.85500   0.35810   0.89260   0.01267  Uiso   1.00
C15    C     0.63490   0.43200   0.10830   0.01267  Uiso   1.00
C16    C     0.93030   0.32670   0.81730   0.01267  Uiso   1.00
C17    C     0.41690   0.64500   0.59910   0.01267  Uiso   1.00
C18    C     0.37970   0.71510   0.52770   0.01267  Uiso   1.00
C19    C     0.45380   0.73740   0.45460   0.01267  Uiso   1.00
C20    C     0.42340   0.80300   0.38810   0.01267  Uiso   1.00
C21    C     0.31240   0.84540   0.39520   0.01267  Uiso   1.00
C22    C     0.23830   0.82310   0.46860   0.01267  Uiso   1.00
C23    C     0.27140   0.76050   0.53480   0.01267  Uiso   1.00
C24    C     0.27300   0.90680   0.32260   0.01267  Uiso   1.00
C25    C     0.27290   0.06580   0.37180   0.01267  Uiso   1.00
C26    C     0.22200   0.06740   0.24130   0.01267  Uiso   1.00
C27    C     0.54450   0.66690   0.26770   0.01267  Uiso   1.00
C28    C     0.56130   0.77650   0.25750   0.01267  Uiso   1.00
C29    C     0.64000   0.81430   0.19130   0.01267  Uiso   1.00
C30    C     0.66600   0.91170   0.18180   0.01267  Uiso   1.00
C31    C     0.61660   0.97130   0.23920   0.01267  Uiso   1.00
C32    C     0.53560   0.93460   0.30400   0.01267  Uiso   1.00
C33    C     0.50670   0.83800   0.31420   0.01267  Uiso   1.00
C34    C     0.65500   0.07190   0.23520   0.01267  Uiso   1.00
C35    C     0.10880   0.30280   0.73320   0.01267  Uiso   1.00
C36    C     0.08860   0.35520   0.86810   0.01267  Uiso   1.00
C37    C     0.30520   0.46090   0.24040   0.01267  Uiso   1.00
C38    C     0.20230   0.42080   0.23770   0.01267  Uiso   1.00
C39    C     0.16300   0.34410   0.29930   0.01267  Uiso   1.00
C40    C     0.07180   0.30160   0.29910   0.01267  Uiso   1.00
C41    C     0.01880   0.33460   0.23360   0.01267  Uiso   1.00
C42    C     0.05870   0.41130   0.17140   0.01267  Uiso   1.00
C43    C     0.14810   0.45680   0.17190   0.01267  Uiso   1.00
C44    C     0.91730   0.29230   0.23230   0.01267  Uiso   1.00
C45    C     0.18320   0.54120   0.10330   0.01267  Uiso   1.00
C46    C     0.25360   0.51840   0.03250   0.01267  Uiso   1.00
C47    C     0.28790   0.59520   0.96680   0.01267  Uiso   1.00
C48    C     0.25110   0.69550   0.97310   0.01267  Uiso   1.00
C49    C     0.17930   0.71900   0.04300   0.01267  Uiso   1.00
C50    C     0.14500   0.64190   0.10740   0.01267  Uiso   1.00
C51    C     0.36510   0.56800   0.89170   0.01267  Uiso   1.00
C52    C     0.06970   0.67330   0.18270   0.01267  Uiso   1.00
C53    C     0.58310   0.35500   0.40090   0.01267  Uiso   1.00
C54    C     0.62030   0.28490   0.47230   0.01267  Uiso   1.00
C55    C     0.54620   0.26260   0.54540   0.01267  Uiso   1.00
C56    C     0.57660   0.19700   0.61190   0.01267  Uiso   1.00
C57    C     0.68760   0.15460   0.60480   0.01267  Uiso   1.00
C58    C     0.76170   0.17690   0.53140   0.01267  Uiso   1.00
C59    C     0.72860   0.23950   0.46520   0.01267  Uiso   1.00
C60    C     0.72700   0.09320   0.67740   0.01267  Uiso   1.00
C61    C     0.72710   0.93420   0.62820   0.01267  Uiso   1.00
C62    C     0.77800   0.93260   0.75870   0.01267  Uiso   1.00
C63    C     0.45550   0.33310   0.73230   0.01267  Uiso   1.00
C64    C     0.43870   0.22350   0.74250   0.01267  Uiso   1.00
C65    C     0.36000   0.18570   0.80870   0.01267  Uiso   1.00
C66    C     0.33400   0.08830   0.81820   0.01267  Uiso   1.00
C67    C     0.38340   0.02870   0.76080   0.01267  Uiso   1.00
C68    C     0.46440   0.06540   0.69600   0.01267  Uiso   1.00
C69    C     0.49330   0.16200   0.68580   0.01267  Uiso   1.00
C70    C     0.34500   0.92810   0.76480   0.01267  Uiso   1.00
C71    C     0.89120   0.69720   0.26680   0.01267  Uiso   1.00
C72    C     0.91140   0.64480   0.13190   0.01267  Uiso   1.00
N1     N     0.03530   0.33270   0.80660   0.01267  Uiso   1.00
N2     N     0.25860   0.00690   0.31340   0.01267  Uiso   1.00
N3     N     0.96470   0.66730   0.19340   0.01267  Uiso   1.00
N4     N     0.74140   0.99310   0.68660   0.01267  Uiso   1.00
O1     O     0.89320   0.29400   0.76800   0.01267  Uiso   1.00
O2     O     0.67530   0.45190   0.79650   0.01267  Uiso   1.00
O3     O     0.63200   0.59800   0.71900   0.01267  Uiso   1.00
O4     O     0.61510   0.11920   0.29500   0.01267  Uiso   1.00
O5     O     0.72790   0.10440   0.17720   0.01267  Uiso   1.00
O6     O     0.50240   0.58610   0.58890   0.01267  Uiso   1.00
O7     O     0.35760   0.64750   0.67020   0.01267  Uiso   1.00
O8     O     0.59550   0.52000   0.11170   0.01267  Uiso   1.00
O9     O     0.61250   0.36010   0.16980   0.01267  Uiso   1.00
O10    O     0.11460   0.78110   0.71370   0.01267  Uiso   1.00
O11    O     0.13380   0.66570   0.82250   0.01267  Uiso   1.00
O12    O     0.44780   0.64250   0.28640   0.01267  Uiso   1.00
O13    O     0.62490   0.60310   0.25700   0.01267  Uiso   1.00
O14    O     0.25370   0.86340   0.27100   0.01267  Uiso   1.00
O15    O     0.10680   0.70600   0.23200   0.01267  Uiso   1.00
O16    O     0.32470   0.54810   0.20350   0.01267  Uiso   1.00
O17    O     0.36800   0.40200   0.28100   0.01267  Uiso   1.00
O18    O     0.38490   0.88080   0.70500   0.01267  Uiso   1.00
O19    O     0.27210   0.89560   0.82280   0.01267  Uiso   1.00
O20    O     0.49760   0.41390   0.41110   0.01267  Uiso   1.00
O21    O     0.64240   0.35250   0.32980   0.01267  Uiso   1.00
O22    O     0.40450   0.48000   0.88830   0.01267  Uiso   1.00
O23    O     0.38750   0.63990   0.83020   0.01267  Uiso   1.00
O24    O     0.88540   0.21890   0.28630   0.01267  Uiso   1.00
O25    O     0.86620   0.33430   0.17750   0.01267  Uiso   1.00
O26    O     0.55220   0.35750   0.71360   0.01267  Uiso   1.00
O27    O     0.37510   0.39690   0.74300   0.01267  Uiso   1.00
O28    O     0.74630   0.13660   0.72900   0.01267  Uiso   1.00
