data_PALTON_clean
_audit_creation_date              2014-07-02
_audit_creation_method            'Materials Studio'
_symmetry_space_group_name_H-M    'P1'
_symmetry_Int_Tables_number       1
_symmetry_cell_setting            triclinic
loop_
_symmetry_equiv_pos_as_xyz
  x,y,z
_cell_length_a                    12.8454
_cell_length_b                    24.9959
_cell_length_c                    24.9959
_cell_angle_alpha                 62.8717
_cell_angle_beta                  80.1366
_cell_angle_gamma                 99.8634
loop_
_atom_site_label
_atom_site_type_symbol
_atom_site_fract_x
_atom_site_fract_y
_atom_site_fract_z
_atom_site_U_iso_or_equiv
_atom_site_adp_type
_atom_site_occupancy
Cu1    Cu    0.54680   0.45688  -0.00000   0.01267  Uiso   1.00
Cu2    Cu    0.54680   1.00000   0.54312   0.01267  Uiso   1.00
Cu3    Cu    0.08992   0.54312   0.45688   0.01267  Uiso   1.00
Cu4    Cu    0.45320   0.54311  -0.00000   0.01267  Uiso   1.00
Cu5    Cu    0.91009   0.45689   0.54311   0.01267  Uiso   1.00
Cu6    Cu    0.45320   0.00000   0.45688   0.01267  Uiso   1.00
H1     H     0.42370   0.42900   0.86460   0.01267  Uiso   1.00
H2     H     0.28590   0.56380   0.86260   0.01267  Uiso   1.00
H3     H     0.64710   0.33020   0.78170   0.01267  Uiso   1.00
H4     H     0.44890   0.30540   0.82710   0.01267  Uiso   1.00
H5     H     0.81550   0.45220   0.70360   0.01267  Uiso   1.00
H6     H     0.76340   0.50720   0.69980   0.01267  Uiso   1.00
H7     H     0.75540   0.48310   0.65080   0.01267  Uiso   1.00
H8     H     0.30130   0.36630   0.81420   0.01267  Uiso   1.00
H9     H     0.32980   0.41850   0.74190   0.01267  Uiso   1.00
H10    H     0.28830   0.86460   0.70640   0.01267  Uiso   1.00
H11    H     0.14850   0.86260   0.57360   0.01267  Uiso   1.00
H12    H     0.42880   0.78170   0.88810   0.01267  Uiso   1.00
H13    H     0.27600   0.82710   0.86750   0.01267  Uiso   1.00
H14    H     0.51910   0.70360   0.84420   0.01267  Uiso   1.00
H15    H     0.46320   0.69980   0.79300   0.01267  Uiso   1.00
H16    H     0.40620   0.65080   0.86610   0.01267  Uiso   1.00
H17    H     0.11550   0.81420   0.81950   0.01267  Uiso   1.00
H18    H     0.07170   0.74190   0.83960   0.01267  Uiso   1.00
H19    H     0.99470   0.70640   0.42900   0.01267  Uiso   1.00
H20    H     0.72210   0.57360   0.56380   0.01267  Uiso   1.00
H21    H     0.31690   0.88810   0.33020   0.01267  Uiso   1.00
H22    H     0.14350   0.86750   0.30540   0.01267  Uiso   1.00
H23    H     0.36330   0.84420   0.45220   0.01267  Uiso   1.00
H24    H     0.25620   0.79300   0.50720   0.01267  Uiso   1.00
H25    H     0.27230   0.86610   0.48310   0.01267  Uiso   1.00
H26    H     0.93500   0.81950   0.36630   0.01267  Uiso   1.00
H27    H     0.91130   0.83960   0.41850   0.01267  Uiso   1.00
H28    H     0.71170   0.70640   0.86460   0.01267  Uiso   1.00
H29    H     0.85150   0.57360   0.86260   0.01267  Uiso   1.00
H30    H     0.57120   0.88810   0.78170   0.01267  Uiso   1.00
H31    H     0.72400   0.86750   0.82710   0.01267  Uiso   1.00
H32    H     0.48090   0.84420   0.70360   0.01267  Uiso   1.00
H33    H     0.53680   0.79300   0.69980   0.01267  Uiso   1.00
H34    H     0.59380   0.86610   0.65080   0.01267  Uiso   1.00
H35    H     0.88450   0.81950   0.81420   0.01267  Uiso   1.00
H36    H     0.92830   0.83960   0.74190   0.01267  Uiso   1.00
H37    H     0.00530   0.42900   0.70640   0.01267  Uiso   1.00
H38    H     0.27790   0.56380   0.57360   0.01267  Uiso   1.00
H39    H     0.68310   0.33020   0.88810   0.01267  Uiso   1.00
H40    H     0.85650   0.30540   0.86750   0.01267  Uiso   1.00
H41    H     0.63670   0.45220   0.84420   0.01267  Uiso   1.00
H42    H     0.74380   0.50720   0.79300   0.01267  Uiso   1.00
H43    H     0.72770   0.48310   0.86610   0.01267  Uiso   1.00
H44    H     0.06500   0.36630   0.81950   0.01267  Uiso   1.00
H45    H     0.08870   0.41850   0.83960   0.01267  Uiso   1.00
H46    H     0.57630   0.86460   0.42900   0.01267  Uiso   1.00
H47    H     0.71410   0.86260   0.56380   0.01267  Uiso   1.00
H48    H     0.35290   0.78170   0.33020   0.01267  Uiso   1.00
H49    H     0.55110   0.82710   0.30540   0.01267  Uiso   1.00
H50    H     0.18450   0.70360   0.45220   0.01267  Uiso   1.00
H51    H     0.23660   0.69980   0.50720   0.01267  Uiso   1.00
H52    H     0.24460   0.65080   0.48310   0.01267  Uiso   1.00
H53    H     0.69870   0.81420   0.36630   0.01267  Uiso   1.00
H54    H     0.67020   0.74190   0.41850   0.01267  Uiso   1.00
H55    H     0.57630   0.57100   0.13540   0.01267  Uiso   1.00
H56    H     0.71410   0.43620   0.13740   0.01267  Uiso   1.00
H57    H     0.35290   0.66980   0.21830   0.01267  Uiso   1.00
H58    H     0.55110   0.69460   0.17290   0.01267  Uiso   1.00
H59    H     0.18450   0.54780   0.29640   0.01267  Uiso   1.00
H60    H     0.23660   0.49280   0.30020   0.01267  Uiso   1.00
H61    H     0.24460   0.51690   0.34920   0.01267  Uiso   1.00
H62    H     0.69870   0.63370   0.18580   0.01267  Uiso   1.00
H63    H     0.67020   0.58150   0.25810   0.01267  Uiso   1.00
H64    H     0.71170   0.13540   0.29360   0.01267  Uiso   1.00
H65    H     0.85150   0.13740   0.42640   0.01267  Uiso   1.00
H66    H     0.57120   0.21830   0.11190   0.01267  Uiso   1.00
H67    H     0.72400   0.17290   0.13250   0.01267  Uiso   1.00
H68    H     0.48090   0.29640   0.15580   0.01267  Uiso   1.00
H69    H     0.53680   0.30020   0.20700   0.01267  Uiso   1.00
H70    H     0.59380   0.34920   0.13390   0.01267  Uiso   1.00
H71    H     0.88450   0.18580   0.18050   0.01267  Uiso   1.00
H72    H     0.92830   0.25810   0.16040   0.01267  Uiso   1.00
H73    H     0.00530   0.29360   0.57100   0.01267  Uiso   1.00
H74    H     0.27790   0.42640   0.43620   0.01267  Uiso   1.00
H75    H     0.68310   0.11190   0.66980   0.01267  Uiso   1.00
H76    H     0.85650   0.13250   0.69460   0.01267  Uiso   1.00
H77    H     0.63670   0.15580   0.54780   0.01267  Uiso   1.00
H78    H     0.74380   0.20700   0.49280   0.01267  Uiso   1.00
H79    H     0.72770   0.13390   0.51690   0.01267  Uiso   1.00
H80    H     0.06500   0.18050   0.63370   0.01267  Uiso   1.00
H81    H     0.08870   0.16040   0.58150   0.01267  Uiso   1.00
H82    H     0.28830   0.29360   0.13540   0.01267  Uiso   1.00
H83    H     0.14850   0.42640   0.13740   0.01267  Uiso   1.00
H84    H     0.42880   0.11190   0.21830   0.01267  Uiso   1.00
H85    H     0.27600   0.13250   0.17290   0.01267  Uiso   1.00
H86    H     0.51910   0.15580   0.29640   0.01267  Uiso   1.00
H87    H     0.46320   0.20700   0.30020   0.01267  Uiso   1.00
H88    H     0.40620   0.13390   0.34920   0.01267  Uiso   1.00
H89    H     0.11550   0.18050   0.18580   0.01267  Uiso   1.00
H90    H     0.07170   0.16040   0.25810   0.01267  Uiso   1.00
H91    H     0.99470   0.57100   0.29360   0.01267  Uiso   1.00
H92    H     0.72210   0.43620   0.42640   0.01267  Uiso   1.00
H93    H     0.31690   0.66980   0.11190   0.01267  Uiso   1.00
H94    H     0.14350   0.69460   0.13250   0.01267  Uiso   1.00
H95    H     0.36330   0.54780   0.15580   0.01267  Uiso   1.00
H96    H     0.25620   0.49280   0.20700   0.01267  Uiso   1.00
H97    H     0.27230   0.51690   0.13390   0.01267  Uiso   1.00
H98    H     0.93500   0.63370   0.18050   0.01267  Uiso   1.00
H99    H     0.91130   0.58150   0.16040   0.01267  Uiso   1.00
H100   H     0.42370   0.13540   0.57100   0.01267  Uiso   1.00
H101   H     0.28590   0.13740   0.43620   0.01267  Uiso   1.00
H102   H     0.64710   0.21830   0.66980   0.01267  Uiso   1.00
H103   H     0.44890   0.17290   0.69460   0.01267  Uiso   1.00
H104   H     0.81550   0.29640   0.54780   0.01267  Uiso   1.00
H105   H     0.76340   0.30020   0.49280   0.01267  Uiso   1.00
H106   H     0.75540   0.34920   0.51690   0.01267  Uiso   1.00
H107   H     0.30130   0.18580   0.63370   0.01267  Uiso   1.00
H108   H     0.32980   0.25810   0.58150   0.01267  Uiso   1.00
C1     C     0.41658   0.49911   0.91797   0.01267  Uiso   1.00
C2     C     0.36601   0.49705   0.86812   0.01267  Uiso   1.00
C3     C     0.38226   0.45709   0.84661   0.01267  Uiso   1.00
C4     C     0.34025   0.45595   0.79930   0.01267  Uiso   1.00
C5     C     0.27280   0.49630   0.77620   0.01267  Uiso   1.00
C6     C     0.25090   0.54010   0.79810   0.01267  Uiso   1.00
C7     C     0.29860   0.53786   0.84536   0.01267  Uiso   1.00
C8     C     0.60600   0.35980   0.77380   0.01267  Uiso   1.00
C9     C     0.49660   0.34590   0.79680   0.01267  Uiso   1.00
C10    C     0.75470   0.47040   0.69420   0.01267  Uiso   1.00
C11    C     0.35280   0.40740   0.78060   0.01267  Uiso   1.00
C12    C     0.55960   0.44290   0.73300   0.01267  Uiso   1.00
C13    C     0.33455   0.91797   0.58292   0.01267  Uiso   1.00
C14    C     0.23413   0.86812   0.63483   0.01267  Uiso   1.00
C15    C     0.22887   0.84661   0.69630   0.01267  Uiso   1.00
C16    C     0.13955   0.79930   0.74475   0.01267  Uiso   1.00
C17    C     0.04900   0.77620   0.72750   0.01267  Uiso   1.00
C18    C     0.04900   0.79810   0.66180   0.01267  Uiso   1.00
C19    C     0.14396   0.84536   0.61678   0.01267  Uiso   1.00
C20    C     0.37980   0.77380   0.86640   0.01267  Uiso   1.00
C21    C     0.29340   0.79680   0.85730   0.01267  Uiso   1.00
C22    C     0.44890   0.69420   0.83540   0.01267  Uiso   1.00
C23    C     0.13340   0.78060   0.81200   0.01267  Uiso   1.00
C24    C     0.29260   0.73300   0.82410   0.01267  Uiso   1.00
C25    C     0.91747   0.58292   0.49911   0.01267  Uiso   1.00
C26    C     0.86896   0.63483   0.49705   0.01267  Uiso   1.00
C27    C     0.92517   0.69630   0.45709   0.01267  Uiso   1.00
C28    C     0.88430   0.74475   0.45595   0.01267  Uiso   1.00
C29    C     0.77650   0.72750   0.49630   0.01267  Uiso   1.00
C30    C     0.71080   0.66180   0.54010   0.01267  Uiso   1.00
C31    C     0.76074   0.61678   0.53786   0.01267  Uiso   1.00
C32    C     0.24620   0.86640   0.35980   0.01267  Uiso   1.00
C33    C     0.15070   0.85730   0.34590   0.01267  Uiso   1.00
C34    C     0.28430   0.83540   0.47040   0.01267  Uiso   1.00
C35    C     0.94540   0.81200   0.40740   0.01267  Uiso   1.00
C36    C     0.11670   0.82410   0.44290   0.01267  Uiso   1.00
C37    C     0.66545   0.58292   0.91797   0.01267  Uiso   1.00
C38    C     0.76587   0.63483   0.86812   0.01267  Uiso   1.00
C39    C     0.77113   0.69630   0.84661   0.01267  Uiso   1.00
C40    C     0.86045   0.74475   0.79930   0.01267  Uiso   1.00
C41    C     0.95100   0.72750   0.77620   0.01267  Uiso   1.00
C42    C     0.95100   0.66180   0.79810   0.01267  Uiso   1.00
C43    C     0.85604   0.61678   0.84536   0.01267  Uiso   1.00
C44    C     0.62020   0.86640   0.77380   0.01267  Uiso   1.00
C45    C     0.70660   0.85730   0.79680   0.01267  Uiso   1.00
C46    C     0.55110   0.83540   0.69420   0.01267  Uiso   1.00
C47    C     0.86660   0.81200   0.78060   0.01267  Uiso   1.00
C48    C     0.70740   0.82410   0.73300   0.01267  Uiso   1.00
C49    C     0.08253   0.49911   0.58292   0.01267  Uiso   1.00
C50    C     0.13104   0.49705   0.63483   0.01267  Uiso   1.00
C51    C     0.07483   0.45709   0.69630   0.01267  Uiso   1.00
C52    C     0.11570   0.45595   0.74475   0.01267  Uiso   1.00
C53    C     0.22350   0.49630   0.72750   0.01267  Uiso   1.00
C54    C     0.28920   0.54010   0.66180   0.01267  Uiso   1.00
C55    C     0.23926   0.53786   0.61678   0.01267  Uiso   1.00
C56    C     0.75380   0.35980   0.86640   0.01267  Uiso   1.00
C57    C     0.84930   0.34590   0.85730   0.01267  Uiso   1.00
C58    C     0.71570   0.47040   0.83540   0.01267  Uiso   1.00
C59    C     0.05460   0.40740   0.81200   0.01267  Uiso   1.00
C60    C     0.88330   0.44290   0.82410   0.01267  Uiso   1.00
C61    C     0.58342   0.91797   0.49911   0.01267  Uiso   1.00
C62    C     0.63399   0.86812   0.49705   0.01267  Uiso   1.00
C63    C     0.61774   0.84661   0.45709   0.01267  Uiso   1.00
C64    C     0.65975   0.79930   0.45595   0.01267  Uiso   1.00
C65    C     0.72720   0.77620   0.49630   0.01267  Uiso   1.00
C66    C     0.74910   0.79810   0.54010   0.01267  Uiso   1.00
C67    C     0.70140   0.84536   0.53786   0.01267  Uiso   1.00
C68    C     0.39400   0.77380   0.35980   0.01267  Uiso   1.00
C69    C     0.50340   0.79680   0.34590   0.01267  Uiso   1.00
C70    C     0.24530   0.69420   0.47040   0.01267  Uiso   1.00
C71    C     0.64720   0.78060   0.40740   0.01267  Uiso   1.00
C72    C     0.44040   0.73300   0.44290   0.01267  Uiso   1.00
C73    C     0.58342   0.50089   0.08203   0.01267  Uiso   1.00
C74    C     0.63399   0.50295   0.13188   0.01267  Uiso   1.00
C75    C     0.61774   0.54291   0.15339   0.01267  Uiso   1.00
C76    C     0.65975   0.54405   0.20070   0.01267  Uiso   1.00
C77    C     0.72720   0.50370   0.22380   0.01267  Uiso   1.00
C78    C     0.74910   0.45990   0.20190   0.01267  Uiso   1.00
C79    C     0.70140   0.46214   0.15464   0.01267  Uiso   1.00
C80    C     0.39400   0.64020   0.22620   0.01267  Uiso   1.00
C81    C     0.50340   0.65410   0.20320   0.01267  Uiso   1.00
C82    C     0.24530   0.52960   0.30580   0.01267  Uiso   1.00
C83    C     0.64720   0.59260   0.21940   0.01267  Uiso   1.00
C84    C     0.44040   0.55710   0.26700   0.01267  Uiso   1.00
C85    C     0.66545   0.08203   0.41708   0.01267  Uiso   1.00
C86    C     0.76587   0.13188   0.36517   0.01267  Uiso   1.00
C87    C     0.77113   0.15339   0.30370   0.01267  Uiso   1.00
C88    C     0.86045   0.20070   0.25525   0.01267  Uiso   1.00
C89    C     0.95100   0.22380   0.27250   0.01267  Uiso   1.00
C90    C     0.95100   0.20190   0.33820   0.01267  Uiso   1.00
C91    C     0.85604   0.15464   0.38322   0.01267  Uiso   1.00
C92    C     0.62020   0.22620   0.13360   0.01267  Uiso   1.00
C93    C     0.70660   0.20320   0.14270   0.01267  Uiso   1.00
C94    C     0.55110   0.30580   0.16460   0.01267  Uiso   1.00
C95    C     0.86660   0.21940   0.18800   0.01267  Uiso   1.00
C96    C     0.70740   0.26700   0.17590   0.01267  Uiso   1.00
C97    C     0.08253   0.41708   0.50089   0.01267  Uiso   1.00
C98    C     0.13104   0.36517   0.50295   0.01267  Uiso   1.00
C99    C     0.07483   0.30370   0.54291   0.01267  Uiso   1.00
C100   C     0.11570   0.25525   0.54405   0.01267  Uiso   1.00
C101   C     0.22350   0.27250   0.50370   0.01267  Uiso   1.00
C102   C     0.28920   0.33820   0.45990   0.01267  Uiso   1.00
C103   C     0.23926   0.38322   0.46214   0.01267  Uiso   1.00
C104   C     0.75380   0.13360   0.64020   0.01267  Uiso   1.00
C105   C     0.84930   0.14270   0.65410   0.01267  Uiso   1.00
C106   C     0.71570   0.16460   0.52960   0.01267  Uiso   1.00
C107   C     0.05460   0.18800   0.59260   0.01267  Uiso   1.00
C108   C     0.88330   0.17590   0.55710   0.01267  Uiso   1.00
C109   C     0.33455   0.41708   0.08203   0.01267  Uiso   1.00
C110   C     0.23413   0.36517   0.13188   0.01267  Uiso   1.00
C111   C     0.22887   0.30370   0.15339   0.01267  Uiso   1.00
C112   C     0.13955   0.25525   0.20070   0.01267  Uiso   1.00
C113   C     0.04900   0.27250   0.22380   0.01267  Uiso   1.00
C114   C     0.04900   0.33820   0.20190   0.01267  Uiso   1.00
C115   C     0.14396   0.38322   0.15464   0.01267  Uiso   1.00
C116   C     0.37980   0.13360   0.22620   0.01267  Uiso   1.00
C117   C     0.29340   0.14270   0.20320   0.01267  Uiso   1.00
C118   C     0.44890   0.16460   0.30580   0.01267  Uiso   1.00
C119   C     0.13340   0.18800   0.21940   0.01267  Uiso   1.00
C120   C     0.29260   0.17590   0.26700   0.01267  Uiso   1.00
C121   C     0.91747   0.50089   0.41708   0.01267  Uiso   1.00
C122   C     0.86896   0.50295   0.36517   0.01267  Uiso   1.00
C123   C     0.92517   0.54291   0.30370   0.01267  Uiso   1.00
C124   C     0.88430   0.54405   0.25525   0.01267  Uiso   1.00
C125   C     0.77650   0.50370   0.27250   0.01267  Uiso   1.00
C126   C     0.71080   0.45990   0.33820   0.01267  Uiso   1.00
C127   C     0.76074   0.46214   0.38322   0.01267  Uiso   1.00
C128   C     0.24620   0.64020   0.13360   0.01267  Uiso   1.00
C129   C     0.15070   0.65410   0.14270   0.01267  Uiso   1.00
C130   C     0.28430   0.52960   0.16460   0.01267  Uiso   1.00
C131   C     0.94540   0.59260   0.18800   0.01267  Uiso   1.00
C132   C     0.11670   0.55710   0.17590   0.01267  Uiso   1.00
C133   C     0.41658   0.08203   0.50089   0.01267  Uiso   1.00
C134   C     0.36601   0.13188   0.50295   0.01267  Uiso   1.00
C135   C     0.38226   0.15339   0.54291   0.01267  Uiso   1.00
C136   C     0.34025   0.20070   0.54405   0.01267  Uiso   1.00
C137   C     0.27280   0.22380   0.50370   0.01267  Uiso   1.00
C138   C     0.25090   0.20190   0.45990   0.01267  Uiso   1.00
C139   C     0.29860   0.15464   0.46214   0.01267  Uiso   1.00
C140   C     0.60600   0.22620   0.64020   0.01267  Uiso   1.00
C141   C     0.49660   0.20320   0.65410   0.01267  Uiso   1.00
C142   C     0.75470   0.30580   0.52960   0.01267  Uiso   1.00
C143   C     0.35280   0.21940   0.59260   0.01267  Uiso   1.00
C144   C     0.55960   0.26700   0.55710   0.01267  Uiso   1.00
N1     N     0.46440   0.39950   0.76970   0.01267  Uiso   1.00
N2     N     0.64940   0.42370   0.73690   0.01267  Uiso   1.00
N3     N     0.23410   0.76970   0.83080   0.01267  Uiso   1.00
N4     N     0.38630   0.73690   0.83940   0.01267  Uiso   1.00
N5     N     0.06490   0.83080   0.39950   0.01267  Uiso   1.00
N6     N     0.22570   0.83940   0.42370   0.01267  Uiso   1.00
N7     N     0.76590   0.83080   0.76970   0.01267  Uiso   1.00
N8     N     0.61370   0.83940   0.73690   0.01267  Uiso   1.00
N9     N     0.93510   0.39950   0.83080   0.01267  Uiso   1.00
N10    N     0.77430   0.42370   0.83940   0.01267  Uiso   1.00
N11    N     0.53560   0.76970   0.39950   0.01267  Uiso   1.00
N12    N     0.35060   0.73690   0.42370   0.01267  Uiso   1.00
N13    N     0.53560   0.60050   0.23030   0.01267  Uiso   1.00
N14    N     0.35060   0.57630   0.26310   0.01267  Uiso   1.00
N15    N     0.76590   0.23030   0.16920   0.01267  Uiso   1.00
N16    N     0.61370   0.26310   0.16060   0.01267  Uiso   1.00
N17    N     0.93510   0.16920   0.60050   0.01267  Uiso   1.00
N18    N     0.77430   0.16060   0.57630   0.01267  Uiso   1.00
N19    N     0.23410   0.16920   0.23030   0.01267  Uiso   1.00
N20    N     0.38630   0.16060   0.26310   0.01267  Uiso   1.00
N21    N     0.06490   0.60050   0.16920   0.01267  Uiso   1.00
N22    N     0.22570   0.57630   0.16060   0.01267  Uiso   1.00
N23    N     0.46440   0.23030   0.60050   0.01267  Uiso   1.00
N24    N     0.64940   0.26310   0.57630   0.01267  Uiso   1.00
O1     O     0.47535   0.46145   0.93650   0.01267  Uiso   1.00
O2     O     0.39430   0.53606   0.93626   0.01267  Uiso   1.00
O3     O     0.41185   0.93650   0.60205   0.01267  Uiso   1.00
O4     O     0.33056   0.93626   0.52768   0.01267  Uiso   1.00
O5     O     0.01390   0.60205   0.46145   0.01267  Uiso   1.00
O6     O     0.85824   0.52768   0.53606   0.01267  Uiso   1.00
O7     O     0.58815   0.60205   0.93650   0.01267  Uiso   1.00
O8     O     0.66944   0.52768   0.93626   0.01267  Uiso   1.00
O9     O     0.98610   0.46145   0.60205   0.01267  Uiso   1.00
O10    O     0.14176   0.53606   0.52768   0.01267  Uiso   1.00
O11    O     0.52465   0.93650   0.46145   0.01267  Uiso   1.00
O12    O     0.60570   0.93626   0.53606   0.01267  Uiso   1.00
O13    O     0.52465   0.53855   0.06350   0.01267  Uiso   1.00
O14    O     0.60570   0.46394   0.06374   0.01267  Uiso   1.00
O15    O     0.58815   0.06350   0.39795   0.01267  Uiso   1.00
O16    O     0.66944   0.06374   0.47232   0.01267  Uiso   1.00
O17    O     0.98610   0.39795   0.53855   0.01267  Uiso   1.00
O18    O     0.14176   0.47232   0.46394   0.01267  Uiso   1.00
O19    O     0.41185   0.39795   0.06350   0.01267  Uiso   1.00
O20    O     0.33056   0.47232   0.06374   0.01267  Uiso   1.00
O21    O     0.01390   0.53855   0.39795   0.01267  Uiso   1.00
O22    O     0.85824   0.46394   0.47232   0.01267  Uiso   1.00
O23    O     0.47535   0.06350   0.53855   0.01267  Uiso   1.00
O24    O     0.39430   0.06374   0.46394   0.01267  Uiso   1.00
