data_PAMGIV_clean
_audit_creation_date              2014-07-02
_audit_creation_method            'Materials Studio'
_symmetry_space_group_name_H-M    'P1'
_symmetry_Int_Tables_number       1
_symmetry_cell_setting            triclinic
loop_
_symmetry_equiv_pos_as_xyz
  x,y,z
_cell_length_a                    8.4375
_cell_length_b                    9.7423
_cell_length_c                    19.5120
_cell_angle_alpha                 90.0000
_cell_angle_beta                  90.0000
_cell_angle_gamma                 101.8240
loop_
_atom_site_label
_atom_site_type_symbol
_atom_site_fract_x
_atom_site_fract_y
_atom_site_fract_z
_atom_site_U_iso_or_equiv
_atom_site_adp_type
_atom_site_occupancy
Mn1    Mn    0.27853   0.15882   0.29386   0.01267  Uiso   1.00
Mn2    Mn    0.64043   0.04638   0.24178   0.01267  Uiso   1.00
Mn3    Mn    0.72147   0.84118   0.79386   0.01267  Uiso   1.00
Mn4    Mn    0.35957   0.95362   0.74178   0.01267  Uiso   1.00
H1     H     0.13660   0.20620   0.33000   0.01267  Uiso   1.00
H2     H     0.00380   0.40700   0.36680   0.01267  Uiso   1.00
H3     H     0.99230   0.26780   0.40680   0.01267  Uiso   1.00
H4     H     0.23070   0.49140   0.40600   0.01267  Uiso   1.00
H5     H     0.25630   0.34570   0.43250   0.01267  Uiso   1.00
H6     H     0.12650   0.41750   0.46720   0.01267  Uiso   1.00
H7     H     0.86340   0.79380   0.83000   0.01267  Uiso   1.00
H8     H     0.99620   0.59300   0.86680   0.01267  Uiso   1.00
H9     H     0.00770   0.73220   0.90680   0.01267  Uiso   1.00
H10    H     0.76930   0.50860   0.90600   0.01267  Uiso   1.00
H11    H     0.74370   0.65430   0.93250   0.01267  Uiso   1.00
H12    H     0.87350   0.58250   0.96720   0.01267  Uiso   1.00
C1     C     0.47270   0.18340   0.04720   0.01267  Uiso   1.00
C2     C     0.52030   0.14910   0.98350   0.01267  Uiso   1.00
C3     C     0.47570   0.01450   0.95870   0.01267  Uiso   1.00
C4     C     0.37960   0.91820   0.99940   0.01267  Uiso   1.00
C5     C     0.33020   0.95290   0.06300   0.01267  Uiso   1.00
C6     C     0.37720   0.08730   0.08860   0.01267  Uiso   1.00
C7     C     0.32890   0.12040   0.16020   0.01267  Uiso   1.00
C8     C     0.52780   0.97670   0.88820   0.01267  Uiso   1.00
C9     C     0.86900   0.70750   0.23070   0.01267  Uiso   1.00
C10    C     0.79070   0.56820   0.22970   0.01267  Uiso   1.00
C11    C     0.70630   0.50670   0.28510   0.01267  Uiso   1.00
C12    C     0.70850   0.58940   0.34270   0.01267  Uiso   1.00
C13    C     0.78860   0.72690   0.34400   0.01267  Uiso   1.00
C14    C     0.87040   0.78840   0.28750   0.01267  Uiso   1.00
C15    C     0.95800   0.94210   0.28880   0.01267  Uiso   1.00
C16    C     0.61350   0.35700   0.28250   0.01267  Uiso   1.00
C17    C     0.06540   0.33700   0.38010   0.01267  Uiso   1.00
C18    C     0.17800   0.40300   0.42460   0.01267  Uiso   1.00
C19    C     0.52730   0.81660   0.54720   0.01267  Uiso   1.00
C20    C     0.47970   0.85090   0.48350   0.01267  Uiso   1.00
C21    C     0.52430   0.98550   0.45870   0.01267  Uiso   1.00
C22    C     0.62040   0.08180   0.49940   0.01267  Uiso   1.00
C23    C     0.66980   0.04710   0.56300   0.01267  Uiso   1.00
C24    C     0.62280   0.91270   0.58860   0.01267  Uiso   1.00
C25    C     0.67110   0.87960   0.66020   0.01267  Uiso   1.00
C26    C     0.47220   0.02330   0.38820   0.01267  Uiso   1.00
C27    C     0.13100   0.29250   0.73070   0.01267  Uiso   1.00
C28    C     0.20930   0.43180   0.72970   0.01267  Uiso   1.00
C29    C     0.29370   0.49330   0.78510   0.01267  Uiso   1.00
C30    C     0.29150   0.41060   0.84270   0.01267  Uiso   1.00
C31    C     0.21140   0.27310   0.84400   0.01267  Uiso   1.00
C32    C     0.12960   0.21160   0.78750   0.01267  Uiso   1.00
C33    C     0.04200   0.05790   0.78880   0.01267  Uiso   1.00
C34    C     0.38650   0.64300   0.78250   0.01267  Uiso   1.00
C35    C     0.93460   0.66300   0.88010   0.01267  Uiso   1.00
C36    C     0.82200   0.59700   0.92460   0.01267  Uiso   1.00
O1     O     0.40150   0.07580   0.20845   0.01267  Uiso   1.00
O2     O     0.22580   0.19100   0.16930   0.01267  Uiso   1.00
O3     O     0.62720   0.89850   0.88730   0.01267  Uiso   1.00
O4     O     0.46790   0.02190   0.83800   0.01267  Uiso   1.00
O5     O     0.10600   0.96420   0.29660   0.01267  Uiso   1.00
O6     O     0.87490   0.03270   0.28120   0.01267  Uiso   1.00
O7     O     0.69420   0.26440   0.27240   0.01267  Uiso   1.00
O8     O     0.46460   0.34190   0.29040   0.01267  Uiso   1.00
O9     O     0.09240   0.27160   0.32100   0.01267  Uiso   1.00
O10    O     0.59850   0.92420   0.70845   0.01267  Uiso   1.00
O11    O     0.77420   0.80900   0.66930   0.01267  Uiso   1.00
O12    O     0.37280   0.10150   0.38730   0.01267  Uiso   1.00
O13    O     0.53210   0.97810   0.33800   0.01267  Uiso   1.00
O14    O     0.89400   0.03580   0.79660   0.01267  Uiso   1.00
O15    O     0.12510   0.96730   0.78120   0.01267  Uiso   1.00
O16    O     0.30580   0.73560   0.77240   0.01267  Uiso   1.00
O17    O     0.53540   0.65810   0.79040   0.01267  Uiso   1.00
O18    O     0.90760   0.72840   0.82100   0.01267  Uiso   1.00
F1     F     0.52500   0.31480   0.06940   0.01267  Uiso   1.00
F2     F     0.61530   0.24730   0.94540   0.01267  Uiso   1.00
F3     F     0.32940   0.78580   0.97720   0.01267  Uiso   1.00
F4     F     0.23500   0.85480   0.10090   0.01267  Uiso   1.00
F5     F     0.94350   0.76390   0.17340   0.01267  Uiso   1.00
F6     F     0.79130   0.49680   0.17160   0.01267  Uiso   1.00
F7     F     0.63220   0.53490   0.40000   0.01267  Uiso   1.00
F8     F     0.78750   0.80200   0.40200   0.01267  Uiso   1.00
F9     F     0.47500   0.68520   0.56940   0.01267  Uiso   1.00
F10    F     0.38470   0.75270   0.44540   0.01267  Uiso   1.00
F11    F     0.67060   0.21420   0.47720   0.01267  Uiso   1.00
F12    F     0.76500   0.14520   0.60090   0.01267  Uiso   1.00
F13    F     0.05650   0.23610   0.67340   0.01267  Uiso   1.00
F14    F     0.20870   0.50320   0.67160   0.01267  Uiso   1.00
F15    F     0.36780   0.46510   0.90000   0.01267  Uiso   1.00
F16    F     0.21250   0.19800   0.90200   0.01267  Uiso   1.00
