data_PAMHES01_clean
_audit_creation_date              2014-07-02
_audit_creation_method            'Materials Studio'
_symmetry_space_group_name_H-M    'P1'
_symmetry_Int_Tables_number       1
_symmetry_cell_setting            triclinic
loop_
_symmetry_equiv_pos_as_xyz
  x,y,z
_cell_length_a                    8.2460
_cell_length_b                    9.7050
_cell_length_c                    19.4080
_cell_angle_alpha                 90.0000
_cell_angle_beta                  90.0000
_cell_angle_gamma                 101.7900
loop_
_atom_site_label
_atom_site_type_symbol
_atom_site_fract_x
_atom_site_fract_y
_atom_site_fract_z
_atom_site_U_iso_or_equiv
_atom_site_adp_type
_atom_site_occupancy
Zn1    Zn    0.28527   0.15785   0.48235   0.01267  Uiso   1.00
Zn2    Zn    0.63807   0.05371   0.42600   0.01267  Uiso   1.00
Zn3    Zn    0.71473   0.84215   0.98235   0.01267  Uiso   1.00
Zn4    Zn    0.36193   0.94629   0.92600   0.01267  Uiso   1.00
H1     H     0.04010   0.20000   0.60210   0.01267  Uiso   1.00
H2     H     0.95230   0.32090   0.57760   0.01267  Uiso   1.00
H3     H     0.14010   0.44870   0.64060   0.01267  Uiso   1.00
H4     H     0.24720   0.45220   0.57360   0.01267  Uiso   1.00
H5     H     0.26250   0.34560   0.63270   0.01267  Uiso   1.00
H6     H     0.20840   0.24850   0.49070   0.01267  Uiso   1.00
H7     H     0.95990   0.80000   0.10210   0.01267  Uiso   1.00
H8     H     0.04770   0.67910   0.07760   0.01267  Uiso   1.00
H9     H     0.85990   0.55130   0.14060   0.01267  Uiso   1.00
H10    H     0.75280   0.54780   0.07360   0.01267  Uiso   1.00
H11    H     0.73750   0.65440   0.13270   0.01267  Uiso   1.00
H12    H     0.79160   0.75150   0.99070   0.01267  Uiso   1.00
C1     C     0.05570   0.28780   0.57670   0.01267  Uiso   1.00
C2     C     0.18780   0.39270   0.60870   0.01267  Uiso   1.00
C3     C     0.48010   0.02700   0.57302   0.01267  Uiso   1.00
C4     C     0.52940   0.98400   0.64378   0.01267  Uiso   1.00
C5     C     0.48490   0.84760   0.66731   0.01267  Uiso   1.00
C6     C     0.53140   0.80900   0.73179   0.01267  Uiso   1.00
C7     C     0.62420   0.90720   0.77576   0.01267  Uiso   1.00
C8     C     0.66810   0.04290   0.75227   0.01267  Uiso   1.00
C9     C     0.62230   0.08130   0.68768   0.01267  Uiso   1.00
C10    C     0.67580   0.86710   0.84649   0.01267  Uiso   1.00
C11    C     0.61290   0.35570   0.46899   0.01267  Uiso   1.00
C12    C     0.70800   0.50810   0.47071   0.01267  Uiso   1.00
C13    C     0.71490   0.59040   0.52971   0.01267  Uiso   1.00
C14    C     0.79430   0.73070   0.52908   0.01267  Uiso   1.00
C15    C     0.86790   0.79450   0.47038   0.01267  Uiso   1.00
C16    C     0.85960   0.71330   0.41172   0.01267  Uiso   1.00
C17    C     0.78220   0.57340   0.41211   0.01267  Uiso   1.00
C18    C     0.95830   0.94850   0.47037   0.01267  Uiso   1.00
C19    C     0.94430   0.71220   0.07670   0.01267  Uiso   1.00
C20    C     0.81220   0.60730   0.10870   0.01267  Uiso   1.00
C21    C     0.51990   0.97300   0.07302   0.01267  Uiso   1.00
C22    C     0.47060   0.01600   0.14378   0.01267  Uiso   1.00
C23    C     0.51510   0.15240   0.16731   0.01267  Uiso   1.00
C24    C     0.46860   0.19100   0.23179   0.01267  Uiso   1.00
C25    C     0.37580   0.09280   0.27576   0.01267  Uiso   1.00
C26    C     0.33190   0.95710   0.25227   0.01267  Uiso   1.00
C27    C     0.37770   0.91870   0.18768   0.01267  Uiso   1.00
C28    C     0.32420   0.13290   0.34649   0.01267  Uiso   1.00
C29    C     0.38710   0.64430   0.96899   0.01267  Uiso   1.00
C30    C     0.29200   0.49190   0.97071   0.01267  Uiso   1.00
C31    C     0.28510   0.40960   0.02971   0.01267  Uiso   1.00
C32    C     0.20570   0.26930   0.02908   0.01267  Uiso   1.00
C33    C     0.13210   0.20550   0.97038   0.01267  Uiso   1.00
C34    C     0.14040   0.28670   0.91172   0.01267  Uiso   1.00
C35    C     0.21780   0.42660   0.91211   0.01267  Uiso   1.00
C36    C     0.04170   0.05150   0.97037   0.01267  Uiso   1.00
O1     O     0.54940   0.98300   0.52310   0.01267  Uiso   1.00
O2     O     0.37310   0.09970   0.57214   0.01267  Uiso   1.00
O3     O     0.78180   0.79680   0.85217   0.01267  Uiso   1.00
O4     O     0.60570   0.91370   0.89820   0.01267  Uiso   1.00
O5     O     0.46130   0.34180   0.47945   0.01267  Uiso   1.00
O6     O     0.69550   0.26470   0.45670   0.01267  Uiso   1.00
O7     O     0.87710   0.04130   0.46035   0.01267  Uiso   1.00
O8     O     0.10950   0.96750   0.48133   0.01267  Uiso   1.00
O9     O     0.10260   0.26570   0.50567   0.01267  Uiso   1.00
O10    O     0.45060   0.01700   0.02310   0.01267  Uiso   1.00
O11    O     0.62690   0.90030   0.07214   0.01267  Uiso   1.00
O12    O     0.21820   0.20320   0.35217   0.01267  Uiso   1.00
O13    O     0.39430   0.08630   0.39820   0.01267  Uiso   1.00
O14    O     0.53870   0.65820   0.97945   0.01267  Uiso   1.00
O15    O     0.30450   0.73530   0.95670   0.01267  Uiso   1.00
O16    O     0.12290   0.95870   0.96035   0.01267  Uiso   1.00
O17    O     0.89050   0.03250   0.98133   0.01267  Uiso   1.00
O18    O     0.89740   0.73430   0.00567   0.01267  Uiso   1.00
F1     F     0.39370   0.74880   0.62676   0.01267  Uiso   1.00
F2     F     0.48080   0.67530   0.75233   0.01267  Uiso   1.00
F3     F     0.76400   0.14110   0.79156   0.01267  Uiso   1.00
F4     F     0.67040   0.21590   0.66721   0.01267  Uiso   1.00
F5     F     0.64560   0.53440   0.58844   0.01267  Uiso   1.00
F6     F     0.80010   0.80510   0.58811   0.01267  Uiso   1.00
F7     F     0.92600   0.77150   0.35282   0.01267  Uiso   1.00
F8     F     0.77960   0.49940   0.35330   0.01267  Uiso   1.00
F9     F     0.60630   0.25120   0.12676   0.01267  Uiso   1.00
F10    F     0.51920   0.32470   0.25233   0.01267  Uiso   1.00
F11    F     0.23600   0.85890   0.29156   0.01267  Uiso   1.00
F12    F     0.32960   0.78410   0.16721   0.01267  Uiso   1.00
F13    F     0.35440   0.46560   0.08844   0.01267  Uiso   1.00
F14    F     0.19990   0.19490   0.08811   0.01267  Uiso   1.00
F15    F     0.07400   0.22850   0.85282   0.01267  Uiso   1.00
F16    F     0.22040   0.50060   0.85330   0.01267  Uiso   1.00
