data_PAMTII_clean
_audit_creation_date              2014-07-02
_audit_creation_method            'Materials Studio'
_symmetry_space_group_name_H-M    'P1'
_symmetry_Int_Tables_number       1
_symmetry_cell_setting            triclinic
loop_
_symmetry_equiv_pos_as_xyz
  x,y,z
_cell_length_a                    18.8226
_cell_length_b                    18.8226
_cell_length_c                    18.8226
_cell_angle_alpha                 62.8981
_cell_angle_beta                  62.8981
_cell_angle_gamma                 62.8981
loop_
_atom_site_label
_atom_site_type_symbol
_atom_site_fract_x
_atom_site_fract_y
_atom_site_fract_z
_atom_site_U_iso_or_equiv
_atom_site_adp_type
_atom_site_occupancy
Er1    Er    0.99556   0.55932   0.56628   0.01267  Uiso   1.00
Er2    Er    0.56628   0.99556   0.55932   0.01267  Uiso   1.00
Er3    Er    0.55932   0.56628   0.99556   0.01267  Uiso   1.00
Er4    Er    0.00444   0.44068   0.43372   0.01267  Uiso   1.00
Er5    Er    0.43372   0.00444   0.44068   0.01267  Uiso   1.00
Er6    Er    0.44068   0.43372   0.00444   0.01267  Uiso   1.00
H1     H     0.22500   0.51810   0.23590   0.01267  Uiso   1.00
H2     H     0.38990   0.63730   0.15520   0.01267  Uiso   1.00
H3     H     0.19430   0.65530   0.36580   0.01267  Uiso   1.00
H4     H     0.43990   0.66700   0.22820   0.01267  Uiso   1.00
H5     H     0.39640   0.75030   0.16770   0.01267  Uiso   1.00
H6     H     0.39410   0.87930   0.16580   0.01267  Uiso   1.00
H7     H     0.40480   0.95470   0.22610   0.01267  Uiso   1.00
H8     H     0.43900   0.75300   0.42120   0.01267  Uiso   1.00
H9     H     0.43380   0.67560   0.35830   0.01267  Uiso   1.00
H10    H     0.23590   0.22500   0.51810   0.01267  Uiso   1.00
H11    H     0.15520   0.38990   0.63730   0.01267  Uiso   1.00
H12    H     0.36580   0.19430   0.65530   0.01267  Uiso   1.00
H13    H     0.22820   0.43990   0.66700   0.01267  Uiso   1.00
H14    H     0.16770   0.39640   0.75030   0.01267  Uiso   1.00
H15    H     0.16580   0.39410   0.87930   0.01267  Uiso   1.00
H16    H     0.22610   0.40480   0.95470   0.01267  Uiso   1.00
H17    H     0.42120   0.43900   0.75300   0.01267  Uiso   1.00
H18    H     0.35830   0.43380   0.67560   0.01267  Uiso   1.00
H19    H     0.51810   0.23590   0.22500   0.01267  Uiso   1.00
H20    H     0.63730   0.15520   0.38990   0.01267  Uiso   1.00
H21    H     0.65530   0.36580   0.19430   0.01267  Uiso   1.00
H22    H     0.66700   0.22820   0.43990   0.01267  Uiso   1.00
H23    H     0.75030   0.16770   0.39640   0.01267  Uiso   1.00
H24    H     0.87930   0.16580   0.39410   0.01267  Uiso   1.00
H25    H     0.95470   0.22610   0.40480   0.01267  Uiso   1.00
H26    H     0.75300   0.42120   0.43900   0.01267  Uiso   1.00
H27    H     0.67560   0.35830   0.43380   0.01267  Uiso   1.00
H28    H     0.77500   0.48190   0.76410   0.01267  Uiso   1.00
H29    H     0.61010   0.36270   0.84480   0.01267  Uiso   1.00
H30    H     0.80570   0.34470   0.63420   0.01267  Uiso   1.00
H31    H     0.56010   0.33300   0.77180   0.01267  Uiso   1.00
H32    H     0.60360   0.24970   0.83230   0.01267  Uiso   1.00
H33    H     0.60590   0.12070   0.83420   0.01267  Uiso   1.00
H34    H     0.59520   0.04530   0.77390   0.01267  Uiso   1.00
H35    H     0.56100   0.24700   0.57880   0.01267  Uiso   1.00
H36    H     0.56620   0.32440   0.64170   0.01267  Uiso   1.00
H37    H     0.76410   0.77500   0.48190   0.01267  Uiso   1.00
H38    H     0.84480   0.61010   0.36270   0.01267  Uiso   1.00
H39    H     0.63420   0.80570   0.34470   0.01267  Uiso   1.00
H40    H     0.77180   0.56010   0.33300   0.01267  Uiso   1.00
H41    H     0.83230   0.60360   0.24970   0.01267  Uiso   1.00
H42    H     0.83420   0.60590   0.12070   0.01267  Uiso   1.00
H43    H     0.77390   0.59520   0.04530   0.01267  Uiso   1.00
H44    H     0.57880   0.56100   0.24700   0.01267  Uiso   1.00
H45    H     0.64170   0.56620   0.32440   0.01267  Uiso   1.00
H46    H     0.48190   0.76410   0.77500   0.01267  Uiso   1.00
H47    H     0.36270   0.84480   0.61010   0.01267  Uiso   1.00
H48    H     0.34470   0.63420   0.80570   0.01267  Uiso   1.00
H49    H     0.33300   0.77180   0.56010   0.01267  Uiso   1.00
H50    H     0.24970   0.83230   0.60360   0.01267  Uiso   1.00
H51    H     0.12070   0.83420   0.60590   0.01267  Uiso   1.00
H52    H     0.04530   0.77390   0.59520   0.01267  Uiso   1.00
H53    H     0.24700   0.57880   0.56100   0.01267  Uiso   1.00
H54    H     0.32440   0.64170   0.56620   0.01267  Uiso   1.00
C1     C     0.11956   0.56096   0.37516   0.01267  Uiso   1.00
C2     C     0.19652   0.58542   0.31022   0.01267  Uiso   1.00
C3     C     0.24302   0.55242   0.24272   0.01267  Uiso   1.00
C4     C     0.31564   0.57144   0.18684   0.01267  Uiso   1.00
C5     C     0.34179   0.62339   0.19439   0.01267  Uiso   1.00
C6     C     0.29541   0.65551   0.26211   0.01267  Uiso   1.00
C7     C     0.22384   0.63504   0.32004   0.01267  Uiso   1.00
C8     C     0.39530   0.72040   0.22570   0.01267  Uiso   1.00
C9     C     0.40670   0.77070   0.25940   0.01267  Uiso   1.00
C10    C     0.40220   0.85320   0.21830   0.01267  Uiso   1.00
C11    C     0.40940   0.89810   0.25440   0.01267  Uiso   1.00
C12    C     0.42282   0.86272   0.32862   0.01267  Uiso   1.00
C13    C     0.42821   0.91161   0.36881   0.01267  Uiso   1.00
C14    C     0.43030   0.77900   0.36910   0.01267  Uiso   1.00
C15    C     0.42480   0.73310   0.33230   0.01267  Uiso   1.00
C16    C     0.36351   0.53501   0.11741   0.01267  Uiso   1.00
C17    C     0.37516   0.11956   0.56096   0.01267  Uiso   1.00
C18    C     0.31022   0.19652   0.58542   0.01267  Uiso   1.00
C19    C     0.24272   0.24302   0.55242   0.01267  Uiso   1.00
C20    C     0.18684   0.31564   0.57144   0.01267  Uiso   1.00
C21    C     0.19439   0.34179   0.62339   0.01267  Uiso   1.00
C22    C     0.26211   0.29541   0.65551   0.01267  Uiso   1.00
C23    C     0.32004   0.22384   0.63504   0.01267  Uiso   1.00
C24    C     0.22570   0.39530   0.72040   0.01267  Uiso   1.00
C25    C     0.25940   0.40670   0.77070   0.01267  Uiso   1.00
C26    C     0.21830   0.40220   0.85320   0.01267  Uiso   1.00
C27    C     0.25440   0.40940   0.89810   0.01267  Uiso   1.00
C28    C     0.32862   0.42282   0.86272   0.01267  Uiso   1.00
C29    C     0.36881   0.42821   0.91161   0.01267  Uiso   1.00
C30    C     0.36910   0.43030   0.77900   0.01267  Uiso   1.00
C31    C     0.33230   0.42480   0.73310   0.01267  Uiso   1.00
C32    C     0.11741   0.36351   0.53501   0.01267  Uiso   1.00
C33    C     0.56096   0.37516   0.11956   0.01267  Uiso   1.00
C34    C     0.58542   0.31022   0.19652   0.01267  Uiso   1.00
C35    C     0.55242   0.24272   0.24302   0.01267  Uiso   1.00
C36    C     0.57144   0.18684   0.31564   0.01267  Uiso   1.00
C37    C     0.62339   0.19439   0.34179   0.01267  Uiso   1.00
C38    C     0.65551   0.26211   0.29541   0.01267  Uiso   1.00
C39    C     0.63504   0.32004   0.22384   0.01267  Uiso   1.00
C40    C     0.72040   0.22570   0.39530   0.01267  Uiso   1.00
C41    C     0.77070   0.25940   0.40670   0.01267  Uiso   1.00
C42    C     0.85320   0.21830   0.40220   0.01267  Uiso   1.00
C43    C     0.89810   0.25440   0.40940   0.01267  Uiso   1.00
C44    C     0.86272   0.32862   0.42282   0.01267  Uiso   1.00
C45    C     0.91161   0.36881   0.42821   0.01267  Uiso   1.00
C46    C     0.77900   0.36910   0.43030   0.01267  Uiso   1.00
C47    C     0.73310   0.33230   0.42480   0.01267  Uiso   1.00
C48    C     0.53501   0.11741   0.36351   0.01267  Uiso   1.00
C49    C     0.88044   0.43904   0.62484   0.01267  Uiso   1.00
C50    C     0.80348   0.41458   0.68978   0.01267  Uiso   1.00
C51    C     0.75698   0.44758   0.75728   0.01267  Uiso   1.00
C52    C     0.68436   0.42856   0.81316   0.01267  Uiso   1.00
C53    C     0.65821   0.37661   0.80561   0.01267  Uiso   1.00
C54    C     0.70459   0.34449   0.73789   0.01267  Uiso   1.00
C55    C     0.77616   0.36496   0.67996   0.01267  Uiso   1.00
C56    C     0.60470   0.27960   0.77430   0.01267  Uiso   1.00
C57    C     0.59330   0.22930   0.74060   0.01267  Uiso   1.00
C58    C     0.59780   0.14680   0.78170   0.01267  Uiso   1.00
C59    C     0.59060   0.10190   0.74560   0.01267  Uiso   1.00
C60    C     0.57718   0.13728   0.67138   0.01267  Uiso   1.00
C61    C     0.57179   0.08839   0.63119   0.01267  Uiso   1.00
C62    C     0.56970   0.22100   0.63090   0.01267  Uiso   1.00
C63    C     0.57520   0.26690   0.66770   0.01267  Uiso   1.00
C64    C     0.63649   0.46499   0.88259   0.01267  Uiso   1.00
C65    C     0.62484   0.88044   0.43904   0.01267  Uiso   1.00
C66    C     0.68978   0.80348   0.41458   0.01267  Uiso   1.00
C67    C     0.75728   0.75698   0.44758   0.01267  Uiso   1.00
C68    C     0.81316   0.68436   0.42856   0.01267  Uiso   1.00
C69    C     0.80561   0.65821   0.37661   0.01267  Uiso   1.00
C70    C     0.73789   0.70459   0.34449   0.01267  Uiso   1.00
C71    C     0.67996   0.77616   0.36496   0.01267  Uiso   1.00
C72    C     0.77430   0.60470   0.27960   0.01267  Uiso   1.00
C73    C     0.74060   0.59330   0.22930   0.01267  Uiso   1.00
C74    C     0.78170   0.59780   0.14680   0.01267  Uiso   1.00
C75    C     0.74560   0.59060   0.10190   0.01267  Uiso   1.00
C76    C     0.67138   0.57718   0.13728   0.01267  Uiso   1.00
C77    C     0.63119   0.57179   0.08839   0.01267  Uiso   1.00
C78    C     0.63090   0.56970   0.22100   0.01267  Uiso   1.00
C79    C     0.66770   0.57520   0.26690   0.01267  Uiso   1.00
C80    C     0.88259   0.63649   0.46499   0.01267  Uiso   1.00
C81    C     0.43904   0.62484   0.88044   0.01267  Uiso   1.00
C82    C     0.41458   0.68978   0.80348   0.01267  Uiso   1.00
C83    C     0.44758   0.75728   0.75698   0.01267  Uiso   1.00
C84    C     0.42856   0.81316   0.68436   0.01267  Uiso   1.00
C85    C     0.37661   0.80561   0.65821   0.01267  Uiso   1.00
C86    C     0.34449   0.73789   0.70459   0.01267  Uiso   1.00
C87    C     0.36496   0.67996   0.77616   0.01267  Uiso   1.00
C88    C     0.27960   0.77430   0.60470   0.01267  Uiso   1.00
C89    C     0.22930   0.74060   0.59330   0.01267  Uiso   1.00
C90    C     0.14680   0.78170   0.59780   0.01267  Uiso   1.00
C91    C     0.10190   0.74560   0.59060   0.01267  Uiso   1.00
C92    C     0.13728   0.67138   0.57718   0.01267  Uiso   1.00
C93    C     0.08839   0.63119   0.57179   0.01267  Uiso   1.00
C94    C     0.22100   0.63090   0.56970   0.01267  Uiso   1.00
C95    C     0.26690   0.66770   0.57520   0.01267  Uiso   1.00
C96    C     0.46499   0.88259   0.63649   0.01267  Uiso   1.00
O1     O     0.07871   0.59521   0.43021   0.01267  Uiso   1.00
O2     O     0.10472   0.50602   0.36832   0.01267  Uiso   1.00
O3     O     0.43792   0.98262   0.32502   0.01267  Uiso   1.00
O4     O     0.42128   0.88278   0.44468   0.01267  Uiso   1.00
O5     O     0.33639   0.49199   0.10709   0.01267  Uiso   1.00
O6     O     0.43322   0.54722   0.07002   0.01267  Uiso   1.00
O7     O     0.31635   0.70715   0.27605   0.01267  Uiso   1.00
O8     O     0.43021   0.07871   0.59521   0.01267  Uiso   1.00
O9     O     0.36832   0.10472   0.50602   0.01267  Uiso   1.00
O10    O     0.32502   0.43792   0.98262   0.01267  Uiso   1.00
O11    O     0.44468   0.42128   0.88278   0.01267  Uiso   1.00
O12    O     0.10709   0.33639   0.49199   0.01267  Uiso   1.00
O13    O     0.07002   0.43322   0.54722   0.01267  Uiso   1.00
O14    O     0.27605   0.31635   0.70715   0.01267  Uiso   1.00
O15    O     0.59521   0.43021   0.07871   0.01267  Uiso   1.00
O16    O     0.50602   0.36832   0.10472   0.01267  Uiso   1.00
O17    O     0.98262   0.32502   0.43792   0.01267  Uiso   1.00
O18    O     0.88278   0.44468   0.42128   0.01267  Uiso   1.00
O19    O     0.49199   0.10709   0.33639   0.01267  Uiso   1.00
O20    O     0.54722   0.07002   0.43322   0.01267  Uiso   1.00
O21    O     0.70715   0.27605   0.31635   0.01267  Uiso   1.00
O22    O     0.92129   0.40479   0.56979   0.01267  Uiso   1.00
O23    O     0.89528   0.49398   0.63168   0.01267  Uiso   1.00
O24    O     0.56208   0.01738   0.67498   0.01267  Uiso   1.00
O25    O     0.57872   0.11722   0.55532   0.01267  Uiso   1.00
O26    O     0.66361   0.50801   0.89291   0.01267  Uiso   1.00
O27    O     0.56678   0.45278   0.92998   0.01267  Uiso   1.00
O28    O     0.68365   0.29285   0.72395   0.01267  Uiso   1.00
O29    O     0.56979   0.92129   0.40479   0.01267  Uiso   1.00
O30    O     0.63168   0.89528   0.49398   0.01267  Uiso   1.00
O31    O     0.67498   0.56208   0.01738   0.01267  Uiso   1.00
O32    O     0.55532   0.57872   0.11722   0.01267  Uiso   1.00
O33    O     0.89291   0.66361   0.50801   0.01267  Uiso   1.00
O34    O     0.92998   0.56678   0.45278   0.01267  Uiso   1.00
O35    O     0.72395   0.68365   0.29285   0.01267  Uiso   1.00
O36    O     0.40479   0.56979   0.92129   0.01267  Uiso   1.00
O37    O     0.49398   0.63168   0.89528   0.01267  Uiso   1.00
O38    O     0.01738   0.67498   0.56208   0.01267  Uiso   1.00
O39    O     0.11722   0.55532   0.57872   0.01267  Uiso   1.00
O40    O     0.50801   0.89291   0.66361   0.01267  Uiso   1.00
O41    O     0.45278   0.92998   0.56678   0.01267  Uiso   1.00
O42    O     0.29285   0.72395   0.68365   0.01267  Uiso   1.00
