data_PAMTUU_clean
_audit_creation_date              2014-07-02
_audit_creation_method            'Materials Studio'
_symmetry_space_group_name_H-M    'P1'
_symmetry_Int_Tables_number       1
_symmetry_cell_setting            triclinic
loop_
_symmetry_equiv_pos_as_xyz
  x,y,z
_cell_length_a                    19.0120
_cell_length_b                    19.0120
_cell_length_c                    19.0120
_cell_angle_alpha                 62.9587
_cell_angle_beta                  62.9587
_cell_angle_gamma                 62.9587
loop_
_atom_site_label
_atom_site_type_symbol
_atom_site_fract_x
_atom_site_fract_y
_atom_site_fract_z
_atom_site_U_iso_or_equiv
_atom_site_adp_type
_atom_site_occupancy
Tb1    Tb    0.50435   0.94053   0.93305   0.01267  Uiso   1.00
Tb2    Tb    0.93305   0.50435   0.94053   0.01267  Uiso   1.00
Tb3    Tb    0.94053   0.93305   0.50435   0.01267  Uiso   1.00
Tb4    Tb    0.49565   0.05947   0.06695   0.01267  Uiso   1.00
Tb5    Tb    0.06695   0.49565   0.05947   0.01267  Uiso   1.00
Tb6    Tb    0.05947   0.06695   0.49565   0.01267  Uiso   1.00
H1     H     0.27340   0.98350   0.26260   0.01267  Uiso   1.00
H2     H     0.10800   0.86720   0.34240   0.01267  Uiso   1.00
H3     H     0.30200   0.84770   0.13400   0.01267  Uiso   1.00
H4     H     0.10710   0.62700   0.33060   0.01267  Uiso   1.00
H5     H     0.08490   0.55160   0.27610   0.01267  Uiso   1.00
H6     H     0.05780   0.74900   0.08120   0.01267  Uiso   1.00
H7     H     0.06750   0.82540   0.14000   0.01267  Uiso   1.00
H8     H     0.06010   0.80890   0.30850   0.01267  Uiso   1.00
H9     H     0.13660   0.72790   0.32320   0.01267  Uiso   1.00
H10    H     0.26260   0.27340   0.98350   0.01267  Uiso   1.00
H11    H     0.34240   0.10800   0.86720   0.01267  Uiso   1.00
H12    H     0.13400   0.30200   0.84770   0.01267  Uiso   1.00
H13    H     0.33060   0.10710   0.62700   0.01267  Uiso   1.00
H14    H     0.27610   0.08490   0.55160   0.01267  Uiso   1.00
H15    H     0.08120   0.05780   0.74900   0.01267  Uiso   1.00
H16    H     0.14000   0.06750   0.82540   0.01267  Uiso   1.00
H17    H     0.30850   0.06010   0.80890   0.01267  Uiso   1.00
H18    H     0.32320   0.13660   0.72790   0.01267  Uiso   1.00
H19    H     0.98350   0.26260   0.27340   0.01267  Uiso   1.00
H20    H     0.86720   0.34240   0.10800   0.01267  Uiso   1.00
H21    H     0.84770   0.13400   0.30200   0.01267  Uiso   1.00
H22    H     0.62700   0.33060   0.10710   0.01267  Uiso   1.00
H23    H     0.55160   0.27610   0.08490   0.01267  Uiso   1.00
H24    H     0.74900   0.08120   0.05780   0.01267  Uiso   1.00
H25    H     0.82540   0.14000   0.06750   0.01267  Uiso   1.00
H26    H     0.80890   0.30850   0.06010   0.01267  Uiso   1.00
H27    H     0.72790   0.32320   0.13660   0.01267  Uiso   1.00
H28    H     0.72660   0.01650   0.73740   0.01267  Uiso   1.00
H29    H     0.89200   0.13280   0.65760   0.01267  Uiso   1.00
H30    H     0.69800   0.15230   0.86600   0.01267  Uiso   1.00
H31    H     0.89290   0.37300   0.66940   0.01267  Uiso   1.00
H32    H     0.91510   0.44840   0.72390   0.01267  Uiso   1.00
H33    H     0.94220   0.25100   0.91880   0.01267  Uiso   1.00
H34    H     0.93250   0.17460   0.86000   0.01267  Uiso   1.00
H35    H     0.93990   0.19110   0.69150   0.01267  Uiso   1.00
H36    H     0.86340   0.27210   0.67680   0.01267  Uiso   1.00
H37    H     0.73740   0.72660   0.01650   0.01267  Uiso   1.00
H38    H     0.65760   0.89200   0.13280   0.01267  Uiso   1.00
H39    H     0.86600   0.69800   0.15230   0.01267  Uiso   1.00
H40    H     0.66940   0.89290   0.37300   0.01267  Uiso   1.00
H41    H     0.72390   0.91510   0.44840   0.01267  Uiso   1.00
H42    H     0.91880   0.94220   0.25100   0.01267  Uiso   1.00
H43    H     0.86000   0.93250   0.17460   0.01267  Uiso   1.00
H44    H     0.69150   0.93990   0.19110   0.01267  Uiso   1.00
H45    H     0.67680   0.86340   0.27210   0.01267  Uiso   1.00
H46    H     0.01650   0.73740   0.72660   0.01267  Uiso   1.00
H47    H     0.13280   0.65760   0.89200   0.01267  Uiso   1.00
H48    H     0.15230   0.86600   0.69800   0.01267  Uiso   1.00
H49    H     0.37300   0.66940   0.89290   0.01267  Uiso   1.00
H50    H     0.44840   0.72390   0.91510   0.01267  Uiso   1.00
H51    H     0.25100   0.91880   0.94220   0.01267  Uiso   1.00
H52    H     0.17460   0.86000   0.93250   0.01267  Uiso   1.00
H53    H     0.19110   0.69150   0.93990   0.01267  Uiso   1.00
H54    H     0.27210   0.67680   0.86340   0.01267  Uiso   1.00
C1     C     0.37940   0.93980   0.12470   0.01267  Uiso   1.00
C2     C     0.30144   0.91654   0.18944   0.01267  Uiso   1.00
C3     C     0.25570   0.94910   0.25650   0.01267  Uiso   1.00
C4     C     0.18439   0.92949   0.31289   0.01267  Uiso   1.00
C5     C     0.15640   0.87980   0.30420   0.01267  Uiso   1.00
C6     C     0.20210   0.84870   0.23680   0.01267  Uiso   1.00
C7     C     0.27330   0.86770   0.17930   0.01267  Uiso   1.00
C8     C     0.09090   0.73460   0.23770   0.01267  Uiso   1.00
C9     C     0.09630   0.65240   0.28000   0.01267  Uiso   1.00
C10    C     0.08560   0.60600   0.24590   0.01267  Uiso   1.00
C11    C     0.07650   0.64210   0.16910   0.01267  Uiso   1.00
C12    C     0.06830   0.72280   0.13200   0.01267  Uiso   1.00
C13    C     0.07470   0.76900   0.16730   0.01267  Uiso   1.00
C14    C     0.13719   0.96539   0.38209   0.01267  Uiso   1.00
C15    C     0.07120   0.59080   0.13150   0.01267  Uiso   1.00
C16    C     0.10990   0.77110   0.28210   0.01267  Uiso   1.00
C17    C     0.12470   0.37940   0.93980   0.01267  Uiso   1.00
C18    C     0.18944   0.30144   0.91654   0.01267  Uiso   1.00
C19    C     0.25650   0.25570   0.94910   0.01267  Uiso   1.00
C20    C     0.31289   0.18439   0.92949   0.01267  Uiso   1.00
C21    C     0.30420   0.15640   0.87980   0.01267  Uiso   1.00
C22    C     0.23680   0.20210   0.84870   0.01267  Uiso   1.00
C23    C     0.17930   0.27330   0.86770   0.01267  Uiso   1.00
C24    C     0.23770   0.09090   0.73460   0.01267  Uiso   1.00
C25    C     0.28000   0.09630   0.65240   0.01267  Uiso   1.00
C26    C     0.24590   0.08560   0.60600   0.01267  Uiso   1.00
C27    C     0.16910   0.07650   0.64210   0.01267  Uiso   1.00
C28    C     0.13200   0.06830   0.72280   0.01267  Uiso   1.00
C29    C     0.16730   0.07470   0.76900   0.01267  Uiso   1.00
C30    C     0.38209   0.13719   0.96539   0.01267  Uiso   1.00
C31    C     0.13150   0.07120   0.59080   0.01267  Uiso   1.00
C32    C     0.28210   0.10990   0.77110   0.01267  Uiso   1.00
C33    C     0.93980   0.12470   0.37940   0.01267  Uiso   1.00
C34    C     0.91654   0.18944   0.30144   0.01267  Uiso   1.00
C35    C     0.94910   0.25650   0.25570   0.01267  Uiso   1.00
C36    C     0.92949   0.31289   0.18439   0.01267  Uiso   1.00
C37    C     0.87980   0.30420   0.15640   0.01267  Uiso   1.00
C38    C     0.84870   0.23680   0.20210   0.01267  Uiso   1.00
C39    C     0.86770   0.17930   0.27330   0.01267  Uiso   1.00
C40    C     0.73460   0.23770   0.09090   0.01267  Uiso   1.00
C41    C     0.65240   0.28000   0.09630   0.01267  Uiso   1.00
C42    C     0.60600   0.24590   0.08560   0.01267  Uiso   1.00
C43    C     0.64210   0.16910   0.07650   0.01267  Uiso   1.00
C44    C     0.72280   0.13200   0.06830   0.01267  Uiso   1.00
C45    C     0.76900   0.16730   0.07470   0.01267  Uiso   1.00
C46    C     0.96539   0.38209   0.13719   0.01267  Uiso   1.00
C47    C     0.59080   0.13150   0.07120   0.01267  Uiso   1.00
C48    C     0.77110   0.28210   0.10990   0.01267  Uiso   1.00
C49    C     0.62060   0.06020   0.87530   0.01267  Uiso   1.00
C50    C     0.69856   0.08346   0.81056   0.01267  Uiso   1.00
C51    C     0.74430   0.05090   0.74350   0.01267  Uiso   1.00
C52    C     0.81561   0.07051   0.68711   0.01267  Uiso   1.00
C53    C     0.84360   0.12020   0.69580   0.01267  Uiso   1.00
C54    C     0.79790   0.15130   0.76320   0.01267  Uiso   1.00
C55    C     0.72670   0.13230   0.82070   0.01267  Uiso   1.00
C56    C     0.90910   0.26540   0.76230   0.01267  Uiso   1.00
C57    C     0.90370   0.34760   0.72000   0.01267  Uiso   1.00
C58    C     0.91440   0.39400   0.75410   0.01267  Uiso   1.00
C59    C     0.92350   0.35790   0.83090   0.01267  Uiso   1.00
C60    C     0.93170   0.27720   0.86800   0.01267  Uiso   1.00
C61    C     0.92530   0.23100   0.83270   0.01267  Uiso   1.00
C62    C     0.86281   0.03461   0.61791   0.01267  Uiso   1.00
C63    C     0.92880   0.40920   0.86850   0.01267  Uiso   1.00
C64    C     0.89010   0.22890   0.71790   0.01267  Uiso   1.00
C65    C     0.87530   0.62060   0.06020   0.01267  Uiso   1.00
C66    C     0.81056   0.69856   0.08346   0.01267  Uiso   1.00
C67    C     0.74350   0.74430   0.05090   0.01267  Uiso   1.00
C68    C     0.68711   0.81561   0.07051   0.01267  Uiso   1.00
C69    C     0.69580   0.84360   0.12020   0.01267  Uiso   1.00
C70    C     0.76320   0.79790   0.15130   0.01267  Uiso   1.00
C71    C     0.82070   0.72670   0.13230   0.01267  Uiso   1.00
C72    C     0.76230   0.90910   0.26540   0.01267  Uiso   1.00
C73    C     0.72000   0.90370   0.34760   0.01267  Uiso   1.00
C74    C     0.75410   0.91440   0.39400   0.01267  Uiso   1.00
C75    C     0.83090   0.92350   0.35790   0.01267  Uiso   1.00
C76    C     0.86800   0.93170   0.27720   0.01267  Uiso   1.00
C77    C     0.83270   0.92530   0.23100   0.01267  Uiso   1.00
C78    C     0.61791   0.86281   0.03461   0.01267  Uiso   1.00
C79    C     0.86850   0.92880   0.40920   0.01267  Uiso   1.00
C80    C     0.71790   0.89010   0.22890   0.01267  Uiso   1.00
C81    C     0.06020   0.87530   0.62060   0.01267  Uiso   1.00
C82    C     0.08346   0.81056   0.69856   0.01267  Uiso   1.00
C83    C     0.05090   0.74350   0.74430   0.01267  Uiso   1.00
C84    C     0.07051   0.68711   0.81561   0.01267  Uiso   1.00
C85    C     0.12020   0.69580   0.84360   0.01267  Uiso   1.00
C86    C     0.15130   0.76320   0.79790   0.01267  Uiso   1.00
C87    C     0.13230   0.82070   0.72670   0.01267  Uiso   1.00
C88    C     0.26540   0.76230   0.90910   0.01267  Uiso   1.00
C89    C     0.34760   0.72000   0.90370   0.01267  Uiso   1.00
C90    C     0.39400   0.75410   0.91440   0.01267  Uiso   1.00
C91    C     0.35790   0.83090   0.92350   0.01267  Uiso   1.00
C92    C     0.27720   0.86800   0.93170   0.01267  Uiso   1.00
C93    C     0.23100   0.83270   0.92530   0.01267  Uiso   1.00
C94    C     0.03461   0.61791   0.86281   0.01267  Uiso   1.00
C95    C     0.40920   0.86850   0.92880   0.01267  Uiso   1.00
C96    C     0.22890   0.71790   0.89010   0.01267  Uiso   1.00
O1     O     0.41983   0.90543   0.07013   0.01267  Uiso   1.00
O2     O     0.39545   0.99275   0.13235   0.01267  Uiso   1.00
O3     O     0.16515   0.00735   0.39275   0.01267  Uiso   1.00
O4     O     0.06798   0.95458   0.42878   0.01267  Uiso   1.00
O5     O     0.07808   0.61858   0.05658   0.01267  Uiso   1.00
O6     O     0.06141   0.52031   0.17521   0.01267  Uiso   1.00
O7     O     0.16920   0.81710   0.20830   0.01267  Uiso   1.00
O8     O     0.07013   0.41983   0.90543   0.01267  Uiso   1.00
O9     O     0.13235   0.39545   0.99275   0.01267  Uiso   1.00
O10    O     0.39275   0.16515   0.00735   0.01267  Uiso   1.00
O11    O     0.42878   0.06798   0.95458   0.01267  Uiso   1.00
O12    O     0.05658   0.07808   0.61858   0.01267  Uiso   1.00
O13    O     0.17521   0.06141   0.52031   0.01267  Uiso   1.00
O14    O     0.20830   0.16920   0.81710   0.01267  Uiso   1.00
O15    O     0.90543   0.07013   0.41983   0.01267  Uiso   1.00
O16    O     0.99275   0.13235   0.39545   0.01267  Uiso   1.00
O17    O     0.00735   0.39275   0.16515   0.01267  Uiso   1.00
O18    O     0.95458   0.42878   0.06798   0.01267  Uiso   1.00
O19    O     0.61858   0.05658   0.07808   0.01267  Uiso   1.00
O20    O     0.52031   0.17521   0.06141   0.01267  Uiso   1.00
O21    O     0.81710   0.20830   0.16920   0.01267  Uiso   1.00
O22    O     0.58017   0.09457   0.92987   0.01267  Uiso   1.00
O23    O     0.60455   0.00725   0.86765   0.01267  Uiso   1.00
O24    O     0.83485   0.99265   0.60725   0.01267  Uiso   1.00
O25    O     0.93202   0.04542   0.57122   0.01267  Uiso   1.00
O26    O     0.92192   0.38142   0.94342   0.01267  Uiso   1.00
O27    O     0.93859   0.47969   0.82479   0.01267  Uiso   1.00
O28    O     0.83080   0.18290   0.79170   0.01267  Uiso   1.00
O29    O     0.92987   0.58017   0.09457   0.01267  Uiso   1.00
O30    O     0.86765   0.60455   0.00725   0.01267  Uiso   1.00
O31    O     0.60725   0.83485   0.99265   0.01267  Uiso   1.00
O32    O     0.57122   0.93202   0.04542   0.01267  Uiso   1.00
O33    O     0.94342   0.92192   0.38142   0.01267  Uiso   1.00
O34    O     0.82479   0.93859   0.47969   0.01267  Uiso   1.00
O35    O     0.79170   0.83080   0.18290   0.01267  Uiso   1.00
O36    O     0.09457   0.92987   0.58017   0.01267  Uiso   1.00
O37    O     0.00725   0.86765   0.60455   0.01267  Uiso   1.00
O38    O     0.99265   0.60725   0.83485   0.01267  Uiso   1.00
O39    O     0.04542   0.57122   0.93202   0.01267  Uiso   1.00
O40    O     0.38142   0.94342   0.92192   0.01267  Uiso   1.00
O41    O     0.47969   0.82479   0.93859   0.01267  Uiso   1.00
O42    O     0.18290   0.79170   0.83080   0.01267  Uiso   1.00
