data_PAMTOO_clean
_audit_creation_date              2014-07-02
_audit_creation_method            'Materials Studio'
_symmetry_space_group_name_H-M    'P1'
_symmetry_Int_Tables_number       1
_symmetry_cell_setting            triclinic
loop_
_symmetry_equiv_pos_as_xyz
  x,y,z
_cell_length_a                    18.9584
_cell_length_b                    18.9584
_cell_length_c                    18.9584
_cell_angle_alpha                 62.9312
_cell_angle_beta                  62.9312
_cell_angle_gamma                 62.9312
loop_
_atom_site_label
_atom_site_type_symbol
_atom_site_fract_x
_atom_site_fract_y
_atom_site_fract_z
_atom_site_U_iso_or_equiv
_atom_site_adp_type
_atom_site_occupancy
Dy1    Dy    0.99568   0.56638   0.55946   0.01267  Uiso   1.00
Dy2    Dy    0.55946   0.99568   0.56638   0.01267  Uiso   1.00
Dy3    Dy    0.56638   0.55946   0.99568   0.01267  Uiso   1.00
Dy4    Dy    0.00432   0.43362   0.44054   0.01267  Uiso   1.00
Dy5    Dy    0.44054   0.00432   0.43362   0.01267  Uiso   1.00
Dy6    Dy    0.43362   0.44054   0.00432   0.01267  Uiso   1.00
H1     H     0.77260   0.76260   0.48390   0.01267  Uiso   1.00
H2     H     0.60620   0.83950   0.36970   0.01267  Uiso   1.00
H3     H     0.80290   0.63290   0.34840   0.01267  Uiso   1.00
H4     H     0.32120   0.57920   0.63320   0.01267  Uiso   1.00
H5     H     0.24870   0.55900   0.57950   0.01267  Uiso   1.00
H6     H     0.05370   0.58270   0.77690   0.01267  Uiso   1.00
H7     H     0.13050   0.60700   0.82820   0.01267  Uiso   1.00
H8     H     0.22160   0.64280   0.82190   0.01267  Uiso   1.00
H9     H     0.30130   0.56280   0.81380   0.01267  Uiso   1.00
H10    H     0.48390   0.77260   0.76260   0.01267  Uiso   1.00
H11    H     0.36970   0.60620   0.83950   0.01267  Uiso   1.00
H12    H     0.34840   0.80290   0.63290   0.01267  Uiso   1.00
H13    H     0.63320   0.32120   0.57920   0.01267  Uiso   1.00
H14    H     0.57950   0.24870   0.55900   0.01267  Uiso   1.00
H15    H     0.77690   0.05370   0.58270   0.01267  Uiso   1.00
H16    H     0.82820   0.13050   0.60700   0.01267  Uiso   1.00
H17    H     0.82190   0.22160   0.64280   0.01267  Uiso   1.00
H18    H     0.81380   0.30130   0.56280   0.01267  Uiso   1.00
H19    H     0.76260   0.48390   0.77260   0.01267  Uiso   1.00
H20    H     0.83950   0.36970   0.60620   0.01267  Uiso   1.00
H21    H     0.63290   0.34840   0.80290   0.01267  Uiso   1.00
H22    H     0.57920   0.63320   0.32120   0.01267  Uiso   1.00
H23    H     0.55900   0.57950   0.24870   0.01267  Uiso   1.00
H24    H     0.58270   0.77690   0.05370   0.01267  Uiso   1.00
H25    H     0.60700   0.82820   0.13050   0.01267  Uiso   1.00
H26    H     0.64280   0.82190   0.22160   0.01267  Uiso   1.00
H27    H     0.56280   0.81380   0.30130   0.01267  Uiso   1.00
H28    H     0.22740   0.23740   0.51610   0.01267  Uiso   1.00
H29    H     0.39380   0.16050   0.63030   0.01267  Uiso   1.00
H30    H     0.19710   0.36710   0.65160   0.01267  Uiso   1.00
H31    H     0.67880   0.42080   0.36680   0.01267  Uiso   1.00
H32    H     0.75130   0.44100   0.42050   0.01267  Uiso   1.00
H33    H     0.94630   0.41730   0.22310   0.01267  Uiso   1.00
H34    H     0.86950   0.39300   0.17180   0.01267  Uiso   1.00
H35    H     0.77840   0.35720   0.17810   0.01267  Uiso   1.00
H36    H     0.69870   0.43720   0.18620   0.01267  Uiso   1.00
H37    H     0.51610   0.22740   0.23740   0.01267  Uiso   1.00
H38    H     0.63030   0.39380   0.16050   0.01267  Uiso   1.00
H39    H     0.65160   0.19710   0.36710   0.01267  Uiso   1.00
H40    H     0.36680   0.67880   0.42080   0.01267  Uiso   1.00
H41    H     0.42050   0.75130   0.44100   0.01267  Uiso   1.00
H42    H     0.22310   0.94630   0.41730   0.01267  Uiso   1.00
H43    H     0.17180   0.86950   0.39300   0.01267  Uiso   1.00
H44    H     0.17810   0.77840   0.35720   0.01267  Uiso   1.00
H45    H     0.18620   0.69870   0.43720   0.01267  Uiso   1.00
H46    H     0.23740   0.51610   0.22740   0.01267  Uiso   1.00
H47    H     0.16050   0.63030   0.39380   0.01267  Uiso   1.00
H48    H     0.36710   0.65160   0.19710   0.01267  Uiso   1.00
H49    H     0.42080   0.36680   0.67880   0.01267  Uiso   1.00
H50    H     0.44100   0.42050   0.75130   0.01267  Uiso   1.00
H51    H     0.41730   0.22310   0.94630   0.01267  Uiso   1.00
H52    H     0.39300   0.17180   0.86950   0.01267  Uiso   1.00
H53    H     0.35720   0.17810   0.77840   0.01267  Uiso   1.00
H54    H     0.43720   0.18620   0.69870   0.01267  Uiso   1.00
C1     C     0.87920   0.62420   0.44010   0.01267  Uiso   1.00
C2     C     0.80160   0.68880   0.41740   0.01267  Uiso   1.00
C3     C     0.75529   0.75599   0.44929   0.01267  Uiso   1.00
C4     C     0.68462   0.81172   0.42952   0.01267  Uiso   1.00
C5     C     0.63654   0.88264   0.46494   0.01267  Uiso   1.00
C6     C     0.65590   0.80240   0.38050   0.01267  Uiso   1.00
C7     C     0.70240   0.73720   0.34730   0.01267  Uiso   1.00
C8     C     0.77400   0.67860   0.36790   0.01267  Uiso   1.00
C9     C     0.23420   0.59420   0.73520   0.01267  Uiso   1.00
C10    C     0.26590   0.58120   0.66340   0.01267  Uiso   1.00
C11    C     0.22220   0.57040   0.63000   0.01267  Uiso   1.00
C12    C     0.14120   0.57630   0.66970   0.01267  Uiso   1.00
C13    C     0.08960   0.57140   0.63110   0.01267  Uiso   1.00
C14    C     0.10770   0.58480   0.74510   0.01267  Uiso   1.00
C15    C     0.15540   0.59700   0.77700   0.01267  Uiso   1.00
C16    C     0.26640   0.61310   0.78370   0.01267  Uiso   1.00
C17    C     0.44010   0.87920   0.62420   0.01267  Uiso   1.00
C18    C     0.41740   0.80160   0.68880   0.01267  Uiso   1.00
C19    C     0.44929   0.75529   0.75599   0.01267  Uiso   1.00
C20    C     0.42952   0.68462   0.81172   0.01267  Uiso   1.00
C21    C     0.46494   0.63654   0.88264   0.01267  Uiso   1.00
C22    C     0.38050   0.65590   0.80240   0.01267  Uiso   1.00
C23    C     0.34730   0.70240   0.73720   0.01267  Uiso   1.00
C24    C     0.36790   0.77400   0.67860   0.01267  Uiso   1.00
C25    C     0.73520   0.23420   0.59420   0.01267  Uiso   1.00
C26    C     0.66340   0.26590   0.58120   0.01267  Uiso   1.00
C27    C     0.63000   0.22220   0.57040   0.01267  Uiso   1.00
C28    C     0.66970   0.14120   0.57630   0.01267  Uiso   1.00
C29    C     0.63110   0.08960   0.57140   0.01267  Uiso   1.00
C30    C     0.74510   0.10770   0.58480   0.01267  Uiso   1.00
C31    C     0.77700   0.15540   0.59700   0.01267  Uiso   1.00
C32    C     0.78370   0.26640   0.61310   0.01267  Uiso   1.00
C33    C     0.62420   0.44010   0.87920   0.01267  Uiso   1.00
C34    C     0.68880   0.41740   0.80160   0.01267  Uiso   1.00
C35    C     0.75599   0.44929   0.75529   0.01267  Uiso   1.00
C36    C     0.81172   0.42952   0.68462   0.01267  Uiso   1.00
C37    C     0.88264   0.46494   0.63654   0.01267  Uiso   1.00
C38    C     0.80240   0.38050   0.65590   0.01267  Uiso   1.00
C39    C     0.73720   0.34730   0.70240   0.01267  Uiso   1.00
C40    C     0.67860   0.36790   0.77400   0.01267  Uiso   1.00
C41    C     0.59420   0.73520   0.23420   0.01267  Uiso   1.00
C42    C     0.58120   0.66340   0.26590   0.01267  Uiso   1.00
C43    C     0.57040   0.63000   0.22220   0.01267  Uiso   1.00
C44    C     0.57630   0.66970   0.14120   0.01267  Uiso   1.00
C45    C     0.57140   0.63110   0.08960   0.01267  Uiso   1.00
C46    C     0.58480   0.74510   0.10770   0.01267  Uiso   1.00
C47    C     0.59700   0.77700   0.15540   0.01267  Uiso   1.00
C48    C     0.61310   0.78370   0.26640   0.01267  Uiso   1.00
C49    C     0.12080   0.37580   0.55990   0.01267  Uiso   1.00
C50    C     0.19840   0.31120   0.58260   0.01267  Uiso   1.00
C51    C     0.24471   0.24401   0.55071   0.01267  Uiso   1.00
C52    C     0.31538   0.18828   0.57048   0.01267  Uiso   1.00
C53    C     0.36346   0.11736   0.53506   0.01267  Uiso   1.00
C54    C     0.34410   0.19760   0.61950   0.01267  Uiso   1.00
C55    C     0.29760   0.26280   0.65270   0.01267  Uiso   1.00
C56    C     0.22600   0.32140   0.63210   0.01267  Uiso   1.00
C57    C     0.76580   0.40580   0.26480   0.01267  Uiso   1.00
C58    C     0.73410   0.41880   0.33660   0.01267  Uiso   1.00
C59    C     0.77780   0.42960   0.37000   0.01267  Uiso   1.00
C60    C     0.85880   0.42370   0.33030   0.01267  Uiso   1.00
C61    C     0.91040   0.42860   0.36890   0.01267  Uiso   1.00
C62    C     0.89230   0.41520   0.25490   0.01267  Uiso   1.00
C63    C     0.84460   0.40300   0.22300   0.01267  Uiso   1.00
C64    C     0.73360   0.38690   0.21630   0.01267  Uiso   1.00
C65    C     0.55990   0.12080   0.37580   0.01267  Uiso   1.00
C66    C     0.58260   0.19840   0.31120   0.01267  Uiso   1.00
C67    C     0.55071   0.24471   0.24401   0.01267  Uiso   1.00
C68    C     0.57048   0.31538   0.18828   0.01267  Uiso   1.00
C69    C     0.53506   0.36346   0.11736   0.01267  Uiso   1.00
C70    C     0.61950   0.34410   0.19760   0.01267  Uiso   1.00
C71    C     0.65270   0.29760   0.26280   0.01267  Uiso   1.00
C72    C     0.63210   0.22600   0.32140   0.01267  Uiso   1.00
C73    C     0.26480   0.76580   0.40580   0.01267  Uiso   1.00
C74    C     0.33660   0.73410   0.41880   0.01267  Uiso   1.00
C75    C     0.37000   0.77780   0.42960   0.01267  Uiso   1.00
C76    C     0.33030   0.85880   0.42370   0.01267  Uiso   1.00
C77    C     0.36890   0.91040   0.42860   0.01267  Uiso   1.00
C78    C     0.25490   0.89230   0.41520   0.01267  Uiso   1.00
C79    C     0.22300   0.84460   0.40300   0.01267  Uiso   1.00
C80    C     0.21630   0.73360   0.38690   0.01267  Uiso   1.00
C81    C     0.37580   0.55990   0.12080   0.01267  Uiso   1.00
C82    C     0.31120   0.58260   0.19840   0.01267  Uiso   1.00
C83    C     0.24401   0.55071   0.24471   0.01267  Uiso   1.00
C84    C     0.18828   0.57048   0.31538   0.01267  Uiso   1.00
C85    C     0.11736   0.53506   0.36346   0.01267  Uiso   1.00
C86    C     0.19760   0.61950   0.34410   0.01267  Uiso   1.00
C87    C     0.26280   0.65270   0.29760   0.01267  Uiso   1.00
C88    C     0.32140   0.63210   0.22600   0.01267  Uiso   1.00
C89    C     0.40580   0.26480   0.76580   0.01267  Uiso   1.00
C90    C     0.41880   0.33660   0.73410   0.01267  Uiso   1.00
C91    C     0.42960   0.37000   0.77780   0.01267  Uiso   1.00
C92    C     0.42370   0.33030   0.85880   0.01267  Uiso   1.00
C93    C     0.42860   0.36890   0.91040   0.01267  Uiso   1.00
C94    C     0.41520   0.25490   0.89230   0.01267  Uiso   1.00
C95    C     0.40300   0.22300   0.84460   0.01267  Uiso   1.00
C96    C     0.38690   0.21630   0.73360   0.01267  Uiso   1.00
O1     O     0.89517   0.63187   0.49377   0.01267  Uiso   1.00
O2     O     0.91985   0.56925   0.40595   0.01267  Uiso   1.00
O3     O     0.11825   0.57825   0.55495   0.01267  Uiso   1.00
O4     O     0.01993   0.56103   0.67463   0.01267  Uiso   1.00
O5     O     0.56718   0.92858   0.45398   0.01267  Uiso   1.00
O6     O     0.66460   0.89240   0.50740   0.01267  Uiso   1.00
O7     O     0.66870   0.70750   0.31740   0.01267  Uiso   1.00
O8     O     0.49377   0.89517   0.63187   0.01267  Uiso   1.00
O9     O     0.40595   0.91985   0.56925   0.01267  Uiso   1.00
O10    O     0.55495   0.11825   0.57825   0.01267  Uiso   1.00
O11    O     0.67463   0.01993   0.56103   0.01267  Uiso   1.00
O12    O     0.45398   0.56718   0.92858   0.01267  Uiso   1.00
O13    O     0.50740   0.66460   0.89240   0.01267  Uiso   1.00
O14    O     0.31740   0.66870   0.70750   0.01267  Uiso   1.00
O15    O     0.63187   0.49377   0.89517   0.01267  Uiso   1.00
O16    O     0.56925   0.40595   0.91985   0.01267  Uiso   1.00
O17    O     0.57825   0.55495   0.11825   0.01267  Uiso   1.00
O18    O     0.56103   0.67463   0.01993   0.01267  Uiso   1.00
O19    O     0.92858   0.45398   0.56718   0.01267  Uiso   1.00
O20    O     0.89240   0.50740   0.66460   0.01267  Uiso   1.00
O21    O     0.70750   0.31740   0.66870   0.01267  Uiso   1.00
O22    O     0.10483   0.36813   0.50623   0.01267  Uiso   1.00
O23    O     0.08015   0.43075   0.59405   0.01267  Uiso   1.00
O24    O     0.88175   0.42175   0.44505   0.01267  Uiso   1.00
O25    O     0.98007   0.43897   0.32537   0.01267  Uiso   1.00
O26    O     0.43282   0.07142   0.54602   0.01267  Uiso   1.00
O27    O     0.33540   0.10760   0.49260   0.01267  Uiso   1.00
O28    O     0.33130   0.29250   0.68260   0.01267  Uiso   1.00
O29    O     0.50623   0.10483   0.36813   0.01267  Uiso   1.00
O30    O     0.59405   0.08015   0.43075   0.01267  Uiso   1.00
O31    O     0.44505   0.88175   0.42175   0.01267  Uiso   1.00
O32    O     0.32537   0.98007   0.43897   0.01267  Uiso   1.00
O33    O     0.54602   0.43282   0.07142   0.01267  Uiso   1.00
O34    O     0.49260   0.33540   0.10760   0.01267  Uiso   1.00
O35    O     0.68260   0.33130   0.29250   0.01267  Uiso   1.00
O36    O     0.36813   0.50623   0.10483   0.01267  Uiso   1.00
O37    O     0.43075   0.59405   0.08015   0.01267  Uiso   1.00
O38    O     0.42175   0.44505   0.88175   0.01267  Uiso   1.00
O39    O     0.43897   0.32537   0.98007   0.01267  Uiso   1.00
O40    O     0.07142   0.54602   0.43282   0.01267  Uiso   1.00
O41    O     0.10760   0.49260   0.33540   0.01267  Uiso   1.00
O42    O     0.29250   0.68260   0.33130   0.01267  Uiso   1.00
