data_image0
_cell_length_a       16.6304
_cell_length_b       12.4236
_cell_length_c       21.1103
_cell_angle_alpha    90
_cell_angle_beta     92.099
_cell_angle_gamma    90

_symmetry_space_group_name_H-M    "P 1"
_symmetry_int_tables_number       1

loop_
  _symmetry_equiv_pos_as_xyz
  'x, y, z'

loop_
  _atom_site_label
  _atom_site_occupancy
  _atom_site_fract_x
  _atom_site_fract_y
  _atom_site_fract_z
  _atom_site_thermal_displace_type
  _atom_site_B_iso_or_equiv
  _atom_site_type_symbol
  Cu1      1.0000 0.14678  0.26485  0.45167  Biso   1.000  Cu
  Cu2      1.0000 0.63868  0.78172  0.43907  Biso   1.000  Cu
  S1       1.0000 0.91056  0.03513  0.44861  Biso   1.000  S
  S2       1.0000 0.41821  0.52690  0.44184  Biso   1.000  S
  O1       1.0000 0.55243  0.67510  0.42346  Biso   1.000  O
  O2       1.0000 0.05481  0.16476  0.43887  Biso   1.000  O
  O3       1.0000 0.20159  0.40200  0.43667  Biso   1.000  O
  O4       1.0000 0.69182  0.92140  0.42529  Biso   1.000  O
  O5       1.0000 0.79984  0.85940  0.48009  Biso   1.000  O
  O6       1.0000 0.31558  0.34850  0.48681  Biso   1.000  O
  O7       1.0000 0.00566  0.28640  0.36966  Biso   1.000  O
  O8       1.0000 0.49143  0.78190  0.35054  Biso   1.000  O
  N1       1.0000 0.93625  0.46180  0.19508  Biso   1.000  N
  H1       1.0000 0.95940  0.40452  0.18187  Biso   1.000  H
  N2       1.0000 0.07985  0.65970  0.01334  Biso   1.000  N
  N3       1.0000 0.70410  0.71500  0.37115  Biso   1.000  N
  N4       1.0000 0.20457  0.19570  0.38026  Biso   1.000  N
  N5       1.0000 0.59033  0.17170  0.02649  Biso   1.000  N
  N6       1.0000 0.90329  0.63190  0.20244  Biso   1.000  N
  N7       1.0000 0.42839  0.95890  0.19092  Biso   1.000  N
  H2       1.0000 0.44996  0.90276  0.17480  Biso   1.000  H
  N8       1.0000 0.88347  0.46520  0.24285  Biso   1.000  N
  N9       1.0000 0.37400  0.95730  0.23703  Biso   1.000  N
  N10      1.0000 0.40105  0.12860  0.20748  Biso   1.000  N
  C1       1.0000 0.76590  0.92560  0.44461  Biso   1.000  C
  C2       1.0000 0.35946  0.06180  0.24511  Biso   1.000  C
  C3       1.0000 0.30243  0.10390  0.29057  Biso   1.000  C
  C4       1.0000 0.86561  0.56990  0.24491  Biso   1.000  C
  C5       1.0000 0.99587  0.59150  0.11807  Biso   1.000  C
  C6       1.0000 0.94677  0.56130  0.17160  Biso   1.000  C
  C7       1.0000 0.27690  0.40950  0.45141  Biso   1.000  C
  C8       1.0000 0.44385  0.06080  0.17395  Biso   1.000  C
  C9       1.0000 0.80850  0.61700  0.28866  Biso   1.000  C
  C10      1.0000 0.49820  0.09530  0.12442  Biso   1.000  C
  C11      1.0000 0.27030  0.04110  0.33802  Biso   1.000  C
  H3       1.0000 0.28106  0.96768  0.34034  Biso   1.000  H
  C12      1.0000 0.92330  0.14240  0.39865  Biso   1.000  C
  C13      1.0000 0.22170  0.09010  0.38196  Biso   1.000  C
  H4       1.0000 0.20024  0.04816  0.41368  Biso   1.000  H
  C14      1.0000 0.00020  0.20320  0.40166  Biso   1.000  C
  C15      1.0000 0.71590  0.60850  0.37207  Biso   1.000  C
  H5       1.0000 0.68830  0.56728  0.40094  Biso   1.000  H
  C16      1.0000 0.41970  0.63560  0.39160  Biso   1.000  C
  C17      1.0000 0.49350  0.70350  0.38703  Biso   1.000  C
  C18      1.0000 0.76740  0.55690  0.33201  Biso   1.000  C
  H6       1.0000 0.77430  0.48271  0.33423  Biso   1.000  H
  C19      1.0000 0.04430  0.52060  0.08571  Biso   1.000  C
  H7       1.0000 0.04931  0.44928  0.09860  Biso   1.000  H
  C20      1.0000 0.79380  0.72780  0.28546  Biso   1.000  C
  H8       1.0000 0.81884  0.77028  0.25572  Biso   1.000  H
  C21      1.0000 0.31902  0.50130  0.42176  Biso   1.000  C
  C22      1.0000 0.28040  0.21180  0.28709  Biso   1.000  C
  H9       1.0000 0.29812  0.25497  0.25440  Biso   1.000  H
  C23      1.0000 0.08500  0.55770  0.03402  Biso   1.000  C
  H10      1.0000 0.11730  0.50981  0.01265  Biso   1.000  H
  C24      1.0000 0.81378  0.01630  0.41970  Biso   1.000  C
  C25      1.0000 0.74170  0.77280  0.32706  Biso   1.000  C
  H11      1.0000 0.73199  0.84644  0.32466  Biso   1.000  H
  C26      1.0000 0.23220  0.25410  0.33252  Biso   1.000  C
  H12      1.0000 0.21827  0.32646  0.32988  Biso   1.000  H
  C27      1.0000 0.85570  0.16160  0.36130  Biso   1.000  C
  H13      1.0000 0.85173  0.21621  0.33120  Biso   1.000  H
  C28      1.0000 0.58350  0.06650  0.03736  Biso   1.000  C
  H14      1.0000 0.61014  0.01880  0.01145  Biso   1.000  H
  C29      1.0000 0.34670  0.65150  0.36100  Biso   1.000  C
  H15      1.0000 0.33609  0.70703  0.33234  Biso   1.000  H
  C30      1.0000 0.53820  0.02490  0.08568  Biso   1.000  C
  H16      1.0000 0.53487  0.95097  0.09191  Biso   1.000  H
  C31      1.0000 0.79250  0.08900  0.37367  Biso   1.000  C
  H17      1.0000 0.74233  0.09073  0.35281  Biso   1.000  H
  C32      1.0000 0.99190  0.69800  0.09758  Biso   1.000  C
  H18      1.0000 0.96107  0.74797  0.11878  Biso   1.000  H
  C33      1.0000 0.03410  0.72860  0.04562  Biso   1.000  C
  H19      1.0000 0.03079  0.79988  0.03224  Biso   1.000  H
  C34      1.0000 0.28930  0.57390  0.37802  Biso   1.000  C
  H20      1.0000 0.23680  0.57227  0.36128  Biso   1.000  H
  C35      1.0000 0.55450  0.23990  0.06630  Biso   1.000  C
  H21      1.0000 0.56115  0.31356  0.06050  Biso   1.000  H
  C36      1.0000 0.50860  0.20480  0.11512  Biso   1.000  C
  H22      1.0000 0.48461  0.25419  0.14165  Biso   1.000  H
  Cu3      1.0000 0.35322  0.76485  0.04833  Biso   1.000  Cu
  Cu4      1.0000 0.86132  0.28172  0.06093  Biso   1.000  Cu
  S3       1.0000 0.58944  0.53513  0.05139  Biso   1.000  S
  S4       1.0000 0.08179  0.02690  0.05816  Biso   1.000  S
  O9       1.0000 0.94757  0.17510  0.07654  Biso   1.000  O
  O10      1.0000 0.44519  0.66476  0.06113  Biso   1.000  O
  O11      1.0000 0.29841  0.90200  0.06333  Biso   1.000  O
  O12      1.0000 0.80818  0.42140  0.07471  Biso   1.000  O
  O13      1.0000 0.70016  0.35940  0.01991  Biso   1.000  O
  O14      1.0000 0.18442  0.84850  0.01319  Biso   1.000  O
  O15      1.0000 0.49434  0.78640  0.13034  Biso   1.000  O
  O16      1.0000 0.00857  0.28190  0.14946  Biso   1.000  O
  N11      1.0000 0.56375  0.96180  0.30492  Biso   1.000  N
  H23      1.0000 0.54060  0.90452  0.31813  Biso   1.000  H
  N12      1.0000 0.42015  0.15970  0.48666  Biso   1.000  N
  N13      1.0000 0.79590  0.21500  0.12885  Biso   1.000  N
  N14      1.0000 0.29543  0.69570  0.11974  Biso   1.000  N
  N15      1.0000 0.90967  0.67170  0.47351  Biso   1.000  N
  N16      1.0000 0.59671  0.13190  0.29756  Biso   1.000  N
  N17      1.0000 0.07161  0.45890  0.30908  Biso   1.000  N
  H24      1.0000 0.05004  0.40276  0.32520  Biso   1.000  H
  N18      1.0000 0.61653  0.96520  0.25715  Biso   1.000  N
  N19      1.0000 0.12600  0.45730  0.26297  Biso   1.000  N
  N20      1.0000 0.09895  0.62860  0.29252  Biso   1.000  N
  C37      1.0000 0.73410  0.42560  0.05539  Biso   1.000  C
  C38      1.0000 0.14054  0.56180  0.25489  Biso   1.000  C
  C39      1.0000 0.19757  0.60390  0.20943  Biso   1.000  C
  C40      1.0000 0.63439  0.06990  0.25509  Biso   1.000  C
  C41      1.0000 0.50413  0.09150  0.38193  Biso   1.000  C
  C42      1.0000 0.55323  0.06130  0.32840  Biso   1.000  C
  C43      1.0000 0.22310  0.90950  0.04859  Biso   1.000  C
  C44      1.0000 0.05615  0.56080  0.32605  Biso   1.000  C
  C45      1.0000 0.69150  0.11700  0.21134  Biso   1.000  C
  C46      1.0000 0.00180  0.59530  0.37558  Biso   1.000  C
  C47      1.0000 0.22970  0.54110  0.16198  Biso   1.000  C
  H25      1.0000 0.21894  0.46768  0.15966  Biso   1.000  H
  C48      1.0000 0.57670  0.64240  0.10135  Biso   1.000  C
  C49      1.0000 0.27830  0.59010  0.11804  Biso   1.000  C
  H26      1.0000 0.29976  0.54816  0.08632  Biso   1.000  H
  C50      1.0000 0.49980  0.70320  0.09834  Biso   1.000  C
  C51      1.0000 0.78410  0.10850  0.12793  Biso   1.000  C
  H27      1.0000 0.81170  0.06728  0.09906  Biso   1.000  H
  C52      1.0000 0.08030  0.13560  0.10840  Biso   1.000  C
  C53      1.0000 0.00650  0.20350  0.11297  Biso   1.000  C
  C54      1.0000 0.73260  0.05690  0.16799  Biso   1.000  C
  H28      1.0000 0.72570  0.98271  0.16577  Biso   1.000  H
  C55      1.0000 0.45570  0.02060  0.41429  Biso   1.000  C
  H29      1.0000 0.45069  0.94928  0.40140  Biso   1.000  H
  C56      1.0000 0.70620  0.22780  0.21454  Biso   1.000  C
  H30      1.0000 0.68116  0.27028  0.24428  Biso   1.000  H
  C57      1.0000 0.18098  0.00130  0.07824  Biso   1.000  C
  C58      1.0000 0.21960  0.71180  0.21291  Biso   1.000  C
  H31      1.0000 0.20188  0.75497  0.24560  Biso   1.000  H
  C59      1.0000 0.41500  0.05770  0.46598  Biso   1.000  C
  H32      1.0000 0.38270  0.00981  0.48735  Biso   1.000  H
  C60      1.0000 0.68622  0.51630  0.08030  Biso   1.000  C
  C61      1.0000 0.75830  0.27280  0.17294  Biso   1.000  C
  H33      1.0000 0.76801  0.34644  0.17534  Biso   1.000  H
  C62      1.0000 0.26780  0.75410  0.16748  Biso   1.000  C
  H34      1.0000 0.28173  0.82646  0.17012  Biso   1.000  H
  C63      1.0000 0.64430  0.66160  0.13870  Biso   1.000  C
  H35      1.0000 0.64827  0.71621  0.16880  Biso   1.000  H
  C64      1.0000 0.91650  0.56650  0.46264  Biso   1.000  C
  H36      1.0000 0.88986  0.51880  0.48855  Biso   1.000  H
  C65      1.0000 0.15330  0.15150  0.13900  Biso   1.000  C
  H37      1.0000 0.16391  0.20703  0.16766  Biso   1.000  H
  C66      1.0000 0.96180  0.52490  0.41432  Biso   1.000  C
  H38      1.0000 0.96513  0.45097  0.40809  Biso   1.000  H
  C67      1.0000 0.70750  0.58900  0.12633  Biso   1.000  C
  H39      1.0000 0.75767  0.59073  0.14719  Biso   1.000  H
  C68      1.0000 0.50810  0.19800  0.40242  Biso   1.000  C
  H40      1.0000 0.53893  0.24797  0.38122  Biso   1.000  H
  C69      1.0000 0.46590  0.22860  0.45438  Biso   1.000  C
  H41      1.0000 0.46921  0.29988  0.46776  Biso   1.000  H
  C70      1.0000 0.21070  0.07390  0.12198  Biso   1.000  C
  H42      1.0000 0.26320  0.07227  0.13872  Biso   1.000  H
  C71      1.0000 0.94550  0.73990  0.43370  Biso   1.000  C
  H43      1.0000 0.93885  0.81356  0.43950  Biso   1.000  H
  C72      1.0000 0.99140  0.70480  0.38488  Biso   1.000  C
  H44      1.0000 0.01539  0.75419  0.35835  Biso   1.000  H
  Cu5      1.0000 0.85322  0.73515  0.54833  Biso   1.000  Cu
  Cu6      1.0000 0.36132  0.21828  0.56093  Biso   1.000  Cu
  S5       1.0000 0.08944  0.96487  0.55139  Biso   1.000  S
  S6       1.0000 0.58179  0.47310  0.55816  Biso   1.000  S
  O17      1.0000 0.44757  0.32490  0.57654  Biso   1.000  O
  O18      1.0000 0.94519  0.83524  0.56113  Biso   1.000  O
  O19      1.0000 0.79841  0.59800  0.56333  Biso   1.000  O
  O20      1.0000 0.30818  0.07860  0.57471  Biso   1.000  O
  O21      1.0000 0.20016  0.14060  0.51991  Biso   1.000  O
  O22      1.0000 0.68442  0.65150  0.51319  Biso   1.000  O
  O23      1.0000 0.99434  0.71360  0.63034  Biso   1.000  O
  O24      1.0000 0.50857  0.21810  0.64946  Biso   1.000  O
  N21      1.0000 0.06375  0.53820  0.80492  Biso   1.000  N
  H45      1.0000 0.04060  0.59548  0.81813  Biso   1.000  H
  N22      1.0000 0.92015  0.34030  0.98666  Biso   1.000  N
  N23      1.0000 0.29590  0.28500  0.62885  Biso   1.000  N
  N24      1.0000 0.79543  0.80430  0.61974  Biso   1.000  N
  N25      1.0000 0.40967  0.82830  0.97351  Biso   1.000  N
  N26      1.0000 0.09671  0.36810  0.79756  Biso   1.000  N
  N27      1.0000 0.57161  0.04110  0.80908  Biso   1.000  N
  H46      1.0000 0.55004  0.09724  0.82520  Biso   1.000  H
  N28      1.0000 0.11653  0.53480  0.75715  Biso   1.000  N
  N29      1.0000 0.62600  0.04270  0.76297  Biso   1.000  N
  N30      1.0000 0.59895  0.87140  0.79252  Biso   1.000  N
  C73      1.0000 0.23410  0.07440  0.55539  Biso   1.000  C
  C74      1.0000 0.64054  0.93820  0.75489  Biso   1.000  C
  C75      1.0000 0.69757  0.89610  0.70943  Biso   1.000  C
  C76      1.0000 0.13439  0.43010  0.75509  Biso   1.000  C
  C77      1.0000 0.00413  0.40850  0.88193  Biso   1.000  C
  C78      1.0000 0.05323  0.43870  0.82840  Biso   1.000  C
  C79      1.0000 0.72310  0.59050  0.54859  Biso   1.000  C
  C80      1.0000 0.55615  0.93920  0.82605  Biso   1.000  C
  C81      1.0000 0.19150  0.38300  0.71134  Biso   1.000  C
  C82      1.0000 0.50180  0.90470  0.87558  Biso   1.000  C
  C83      1.0000 0.72970  0.95890  0.66198  Biso   1.000  C
  H47      1.0000 0.71894  0.03232  0.65966  Biso   1.000  H
  C84      1.0000 0.07670  0.85760  0.60135  Biso   1.000  C
  C85      1.0000 0.77830  0.90990  0.61804  Biso   1.000  C
  H48      1.0000 0.79976  0.95184  0.58632  Biso   1.000  H
  C86      1.0000 0.99980  0.79680  0.59834  Biso   1.000  C
  C87      1.0000 0.28410  0.39150  0.62793  Biso   1.000  C
  H49      1.0000 0.31170  0.43272  0.59906  Biso   1.000  H
  C88      1.0000 0.58030  0.36440  0.60840  Biso   1.000  C
  C89      1.0000 0.50650  0.29650  0.61297  Biso   1.000  C
  C90      1.0000 0.23260  0.44310  0.66799  Biso   1.000  C
  H50      1.0000 0.22570  0.51729  0.66577  Biso   1.000  H
  C91      1.0000 0.95570  0.47940  0.91429  Biso   1.000  C
  H51      1.0000 0.95069  0.55072  0.90140  Biso   1.000  H
  C92      1.0000 0.20620  0.27220  0.71454  Biso   1.000  C
  H52      1.0000 0.18116  0.22972  0.74428  Biso   1.000  H
  C93      1.0000 0.68098  0.49870  0.57824  Biso   1.000  C
  C94      1.0000 0.71960  0.78820  0.71291  Biso   1.000  C
  H53      1.0000 0.70188  0.74503  0.74560  Biso   1.000  H
  C95      1.0000 0.91500  0.44230  0.96598  Biso   1.000  C
  H54      1.0000 0.88270  0.49019  0.98735  Biso   1.000  H
  C96      1.0000 0.18622  0.98370  0.58030  Biso   1.000  C
  C97      1.0000 0.25830  0.22720  0.67294  Biso   1.000  C
  H55      1.0000 0.26801  0.15356  0.67534  Biso   1.000  H
  C98      1.0000 0.76780  0.74590  0.66748  Biso   1.000  C
  H56      1.0000 0.78173  0.67354  0.67012  Biso   1.000  H
  C99      1.0000 0.14430  0.83840  0.63870  Biso   1.000  C
  H57      1.0000 0.14827  0.78379  0.66880  Biso   1.000  H
  C100     1.0000 0.41650  0.93350  0.96264  Biso   1.000  C
  H58      1.0000 0.38986  0.98120  0.98855  Biso   1.000  H
  C101     1.0000 0.65330  0.34850  0.63900  Biso   1.000  C
  H59      1.0000 0.66391  0.29297  0.66766  Biso   1.000  H
  C102     1.0000 0.46180  0.97510  0.91432  Biso   1.000  C
  H60      1.0000 0.46513  0.04903  0.90809  Biso   1.000  H
  C103     1.0000 0.20750  0.91100  0.62633  Biso   1.000  C
  H61      1.0000 0.25767  0.90927  0.64719  Biso   1.000  H
  C104     1.0000 0.00810  0.30200  0.90242  Biso   1.000  C
  H62      1.0000 0.03893  0.25203  0.88122  Biso   1.000  H
  C105     1.0000 0.96590  0.27140  0.95438  Biso   1.000  C
  H63      1.0000 0.96921  0.20012  0.96776  Biso   1.000  H
  C106     1.0000 0.71070  0.42610  0.62198  Biso   1.000  C
  H64      1.0000 0.76320  0.42773  0.63872  Biso   1.000  H
  C107     1.0000 0.44550  0.76010  0.93370  Biso   1.000  C
  H65      1.0000 0.43885  0.68644  0.93950  Biso   1.000  H
  C108     1.0000 0.49140  0.79520  0.88488  Biso   1.000  C
  H66      1.0000 0.51539  0.74581  0.85835  Biso   1.000  H
  Cu7      1.0000 0.64678  0.23515  0.95167  Biso   1.000  Cu
  Cu8      1.0000 0.13868  0.71828  0.93907  Biso   1.000  Cu
  S7       1.0000 0.41056  0.46487  0.94861  Biso   1.000  S
  S8       1.0000 0.91821  0.97310  0.94184  Biso   1.000  S
  O25      1.0000 0.05243  0.82490  0.92346  Biso   1.000  O
  O26      1.0000 0.55481  0.33524  0.93887  Biso   1.000  O
  O27      1.0000 0.70159  0.09800  0.93667  Biso   1.000  O
  O28      1.0000 0.19182  0.57860  0.92529  Biso   1.000  O
  O29      1.0000 0.29984  0.64060  0.98009  Biso   1.000  O
  O30      1.0000 0.81558  0.15150  0.98681  Biso   1.000  O
  O31      1.0000 0.50566  0.21360  0.86966  Biso   1.000  O
  O32      1.0000 0.99143  0.71810  0.85054  Biso   1.000  O
  N31      1.0000 0.43625  0.03820  0.69508  Biso   1.000  N
  H67      1.0000 0.45940  0.09548  0.68187  Biso   1.000  H
  N32      1.0000 0.57985  0.84030  0.51334  Biso   1.000  N
  N33      1.0000 0.20410  0.78500  0.87115  Biso   1.000  N
  N34      1.0000 0.70457  0.30430  0.88026  Biso   1.000  N
  N35      1.0000 0.09033  0.32830  0.52649  Biso   1.000  N
  N36      1.0000 0.40329  0.86810  0.70244  Biso   1.000  N
  N37      1.0000 0.92839  0.54110  0.69092  Biso   1.000  N
  H68      1.0000 0.94996  0.59724  0.67480  Biso   1.000  H
  N38      1.0000 0.38347  0.03480  0.74285  Biso   1.000  N
  N39      1.0000 0.87400  0.54270  0.73703  Biso   1.000  N
  N40      1.0000 0.90105  0.37140  0.70748  Biso   1.000  N
  C109     1.0000 0.26590  0.57440  0.94461  Biso   1.000  C
  C110     1.0000 0.85946  0.43820  0.74511  Biso   1.000  C
  C111     1.0000 0.80243  0.39610  0.79057  Biso   1.000  C
  C112     1.0000 0.36561  0.93010  0.74491  Biso   1.000  C
  C113     1.0000 0.49587  0.90850  0.61807  Biso   1.000  C
  C114     1.0000 0.44677  0.93870  0.67160  Biso   1.000  C
  C115     1.0000 0.77690  0.09050  0.95141  Biso   1.000  C
  C116     1.0000 0.94385  0.43920  0.67395  Biso   1.000  C
  C117     1.0000 0.30850  0.88300  0.78866  Biso   1.000  C
  C118     1.0000 0.99820  0.40470  0.62442  Biso   1.000  C
  C119     1.0000 0.77030  0.45890  0.83802  Biso   1.000  C
  H69      1.0000 0.78106  0.53232  0.84034  Biso   1.000  H
  C120     1.0000 0.42330  0.35760  0.89865  Biso   1.000  C
  C121     1.0000 0.72170  0.40990  0.88196  Biso   1.000  C
  H70      1.0000 0.70024  0.45184  0.91368  Biso   1.000  H
  C122     1.0000 0.50020  0.29680  0.90166  Biso   1.000  C
  C123     1.0000 0.21590  0.89150  0.87207  Biso   1.000  C
  H71      1.0000 0.18830  0.93272  0.90094  Biso   1.000  H
  C124     1.0000 0.91970  0.86440  0.89160  Biso   1.000  C
  C125     1.0000 0.99350  0.79650  0.88703  Biso   1.000  C
  C126     1.0000 0.26740  0.94310  0.83201  Biso   1.000  C
  H72      1.0000 0.27430  0.01729  0.83423  Biso   1.000  H
  C127     1.0000 0.54430  0.97940  0.58571  Biso   1.000  C
  H73      1.0000 0.54931  0.05072  0.59860  Biso   1.000  H
  C128     1.0000 0.29380  0.77220  0.78546  Biso   1.000  C
  H74      1.0000 0.31884  0.72972  0.75572  Biso   1.000  H
  C129     1.0000 0.81902  0.99870  0.92176  Biso   1.000  C
  C130     1.0000 0.78040  0.28820  0.78709  Biso   1.000  C
  H75      1.0000 0.79812  0.24503  0.75440  Biso   1.000  H
  C131     1.0000 0.58500  0.94230  0.53402  Biso   1.000  C
  H76      1.0000 0.61730  0.99019  0.51265  Biso   1.000  H
  C132     1.0000 0.31378  0.48370  0.91970  Biso   1.000  C
  C133     1.0000 0.24170  0.72720  0.82706  Biso   1.000  C
  H77      1.0000 0.23199  0.65356  0.82466  Biso   1.000  H
  C134     1.0000 0.73220  0.24590  0.83252  Biso   1.000  C
  H78      1.0000 0.71827  0.17354  0.82988  Biso   1.000  H
  C135     1.0000 0.35570  0.33840  0.86130  Biso   1.000  C
  H79      1.0000 0.35173  0.28379  0.83120  Biso   1.000  H
  C136     1.0000 0.08350  0.43350  0.53736  Biso   1.000  C
  H80      1.0000 0.11014  0.48120  0.51145  Biso   1.000  H
  C137     1.0000 0.84670  0.84850  0.86100  Biso   1.000  C
  H81      1.0000 0.83609  0.79297  0.83234  Biso   1.000  H
  C138     1.0000 0.03820  0.47510  0.58568  Biso   1.000  C
  H82      1.0000 0.03487  0.54903  0.59191  Biso   1.000  H
  C139     1.0000 0.29250  0.41100  0.87367  Biso   1.000  C
  H83      1.0000 0.24233  0.40927  0.85281  Biso   1.000  H
  C140     1.0000 0.49190  0.80200  0.59758  Biso   1.000  C
  H84      1.0000 0.46107  0.75203  0.61878  Biso   1.000  H
  C141     1.0000 0.53410  0.77140  0.54562  Biso   1.000  C
  H85      1.0000 0.53079  0.70012  0.53224  Biso   1.000  H
  C142     1.0000 0.78930  0.92610  0.87802  Biso   1.000  C
  H86      1.0000 0.73680  0.92773  0.86128  Biso   1.000  H
  C143     1.0000 0.05450  0.26010  0.56630  Biso   1.000  C
  H87      1.0000 0.06115  0.18644  0.56050  Biso   1.000  H
  C144     1.0000 0.00860  0.29520  0.61512  Biso   1.000  C
  H88      1.0000 0.98461  0.24581  0.64165  Biso   1.000  H
