data_image0
_cell_length_a       30.174
_cell_length_b       9.9839
_cell_length_c       14.099
_cell_angle_alpha    90
_cell_angle_beta     97.353
_cell_angle_gamma    90

_symmetry_space_group_name_H-M    "P 1"
_symmetry_int_tables_number       1

loop_
  _symmetry_equiv_pos_as_xyz
  'x, y, z'

loop_
  _atom_site_label
  _atom_site_occupancy
  _atom_site_fract_x
  _atom_site_fract_y
  _atom_site_fract_z
  _atom_site_thermal_displace_type
  _atom_site_B_iso_or_equiv
  _atom_site_type_symbol
  O1       1.0000 0.95055  0.58930  0.10540  Biso   1.000  O
  O2       1.0000 0.91890  0.71850  0.19390  Biso   1.000  O
  O3       1.0000 0.53090  0.80560  0.09590  Biso   1.000  O
  O4       1.0000 0.53300  0.98160  0.17740  Biso   1.000  O
  O5       1.0000 0.06700  0.63960  0.00790  Biso   1.000  O
  O6       1.0000 0.02540  0.73030  0.09910  Biso   1.000  O
  C1       1.0000 0.91710  0.65900  0.11940  Biso   1.000  C
  C2       1.0000 0.87800  0.65730  0.04290  Biso   1.000  C
  H1       1.0000 0.87730  0.56970  0.00980  Biso   1.000  H
  H2       1.0000 0.88240  0.72730  0.99540  Biso   1.000  H
  C3       1.0000 0.83310  0.67990  0.07740  Biso   1.000  C
  C4       1.0000 0.81840  0.80290  0.09780  Biso   1.000  C
  H3       1.0000 0.83720  0.87810  0.09210  Biso   1.000  H
  C5       1.0000 0.77700  0.82230  0.12670  Biso   1.000  C
  H4       1.0000 0.76790  0.91070  0.13980  Biso   1.000  H
  C6       1.0000 0.74860  0.71790  0.13720  Biso   1.000  C
  C7       1.0000 0.76360  0.59530  0.11640  Biso   1.000  C
  H5       1.0000 0.74490  0.51980  0.12120  Biso   1.000  H
  C8       1.0000 0.80520  0.57620  0.08840  Biso   1.000  C
  H6       1.0000 0.81470  0.48780  0.07650  Biso   1.000  H
  C9       1.0000 0.70400  0.73720  0.16950  Biso   1.000  C
  C10      1.0000 0.68840  0.86220  0.18990  Biso   1.000  C
  H7       1.0000 0.70680  0.93820  0.18450  Biso   1.000  H
  C11      1.0000 0.64640  0.87990  0.21780  Biso   1.000  C
  H8       1.0000 0.63700  0.96780  0.23160  Biso   1.000  H
  C12      1.0000 0.61830  0.77540  0.22630  Biso   1.000  C
  C13      1.0000 0.63360  0.65350  0.20630  Biso   1.000  C
  H9       1.0000 0.61510  0.57790  0.21200  Biso   1.000  H
  C14      1.0000 0.67540  0.63350  0.17770  Biso   1.000  C
  H10      1.0000 0.68430  0.54520  0.16340  Biso   1.000  H
  C15      1.0000 0.57190  0.79590  0.25460  Biso   1.000  C
  H11      1.0000 0.55880  0.70860  0.26940  Biso   1.000  H
  H12      1.0000 0.57350  0.85340  0.31210  Biso   1.000  H
  C16      1.0000 0.54340  0.86160  0.17200  Biso   1.000  C
  C17      1.0000 0.06240  0.72400  0.06630  Biso   1.000  C
  C18      1.0000 0.09580  0.82800  0.09280  Biso   1.000  C
  H13      1.0000 0.09880  0.84030  0.16300  Biso   1.000  H
  H14      1.0000 0.08460  0.91330  0.06300  Biso   1.000  H
  C19      1.0000 0.14130  0.80170  0.06490  Biso   1.000  C
  C20      1.0000 0.17480  0.74990  0.12800  Biso   1.000  C
  H15      1.0000 0.16900  0.72770  0.19070  Biso   1.000  H
  C21      1.0000 0.21700  0.72870  0.10360  Biso   1.000  C
  H16      1.0000 0.23940  0.69150  0.14940  Biso   1.000  H
  C22      1.0000 0.22710  0.76070  0.01330  Biso   1.000  C
  C23      1.0000 0.19320  0.81280  0.94980  Biso   1.000  C
  H17      1.0000 0.19890  0.83570  0.88700  Biso   1.000  H
  C24      1.0000 0.15080  0.83240  0.97570  Biso   1.000  C
  H18      1.0000 0.12790  0.86810  0.93010  Biso   1.000  H
  O7       1.0000 0.45055  0.08930  0.10540  Biso   1.000  O
  O8       1.0000 0.41890  0.21850  0.19390  Biso   1.000  O
  O9       1.0000 0.03090  0.30560  0.09590  Biso   1.000  O
  O10      1.0000 0.03300  0.48160  0.17740  Biso   1.000  O
  O11      1.0000 0.56700  0.13960  0.00790  Biso   1.000  O
  O12      1.0000 0.52540  0.23030  0.09910  Biso   1.000  O
  C25      1.0000 0.41710  0.15900  0.11940  Biso   1.000  C
  C26      1.0000 0.37800  0.15730  0.04290  Biso   1.000  C
  H19      1.0000 0.37730  0.06970  0.00980  Biso   1.000  H
  H20      1.0000 0.38240  0.22730  0.99540  Biso   1.000  H
  C27      1.0000 0.33310  0.17990  0.07740  Biso   1.000  C
  C28      1.0000 0.31840  0.30290  0.09780  Biso   1.000  C
  H21      1.0000 0.33720  0.37810  0.09210  Biso   1.000  H
  C29      1.0000 0.27700  0.32230  0.12670  Biso   1.000  C
  H22      1.0000 0.26790  0.41070  0.13980  Biso   1.000  H
  C30      1.0000 0.24860  0.21790  0.13720  Biso   1.000  C
  C31      1.0000 0.26360  0.09530  0.11640  Biso   1.000  C
  H23      1.0000 0.24490  0.01980  0.12120  Biso   1.000  H
  C32      1.0000 0.30520  0.07620  0.08840  Biso   1.000  C
  H24      1.0000 0.31470  0.98780  0.07650  Biso   1.000  H
  C33      1.0000 0.20400  0.23720  0.16950  Biso   1.000  C
  C34      1.0000 0.18840  0.36220  0.18990  Biso   1.000  C
  H25      1.0000 0.20680  0.43820  0.18450  Biso   1.000  H
  C35      1.0000 0.14640  0.37990  0.21780  Biso   1.000  C
  H26      1.0000 0.13700  0.46780  0.23160  Biso   1.000  H
  C36      1.0000 0.11830  0.27540  0.22630  Biso   1.000  C
  C37      1.0000 0.13360  0.15350  0.20630  Biso   1.000  C
  H27      1.0000 0.11510  0.07790  0.21200  Biso   1.000  H
  C38      1.0000 0.17540  0.13350  0.17770  Biso   1.000  C
  H28      1.0000 0.18430  0.04520  0.16340  Biso   1.000  H
  C39      1.0000 0.07190  0.29590  0.25460  Biso   1.000  C
  H29      1.0000 0.05880  0.20860  0.26940  Biso   1.000  H
  H30      1.0000 0.07350  0.35340  0.31210  Biso   1.000  H
  C40      1.0000 0.04340  0.36160  0.17200  Biso   1.000  C
  C41      1.0000 0.56240  0.22400  0.06630  Biso   1.000  C
  C42      1.0000 0.59580  0.32800  0.09280  Biso   1.000  C
  H31      1.0000 0.59880  0.34030  0.16300  Biso   1.000  H
  H32      1.0000 0.58460  0.41330  0.06300  Biso   1.000  H
  C43      1.0000 0.64130  0.30170  0.06490  Biso   1.000  C
  C44      1.0000 0.67480  0.24990  0.12800  Biso   1.000  C
  H33      1.0000 0.66900  0.22770  0.19070  Biso   1.000  H
  C45      1.0000 0.71700  0.22870  0.10360  Biso   1.000  C
  H34      1.0000 0.73940  0.19150  0.14940  Biso   1.000  H
  C46      1.0000 0.72710  0.26070  0.01330  Biso   1.000  C
  C47      1.0000 0.69320  0.31280  0.94980  Biso   1.000  C
  H35      1.0000 0.69890  0.33570  0.88700  Biso   1.000  H
  C48      1.0000 0.65080  0.33240  0.97570  Biso   1.000  C
  H36      1.0000 0.62790  0.36810  0.93010  Biso   1.000  H
  O13      1.0000 0.04945  0.58930  0.39460  Biso   1.000  O
  O14      1.0000 0.08110  0.71850  0.30610  Biso   1.000  O
  O15      1.0000 0.46910  0.80560  0.40410  Biso   1.000  O
  O16      1.0000 0.46700  0.98160  0.32260  Biso   1.000  O
  O17      1.0000 0.93300  0.63960  0.49210  Biso   1.000  O
  O18      1.0000 0.97460  0.73030  0.40090  Biso   1.000  O
  C49      1.0000 0.08290  0.65900  0.38060  Biso   1.000  C
  C50      1.0000 0.12200  0.65730  0.45710  Biso   1.000  C
  H37      1.0000 0.12270  0.56970  0.49020  Biso   1.000  H
  H38      1.0000 0.11760  0.72730  0.50460  Biso   1.000  H
  C51      1.0000 0.16690  0.67990  0.42260  Biso   1.000  C
  C52      1.0000 0.18160  0.80290  0.40220  Biso   1.000  C
  H39      1.0000 0.16280  0.87810  0.40790  Biso   1.000  H
  C53      1.0000 0.22300  0.82230  0.37330  Biso   1.000  C
  H40      1.0000 0.23210  0.91070  0.36020  Biso   1.000  H
  C54      1.0000 0.25140  0.71790  0.36280  Biso   1.000  C
  C55      1.0000 0.23640  0.59530  0.38360  Biso   1.000  C
  H41      1.0000 0.25510  0.51980  0.37880  Biso   1.000  H
  C56      1.0000 0.19480  0.57620  0.41160  Biso   1.000  C
  H42      1.0000 0.18530  0.48780  0.42350  Biso   1.000  H
  C57      1.0000 0.29600  0.73720  0.33050  Biso   1.000  C
  C58      1.0000 0.31160  0.86220  0.31010  Biso   1.000  C
  H43      1.0000 0.29320  0.93820  0.31550  Biso   1.000  H
  C59      1.0000 0.35360  0.87990  0.28220  Biso   1.000  C
  H44      1.0000 0.36300  0.96780  0.26840  Biso   1.000  H
  C60      1.0000 0.38170  0.77540  0.27370  Biso   1.000  C
  C61      1.0000 0.36640  0.65350  0.29370  Biso   1.000  C
  H45      1.0000 0.38490  0.57790  0.28800  Biso   1.000  H
  C62      1.0000 0.32460  0.63350  0.32230  Biso   1.000  C
  H46      1.0000 0.31570  0.54520  0.33660  Biso   1.000  H
  C63      1.0000 0.42810  0.79590  0.24540  Biso   1.000  C
  H47      1.0000 0.44120  0.70860  0.23060  Biso   1.000  H
  H48      1.0000 0.42650  0.85340  0.18790  Biso   1.000  H
  C64      1.0000 0.45660  0.86160  0.32800  Biso   1.000  C
  C65      1.0000 0.93760  0.72400  0.43370  Biso   1.000  C
  C66      1.0000 0.90420  0.82800  0.40720  Biso   1.000  C
  H49      1.0000 0.90120  0.84030  0.33700  Biso   1.000  H
  H50      1.0000 0.91540  0.91330  0.43700  Biso   1.000  H
  C67      1.0000 0.85870  0.80170  0.43510  Biso   1.000  C
  C68      1.0000 0.82520  0.74990  0.37200  Biso   1.000  C
  H51      1.0000 0.83100  0.72770  0.30930  Biso   1.000  H
  C69      1.0000 0.78300  0.72870  0.39640  Biso   1.000  C
  H52      1.0000 0.76060  0.69150  0.35060  Biso   1.000  H
  C70      1.0000 0.77290  0.76070  0.48670  Biso   1.000  C
  C71      1.0000 0.80680  0.81280  0.55020  Biso   1.000  C
  H53      1.0000 0.80110  0.83570  0.61300  Biso   1.000  H
  C72      1.0000 0.84920  0.83240  0.52430  Biso   1.000  C
  H54      1.0000 0.87210  0.86810  0.56990  Biso   1.000  H
  O19      1.0000 0.54945  0.08930  0.39460  Biso   1.000  O
  O20      1.0000 0.58110  0.21850  0.30610  Biso   1.000  O
  O21      1.0000 0.96910  0.30560  0.40410  Biso   1.000  O
  O22      1.0000 0.96700  0.48160  0.32260  Biso   1.000  O
  O23      1.0000 0.43300  0.13960  0.49210  Biso   1.000  O
  O24      1.0000 0.47460  0.23030  0.40090  Biso   1.000  O
  C73      1.0000 0.58290  0.15900  0.38060  Biso   1.000  C
  C74      1.0000 0.62200  0.15730  0.45710  Biso   1.000  C
  H55      1.0000 0.62270  0.06970  0.49020  Biso   1.000  H
  H56      1.0000 0.61760  0.22730  0.50460  Biso   1.000  H
  C75      1.0000 0.66690  0.17990  0.42260  Biso   1.000  C
  C76      1.0000 0.68160  0.30290  0.40220  Biso   1.000  C
  H57      1.0000 0.66280  0.37810  0.40790  Biso   1.000  H
  C77      1.0000 0.72300  0.32230  0.37330  Biso   1.000  C
  H58      1.0000 0.73210  0.41070  0.36020  Biso   1.000  H
  C78      1.0000 0.75140  0.21790  0.36280  Biso   1.000  C
  C79      1.0000 0.73640  0.09530  0.38360  Biso   1.000  C
  H59      1.0000 0.75510  0.01980  0.37880  Biso   1.000  H
  C80      1.0000 0.69480  0.07620  0.41160  Biso   1.000  C
  H60      1.0000 0.68530  0.98780  0.42350  Biso   1.000  H
  C81      1.0000 0.79600  0.23720  0.33050  Biso   1.000  C
  C82      1.0000 0.81160  0.36220  0.31010  Biso   1.000  C
  H61      1.0000 0.79320  0.43820  0.31550  Biso   1.000  H
  C83      1.0000 0.85360  0.37990  0.28220  Biso   1.000  C
  H62      1.0000 0.86300  0.46780  0.26840  Biso   1.000  H
  C84      1.0000 0.88170  0.27540  0.27370  Biso   1.000  C
  C85      1.0000 0.86640  0.15350  0.29370  Biso   1.000  C
  H63      1.0000 0.88490  0.07790  0.28800  Biso   1.000  H
  C86      1.0000 0.82460  0.13350  0.32230  Biso   1.000  C
  H64      1.0000 0.81570  0.04520  0.33660  Biso   1.000  H
  C87      1.0000 0.92810  0.29590  0.24540  Biso   1.000  C
  H65      1.0000 0.94120  0.20860  0.23060  Biso   1.000  H
  H66      1.0000 0.92650  0.35340  0.18790  Biso   1.000  H
  C88      1.0000 0.95660  0.36160  0.32800  Biso   1.000  C
  C89      1.0000 0.43760  0.22400  0.43370  Biso   1.000  C
  C90      1.0000 0.40420  0.32800  0.40720  Biso   1.000  C
  H67      1.0000 0.40120  0.34030  0.33700  Biso   1.000  H
  H68      1.0000 0.41540  0.41330  0.43700  Biso   1.000  H
  C91      1.0000 0.35870  0.30170  0.43510  Biso   1.000  C
  C92      1.0000 0.32520  0.24990  0.37200  Biso   1.000  C
  H69      1.0000 0.33100  0.22770  0.30930  Biso   1.000  H
  C93      1.0000 0.28300  0.22870  0.39640  Biso   1.000  C
  H70      1.0000 0.26060  0.19150  0.35060  Biso   1.000  H
  C94      1.0000 0.27290  0.26070  0.48670  Biso   1.000  C
  C95      1.0000 0.30680  0.31280  0.55020  Biso   1.000  C
  H71      1.0000 0.30110  0.33570  0.61300  Biso   1.000  H
  C96      1.0000 0.34920  0.33240  0.52430  Biso   1.000  C
  H72      1.0000 0.37210  0.36810  0.56990  Biso   1.000  H
  O25      1.0000 0.04945  0.41070  0.89460  Biso   1.000  O
  O26      1.0000 0.08110  0.28150  0.80610  Biso   1.000  O
  O27      1.0000 0.46910  0.19440  0.90410  Biso   1.000  O
  O28      1.0000 0.46700  0.01840  0.82260  Biso   1.000  O
  O29      1.0000 0.93300  0.36040  0.99210  Biso   1.000  O
  O30      1.0000 0.97460  0.26970  0.90090  Biso   1.000  O
  C97      1.0000 0.08290  0.34100  0.88060  Biso   1.000  C
  C98      1.0000 0.12200  0.34270  0.95710  Biso   1.000  C
  H73      1.0000 0.12270  0.43030  0.99020  Biso   1.000  H
  H74      1.0000 0.11760  0.27270  0.00460  Biso   1.000  H
  C99      1.0000 0.16690  0.32010  0.92260  Biso   1.000  C
  C100     1.0000 0.18160  0.19710  0.90220  Biso   1.000  C
  H75      1.0000 0.16280  0.12190  0.90790  Biso   1.000  H
  C101     1.0000 0.22300  0.17770  0.87330  Biso   1.000  C
  H76      1.0000 0.23210  0.08930  0.86020  Biso   1.000  H
  C102     1.0000 0.25140  0.28210  0.86280  Biso   1.000  C
  C103     1.0000 0.23640  0.40470  0.88360  Biso   1.000  C
  H77      1.0000 0.25510  0.48020  0.87880  Biso   1.000  H
  C104     1.0000 0.19480  0.42380  0.91160  Biso   1.000  C
  H78      1.0000 0.18530  0.51220  0.92350  Biso   1.000  H
  C105     1.0000 0.29600  0.26280  0.83050  Biso   1.000  C
  C106     1.0000 0.31160  0.13780  0.81010  Biso   1.000  C
  H79      1.0000 0.29320  0.06180  0.81550  Biso   1.000  H
  C107     1.0000 0.35360  0.12010  0.78220  Biso   1.000  C
  H80      1.0000 0.36300  0.03220  0.76840  Biso   1.000  H
  C108     1.0000 0.38170  0.22460  0.77370  Biso   1.000  C
  C109     1.0000 0.36640  0.34650  0.79370  Biso   1.000  C
  H81      1.0000 0.38490  0.42210  0.78800  Biso   1.000  H
  C110     1.0000 0.32460  0.36650  0.82230  Biso   1.000  C
  H82      1.0000 0.31570  0.45480  0.83660  Biso   1.000  H
  C111     1.0000 0.42810  0.20410  0.74540  Biso   1.000  C
  H83      1.0000 0.44120  0.29140  0.73060  Biso   1.000  H
  H84      1.0000 0.42650  0.14660  0.68790  Biso   1.000  H
  C112     1.0000 0.45660  0.13840  0.82800  Biso   1.000  C
  C113     1.0000 0.93760  0.27600  0.93370  Biso   1.000  C
  C114     1.0000 0.90420  0.17200  0.90720  Biso   1.000  C
  H85      1.0000 0.90120  0.15970  0.83700  Biso   1.000  H
  H86      1.0000 0.91540  0.08670  0.93700  Biso   1.000  H
  C115     1.0000 0.85870  0.19830  0.93510  Biso   1.000  C
  C116     1.0000 0.82520  0.25010  0.87200  Biso   1.000  C
  H87      1.0000 0.83100  0.27230  0.80930  Biso   1.000  H
  C117     1.0000 0.78300  0.27130  0.89640  Biso   1.000  C
  H88      1.0000 0.76060  0.30850  0.85060  Biso   1.000  H
  C118     1.0000 0.77290  0.23930  0.98670  Biso   1.000  C
  C119     1.0000 0.80680  0.18720  0.05020  Biso   1.000  C
  H89      1.0000 0.80110  0.16430  0.11300  Biso   1.000  H
  C120     1.0000 0.84920  0.16760  0.02430  Biso   1.000  C
  H90      1.0000 0.87210  0.13190  0.06990  Biso   1.000  H
  O31      1.0000 0.54945  0.91070  0.89460  Biso   1.000  O
  O32      1.0000 0.58110  0.78150  0.80610  Biso   1.000  O
  O33      1.0000 0.96910  0.69440  0.90410  Biso   1.000  O
  O34      1.0000 0.96700  0.51840  0.82260  Biso   1.000  O
  O35      1.0000 0.43300  0.86040  0.99210  Biso   1.000  O
  O36      1.0000 0.47460  0.76970  0.90090  Biso   1.000  O
  C121     1.0000 0.58290  0.84100  0.88060  Biso   1.000  C
  C122     1.0000 0.62200  0.84270  0.95710  Biso   1.000  C
  H91      1.0000 0.62270  0.93030  0.99020  Biso   1.000  H
  H92      1.0000 0.61760  0.77270  0.00460  Biso   1.000  H
  C123     1.0000 0.66690  0.82010  0.92260  Biso   1.000  C
  C124     1.0000 0.68160  0.69710  0.90220  Biso   1.000  C
  H93      1.0000 0.66280  0.62190  0.90790  Biso   1.000  H
  C125     1.0000 0.72300  0.67770  0.87330  Biso   1.000  C
  H94      1.0000 0.73210  0.58930  0.86020  Biso   1.000  H
  C126     1.0000 0.75140  0.78210  0.86280  Biso   1.000  C
  C127     1.0000 0.73640  0.90470  0.88360  Biso   1.000  C
  H95      1.0000 0.75510  0.98020  0.87880  Biso   1.000  H
  C128     1.0000 0.69480  0.92380  0.91160  Biso   1.000  C
  H96      1.0000 0.68530  0.01220  0.92350  Biso   1.000  H
  C129     1.0000 0.79600  0.76280  0.83050  Biso   1.000  C
  C130     1.0000 0.81160  0.63780  0.81010  Biso   1.000  C
  H97      1.0000 0.79320  0.56180  0.81550  Biso   1.000  H
  C131     1.0000 0.85360  0.62010  0.78220  Biso   1.000  C
  H98      1.0000 0.86300  0.53220  0.76840  Biso   1.000  H
  C132     1.0000 0.88170  0.72460  0.77370  Biso   1.000  C
  C133     1.0000 0.86640  0.84650  0.79370  Biso   1.000  C
  H99      1.0000 0.88490  0.92210  0.78800  Biso   1.000  H
  C134     1.0000 0.82460  0.86650  0.82230  Biso   1.000  C
  H100     1.0000 0.81570  0.95480  0.83660  Biso   1.000  H
  C135     1.0000 0.92810  0.70410  0.74540  Biso   1.000  C
  H101     1.0000 0.94120  0.79140  0.73060  Biso   1.000  H
  H102     1.0000 0.92650  0.64660  0.68790  Biso   1.000  H
  C136     1.0000 0.95660  0.63840  0.82800  Biso   1.000  C
  C137     1.0000 0.43760  0.77600  0.93370  Biso   1.000  C
  C138     1.0000 0.40420  0.67200  0.90720  Biso   1.000  C
  H103     1.0000 0.40120  0.65970  0.83700  Biso   1.000  H
  H104     1.0000 0.41540  0.58670  0.93700  Biso   1.000  H
  C139     1.0000 0.35870  0.69830  0.93510  Biso   1.000  C
  C140     1.0000 0.32520  0.75010  0.87200  Biso   1.000  C
  H105     1.0000 0.33100  0.77230  0.80930  Biso   1.000  H
  C141     1.0000 0.28300  0.77130  0.89640  Biso   1.000  C
  H106     1.0000 0.26060  0.80850  0.85060  Biso   1.000  H
  C142     1.0000 0.27290  0.73930  0.98670  Biso   1.000  C
  C143     1.0000 0.30680  0.68720  0.05020  Biso   1.000  C
  H107     1.0000 0.30110  0.66430  0.11300  Biso   1.000  H
  C144     1.0000 0.34920  0.66760  0.02430  Biso   1.000  C
  H108     1.0000 0.37210  0.63190  0.06990  Biso   1.000  H
  O37      1.0000 0.95055  0.41070  0.60540  Biso   1.000  O
  O38      1.0000 0.91890  0.28150  0.69390  Biso   1.000  O
  O39      1.0000 0.53090  0.19440  0.59590  Biso   1.000  O
  O40      1.0000 0.53300  0.01840  0.67740  Biso   1.000  O
  O41      1.0000 0.06700  0.36040  0.50790  Biso   1.000  O
  O42      1.0000 0.02540  0.26970  0.59910  Biso   1.000  O
  C145     1.0000 0.91710  0.34100  0.61940  Biso   1.000  C
  C146     1.0000 0.87800  0.34270  0.54290  Biso   1.000  C
  H109     1.0000 0.87730  0.43030  0.50980  Biso   1.000  H
  H110     1.0000 0.88240  0.27270  0.49540  Biso   1.000  H
  C147     1.0000 0.83310  0.32010  0.57740  Biso   1.000  C
  C148     1.0000 0.81840  0.19710  0.59780  Biso   1.000  C
  H111     1.0000 0.83720  0.12190  0.59210  Biso   1.000  H
  C149     1.0000 0.77700  0.17770  0.62670  Biso   1.000  C
  H112     1.0000 0.76790  0.08930  0.63980  Biso   1.000  H
  C150     1.0000 0.74860  0.28210  0.63720  Biso   1.000  C
  C151     1.0000 0.76360  0.40470  0.61640  Biso   1.000  C
  H113     1.0000 0.74490  0.48020  0.62120  Biso   1.000  H
  C152     1.0000 0.80520  0.42380  0.58840  Biso   1.000  C
  H114     1.0000 0.81470  0.51220  0.57650  Biso   1.000  H
  C153     1.0000 0.70400  0.26280  0.66950  Biso   1.000  C
  C154     1.0000 0.68840  0.13780  0.68990  Biso   1.000  C
  H115     1.0000 0.70680  0.06180  0.68450  Biso   1.000  H
  C155     1.0000 0.64640  0.12010  0.71780  Biso   1.000  C
  H116     1.0000 0.63700  0.03220  0.73160  Biso   1.000  H
  C156     1.0000 0.61830  0.22460  0.72630  Biso   1.000  C
  C157     1.0000 0.63360  0.34650  0.70630  Biso   1.000  C
  H117     1.0000 0.61510  0.42210  0.71200  Biso   1.000  H
  C158     1.0000 0.67540  0.36650  0.67770  Biso   1.000  C
  H118     1.0000 0.68430  0.45480  0.66340  Biso   1.000  H
  C159     1.0000 0.57190  0.20410  0.75460  Biso   1.000  C
  H119     1.0000 0.55880  0.29140  0.76940  Biso   1.000  H
  H120     1.0000 0.57350  0.14660  0.81210  Biso   1.000  H
  C160     1.0000 0.54340  0.13840  0.67200  Biso   1.000  C
  C161     1.0000 0.06240  0.27600  0.56630  Biso   1.000  C
  C162     1.0000 0.09580  0.17200  0.59280  Biso   1.000  C
  H121     1.0000 0.09880  0.15970  0.66300  Biso   1.000  H
  H122     1.0000 0.08460  0.08670  0.56300  Biso   1.000  H
  C163     1.0000 0.14130  0.19830  0.56490  Biso   1.000  C
  C164     1.0000 0.17480  0.25010  0.62800  Biso   1.000  C
  H123     1.0000 0.16900  0.27230  0.69070  Biso   1.000  H
  C165     1.0000 0.21700  0.27130  0.60360  Biso   1.000  C
  H124     1.0000 0.23940  0.30850  0.64940  Biso   1.000  H
  C166     1.0000 0.22710  0.23930  0.51330  Biso   1.000  C
  C167     1.0000 0.19320  0.18720  0.44980  Biso   1.000  C
  H125     1.0000 0.19890  0.16430  0.38700  Biso   1.000  H
  C168     1.0000 0.15080  0.16760  0.47570  Biso   1.000  C
  H126     1.0000 0.12790  0.13190  0.43010  Biso   1.000  H
  O43      1.0000 0.45055  0.91070  0.60540  Biso   1.000  O
  O44      1.0000 0.41890  0.78150  0.69390  Biso   1.000  O
  O45      1.0000 0.03090  0.69440  0.59590  Biso   1.000  O
  O46      1.0000 0.03300  0.51840  0.67740  Biso   1.000  O
  O47      1.0000 0.56700  0.86040  0.50790  Biso   1.000  O
  O48      1.0000 0.52540  0.76970  0.59910  Biso   1.000  O
  C169     1.0000 0.41710  0.84100  0.61940  Biso   1.000  C
  C170     1.0000 0.37800  0.84270  0.54290  Biso   1.000  C
  H127     1.0000 0.37730  0.93030  0.50980  Biso   1.000  H
  H128     1.0000 0.38240  0.77270  0.49540  Biso   1.000  H
  C171     1.0000 0.33310  0.82010  0.57740  Biso   1.000  C
  C172     1.0000 0.31840  0.69710  0.59780  Biso   1.000  C
  H129     1.0000 0.33720  0.62190  0.59210  Biso   1.000  H
  C173     1.0000 0.27700  0.67770  0.62670  Biso   1.000  C
  H130     1.0000 0.26790  0.58930  0.63980  Biso   1.000  H
  C174     1.0000 0.24860  0.78210  0.63720  Biso   1.000  C
  C175     1.0000 0.26360  0.90470  0.61640  Biso   1.000  C
  H131     1.0000 0.24490  0.98020  0.62120  Biso   1.000  H
  C176     1.0000 0.30520  0.92380  0.58840  Biso   1.000  C
  H132     1.0000 0.31470  0.01220  0.57650  Biso   1.000  H
  C177     1.0000 0.20400  0.76280  0.66950  Biso   1.000  C
  C178     1.0000 0.18840  0.63780  0.68990  Biso   1.000  C
  H133     1.0000 0.20680  0.56180  0.68450  Biso   1.000  H
  C179     1.0000 0.14640  0.62010  0.71780  Biso   1.000  C
  H134     1.0000 0.13700  0.53220  0.73160  Biso   1.000  H
  C180     1.0000 0.11830  0.72460  0.72630  Biso   1.000  C
  C181     1.0000 0.13360  0.84650  0.70630  Biso   1.000  C
  H135     1.0000 0.11510  0.92210  0.71200  Biso   1.000  H
  C182     1.0000 0.17540  0.86650  0.67770  Biso   1.000  C
  H136     1.0000 0.18430  0.95480  0.66340  Biso   1.000  H
  C183     1.0000 0.07190  0.70410  0.75460  Biso   1.000  C
  H137     1.0000 0.05880  0.79140  0.76940  Biso   1.000  H
  H138     1.0000 0.07350  0.64660  0.81210  Biso   1.000  H
  C184     1.0000 0.04340  0.63840  0.67200  Biso   1.000  C
  C185     1.0000 0.56240  0.77600  0.56630  Biso   1.000  C
  C186     1.0000 0.59580  0.67200  0.59280  Biso   1.000  C
  H139     1.0000 0.59880  0.65970  0.66300  Biso   1.000  H
  H140     1.0000 0.58460  0.58670  0.56300  Biso   1.000  H
  C187     1.0000 0.64130  0.69830  0.56490  Biso   1.000  C
  C188     1.0000 0.67480  0.75010  0.62800  Biso   1.000  C
  H141     1.0000 0.66900  0.77230  0.69070  Biso   1.000  H
  C189     1.0000 0.71700  0.77130  0.60360  Biso   1.000  C
  H142     1.0000 0.73940  0.80850  0.64940  Biso   1.000  H
  C190     1.0000 0.72710  0.73930  0.51330  Biso   1.000  C
  C191     1.0000 0.69320  0.68720  0.44980  Biso   1.000  C
  H143     1.0000 0.69890  0.66430  0.38700  Biso   1.000  H
  C192     1.0000 0.65080  0.66760  0.47570  Biso   1.000  C
  H144     1.0000 0.62790  0.63190  0.43010  Biso   1.000  H
  Nd1      1.0000 0.00000  0.67398  0.25000  Biso   1.000  Nd
  Nd2      1.0000 0.50000  0.17398  0.25000  Biso   1.000  Nd
  Nd3      1.0000 0.00000  0.32602  0.75000  Biso   1.000  Nd
  Nd4      1.0000 0.50000  0.82602  0.75000  Biso   1.000  Nd
  Nd5      1.0000 0.00000  0.50000  0.00000  Biso   1.000  Nd
  Nd6      1.0000 0.50000  0.00000  0.00000  Biso   1.000  Nd
  Nd7      1.0000 0.00000  0.50000  0.50000  Biso   1.000  Nd
  Nd8      1.0000 0.50000  0.00000  0.50000  Biso   1.000  Nd
