data_image0
_cell_length_a       30.231
_cell_length_b       9.875
_cell_length_c       14.191
_cell_angle_alpha    90
_cell_angle_beta     97.128
_cell_angle_gamma    90

_symmetry_space_group_name_H-M    "P 1"
_symmetry_int_tables_number       1

loop_
  _symmetry_equiv_pos_as_xyz
  'x, y, z'

loop_
  _atom_site_label
  _atom_site_occupancy
  _atom_site_fract_x
  _atom_site_fract_y
  _atom_site_fract_z
  _atom_site_thermal_displace_type
  _atom_site_B_iso_or_equiv
  _atom_site_type_symbol
  O1       1.0000 0.58170  0.22360  0.80710  Biso   1.000  O
  O2       1.0000 0.54963  0.09300  0.89470  Biso   1.000  O
  O3       1.0000 0.96600  0.48370  0.82250  Biso   1.000  O
  O4       1.0000 0.96900  0.30170  0.90180  Biso   1.000  O
  O5       1.0000 0.47420  0.23280  0.90120  Biso   1.000  O
  O6       1.0000 0.43270  0.13870  0.99230  Biso   1.000  O
  C1       1.0000 0.58260  0.16520  0.88070  Biso   1.000  C
  C2       1.0000 0.62230  0.16310  0.95710  Biso   1.000  C
  H1       1.0000 0.62280  0.07540  0.99100  Biso   1.000  H
  H2       1.0000 0.61860  0.23550  0.00370  Biso   1.000  H
  C3       1.0000 0.66700  0.18250  0.91980  Biso   1.000  C
  C4       1.0000 0.68130  0.30530  0.90110  Biso   1.000  C
  H3       1.0000 0.66260  0.38110  0.90790  Biso   1.000  H
  C5       1.0000 0.72310  0.32580  0.87170  Biso   1.000  C
  H4       1.0000 0.73220  0.41530  0.85870  Biso   1.000  H
  C6       1.0000 0.75110  0.22110  0.86110  Biso   1.000  C
  C7       1.0000 0.73670  0.10030  0.88320  Biso   1.000  C
  H5       1.0000 0.75540  0.02400  0.87830  Biso   1.000  H
  C8       1.0000 0.69550  0.08060  0.91320  Biso   1.000  C
  H6       1.0000 0.68710  0.99170  0.92960  Biso   1.000  H
  C9       1.0000 0.79610  0.24070  0.83110  Biso   1.000  C
  C10      1.0000 0.81200  0.36630  0.80990  Biso   1.000  C
  H7       1.0000 0.79370  0.44360  0.81460  Biso   1.000  H
  C11      1.0000 0.85380  0.38340  0.78220  Biso   1.000  C
  H8       1.0000 0.86350  0.47200  0.76890  Biso   1.000  H
  C12      1.0000 0.88100  0.27740  0.77350  Biso   1.000  C
  C13      1.0000 0.86660  0.15110  0.79180  Biso   1.000  C
  H9       1.0000 0.88510  0.07500  0.78490  Biso   1.000  H
  C14      1.0000 0.82460  0.13310  0.82070  Biso   1.000  C
  H10      1.0000 0.81520  0.04400  0.83380  Biso   1.000  H
  C15      1.0000 0.92780  0.29730  0.74580  Biso   1.000  C
  H11      1.0000 0.94040  0.20880  0.73050  Biso   1.000  H
  H12      1.0000 0.92640  0.35580  0.68890  Biso   1.000  H
  C16      1.0000 0.95700  0.36260  0.82770  Biso   1.000  C
  C17      1.0000 0.43760  0.22600  0.93340  Biso   1.000  C
  C18      1.0000 0.40350  0.33220  0.90560  Biso   1.000  C
  H13      1.0000 0.40060  0.34380  0.83580  Biso   1.000  H
  H14      1.0000 0.41430  0.41910  0.93470  Biso   1.000  H
  C19      1.0000 0.35780  0.30370  0.93390  Biso   1.000  C
  C20      1.0000 0.32460  0.25090  0.87180  Biso   1.000  C
  H15      1.0000 0.33020  0.22740  0.80940  Biso   1.000  H
  C21      1.0000 0.28340  0.23130  0.89770  Biso   1.000  C
  H16      1.0000 0.26070  0.19550  0.85200  Biso   1.000  H
  C22      1.0000 0.27270  0.26090  0.98720  Biso   1.000  C
  C23      1.0000 0.30730  0.31150  0.05100  Biso   1.000  C
  H17      1.0000 0.30190  0.33310  0.11390  Biso   1.000  H
  C24      1.0000 0.34900  0.33070  0.02500  Biso   1.000  C
  H18      1.0000 0.37220  0.36330  0.07060  Biso   1.000  H
  O7       1.0000 0.08170  0.72360  0.80710  Biso   1.000  O
  O8       1.0000 0.04963  0.59300  0.89470  Biso   1.000  O
  O9       1.0000 0.46600  0.98370  0.82250  Biso   1.000  O
  O10      1.0000 0.46900  0.80170  0.90180  Biso   1.000  O
  O11      1.0000 0.97420  0.73280  0.90120  Biso   1.000  O
  O12      1.0000 0.93270  0.63870  0.99230  Biso   1.000  O
  C25      1.0000 0.08260  0.66520  0.88070  Biso   1.000  C
  C26      1.0000 0.12230  0.66310  0.95710  Biso   1.000  C
  H19      1.0000 0.12280  0.57540  0.99100  Biso   1.000  H
  H20      1.0000 0.11860  0.73550  0.00370  Biso   1.000  H
  C27      1.0000 0.16700  0.68250  0.91980  Biso   1.000  C
  C28      1.0000 0.18130  0.80530  0.90110  Biso   1.000  C
  H21      1.0000 0.16260  0.88110  0.90790  Biso   1.000  H
  C29      1.0000 0.22310  0.82580  0.87170  Biso   1.000  C
  H22      1.0000 0.23220  0.91530  0.85870  Biso   1.000  H
  C30      1.0000 0.25110  0.72110  0.86110  Biso   1.000  C
  C31      1.0000 0.23670  0.60030  0.88320  Biso   1.000  C
  H23      1.0000 0.25540  0.52400  0.87830  Biso   1.000  H
  C32      1.0000 0.19550  0.58060  0.91320  Biso   1.000  C
  H24      1.0000 0.18710  0.49170  0.92960  Biso   1.000  H
  C33      1.0000 0.29610  0.74070  0.83110  Biso   1.000  C
  C34      1.0000 0.31200  0.86630  0.80990  Biso   1.000  C
  H25      1.0000 0.29370  0.94360  0.81460  Biso   1.000  H
  C35      1.0000 0.35380  0.88340  0.78220  Biso   1.000  C
  H26      1.0000 0.36350  0.97200  0.76890  Biso   1.000  H
  C36      1.0000 0.38100  0.77740  0.77350  Biso   1.000  C
  C37      1.0000 0.36660  0.65110  0.79180  Biso   1.000  C
  H27      1.0000 0.38510  0.57500  0.78490  Biso   1.000  H
  C38      1.0000 0.32460  0.63310  0.82070  Biso   1.000  C
  H28      1.0000 0.31520  0.54400  0.83380  Biso   1.000  H
  C39      1.0000 0.42780  0.79730  0.74580  Biso   1.000  C
  H29      1.0000 0.44040  0.70880  0.73050  Biso   1.000  H
  H30      1.0000 0.42640  0.85580  0.68890  Biso   1.000  H
  C40      1.0000 0.45700  0.86260  0.82770  Biso   1.000  C
  C41      1.0000 0.93760  0.72600  0.93340  Biso   1.000  C
  C42      1.0000 0.90350  0.83220  0.90560  Biso   1.000  C
  H31      1.0000 0.90060  0.84380  0.83580  Biso   1.000  H
  H32      1.0000 0.91430  0.91910  0.93470  Biso   1.000  H
  C43      1.0000 0.85780  0.80370  0.93390  Biso   1.000  C
  C44      1.0000 0.82460  0.75090  0.87180  Biso   1.000  C
  H33      1.0000 0.83020  0.72740  0.80940  Biso   1.000  H
  C45      1.0000 0.78340  0.73130  0.89770  Biso   1.000  C
  H34      1.0000 0.76070  0.69550  0.85200  Biso   1.000  H
  C46      1.0000 0.77270  0.76090  0.98720  Biso   1.000  C
  C47      1.0000 0.80730  0.81150  0.05100  Biso   1.000  C
  H35      1.0000 0.80190  0.83310  0.11390  Biso   1.000  H
  C48      1.0000 0.84900  0.83070  0.02500  Biso   1.000  C
  H36      1.0000 0.87220  0.86330  0.07060  Biso   1.000  H
  O13      1.0000 0.41830  0.22360  0.69290  Biso   1.000  O
  O14      1.0000 0.45037  0.09300  0.60530  Biso   1.000  O
  O15      1.0000 0.03400  0.48370  0.67750  Biso   1.000  O
  O16      1.0000 0.03100  0.30170  0.59820  Biso   1.000  O
  O17      1.0000 0.52580  0.23280  0.59880  Biso   1.000  O
  O18      1.0000 0.56730  0.13870  0.50770  Biso   1.000  O
  C49      1.0000 0.41740  0.16520  0.61930  Biso   1.000  C
  C50      1.0000 0.37770  0.16310  0.54290  Biso   1.000  C
  H37      1.0000 0.37720  0.07540  0.50900  Biso   1.000  H
  H38      1.0000 0.38140  0.23550  0.49630  Biso   1.000  H
  C51      1.0000 0.33300  0.18250  0.58020  Biso   1.000  C
  C52      1.0000 0.31870  0.30530  0.59890  Biso   1.000  C
  H39      1.0000 0.33740  0.38110  0.59210  Biso   1.000  H
  C53      1.0000 0.27690  0.32580  0.62830  Biso   1.000  C
  H40      1.0000 0.26780  0.41530  0.64130  Biso   1.000  H
  C54      1.0000 0.24890  0.22110  0.63890  Biso   1.000  C
  C55      1.0000 0.26330  0.10030  0.61680  Biso   1.000  C
  H41      1.0000 0.24460  0.02400  0.62170  Biso   1.000  H
  C56      1.0000 0.30450  0.08060  0.58680  Biso   1.000  C
  H42      1.0000 0.31290  0.99170  0.57040  Biso   1.000  H
  C57      1.0000 0.20390  0.24070  0.66890  Biso   1.000  C
  C58      1.0000 0.18800  0.36630  0.69010  Biso   1.000  C
  H43      1.0000 0.20630  0.44360  0.68540  Biso   1.000  H
  C59      1.0000 0.14620  0.38340  0.71780  Biso   1.000  C
  H44      1.0000 0.13650  0.47200  0.73110  Biso   1.000  H
  C60      1.0000 0.11900  0.27740  0.72650  Biso   1.000  C
  C61      1.0000 0.13340  0.15110  0.70820  Biso   1.000  C
  H45      1.0000 0.11490  0.07500  0.71510  Biso   1.000  H
  C62      1.0000 0.17540  0.13310  0.67930  Biso   1.000  C
  H46      1.0000 0.18480  0.04400  0.66620  Biso   1.000  H
  C63      1.0000 0.07220  0.29730  0.75420  Biso   1.000  C
  H47      1.0000 0.05960  0.20880  0.76950  Biso   1.000  H
  H48      1.0000 0.07360  0.35580  0.81110  Biso   1.000  H
  C64      1.0000 0.04300  0.36260  0.67230  Biso   1.000  C
  C65      1.0000 0.56240  0.22600  0.56660  Biso   1.000  C
  C66      1.0000 0.59650  0.33220  0.59440  Biso   1.000  C
  H49      1.0000 0.59940  0.34380  0.66420  Biso   1.000  H
  H50      1.0000 0.58570  0.41910  0.56530  Biso   1.000  H
  C67      1.0000 0.64220  0.30370  0.56610  Biso   1.000  C
  C68      1.0000 0.67540  0.25090  0.62820  Biso   1.000  C
  H51      1.0000 0.66980  0.22740  0.69060  Biso   1.000  H
  C69      1.0000 0.71660  0.23130  0.60230  Biso   1.000  C
  H52      1.0000 0.73930  0.19550  0.64800  Biso   1.000  H
  C70      1.0000 0.72730  0.26090  0.51280  Biso   1.000  C
  C71      1.0000 0.69270  0.31150  0.44900  Biso   1.000  C
  H53      1.0000 0.69810  0.33310  0.38610  Biso   1.000  H
  C72      1.0000 0.65100  0.33070  0.47500  Biso   1.000  C
  H54      1.0000 0.62780  0.36330  0.42940  Biso   1.000  H
  O19      1.0000 0.91830  0.72360  0.69290  Biso   1.000  O
  O20      1.0000 0.95037  0.59300  0.60530  Biso   1.000  O
  O21      1.0000 0.53400  0.98370  0.67750  Biso   1.000  O
  O22      1.0000 0.53100  0.80170  0.59820  Biso   1.000  O
  O23      1.0000 0.02580  0.73280  0.59880  Biso   1.000  O
  O24      1.0000 0.06730  0.63870  0.50770  Biso   1.000  O
  C73      1.0000 0.91740  0.66520  0.61930  Biso   1.000  C
  C74      1.0000 0.87770  0.66310  0.54290  Biso   1.000  C
  H55      1.0000 0.87720  0.57540  0.50900  Biso   1.000  H
  H56      1.0000 0.88140  0.73550  0.49630  Biso   1.000  H
  C75      1.0000 0.83300  0.68250  0.58020  Biso   1.000  C
  C76      1.0000 0.81870  0.80530  0.59890  Biso   1.000  C
  H57      1.0000 0.83740  0.88110  0.59210  Biso   1.000  H
  C77      1.0000 0.77690  0.82580  0.62830  Biso   1.000  C
  H58      1.0000 0.76780  0.91530  0.64130  Biso   1.000  H
  C78      1.0000 0.74890  0.72110  0.63890  Biso   1.000  C
  C79      1.0000 0.76330  0.60030  0.61680  Biso   1.000  C
  H59      1.0000 0.74460  0.52400  0.62170  Biso   1.000  H
  C80      1.0000 0.80450  0.58060  0.58680  Biso   1.000  C
  H60      1.0000 0.81290  0.49170  0.57040  Biso   1.000  H
  C81      1.0000 0.70390  0.74070  0.66890  Biso   1.000  C
  C82      1.0000 0.68800  0.86630  0.69010  Biso   1.000  C
  H61      1.0000 0.70630  0.94360  0.68540  Biso   1.000  H
  C83      1.0000 0.64620  0.88340  0.71780  Biso   1.000  C
  H62      1.0000 0.63650  0.97200  0.73110  Biso   1.000  H
  C84      1.0000 0.61900  0.77740  0.72650  Biso   1.000  C
  C85      1.0000 0.63340  0.65110  0.70820  Biso   1.000  C
  H63      1.0000 0.61490  0.57500  0.71510  Biso   1.000  H
  C86      1.0000 0.67540  0.63310  0.67930  Biso   1.000  C
  H64      1.0000 0.68480  0.54400  0.66620  Biso   1.000  H
  C87      1.0000 0.57220  0.79730  0.75420  Biso   1.000  C
  H65      1.0000 0.55960  0.70880  0.76950  Biso   1.000  H
  H66      1.0000 0.57360  0.85580  0.81110  Biso   1.000  H
  C88      1.0000 0.54300  0.86260  0.67230  Biso   1.000  C
  C89      1.0000 0.06240  0.72600  0.56660  Biso   1.000  C
  C90      1.0000 0.09650  0.83220  0.59440  Biso   1.000  C
  H67      1.0000 0.09940  0.84380  0.66420  Biso   1.000  H
  H68      1.0000 0.08570  0.91910  0.56530  Biso   1.000  H
  C91      1.0000 0.14220  0.80370  0.56610  Biso   1.000  C
  C92      1.0000 0.17540  0.75090  0.62820  Biso   1.000  C
  H69      1.0000 0.16980  0.72740  0.69060  Biso   1.000  H
  C93      1.0000 0.21660  0.73130  0.60230  Biso   1.000  C
  H70      1.0000 0.23930  0.69550  0.64800  Biso   1.000  H
  C94      1.0000 0.22730  0.76090  0.51280  Biso   1.000  C
  C95      1.0000 0.19270  0.81150  0.44900  Biso   1.000  C
  H71      1.0000 0.19810  0.83310  0.38610  Biso   1.000  H
  C96      1.0000 0.15100  0.83070  0.47500  Biso   1.000  C
  H72      1.0000 0.12780  0.86330  0.42940  Biso   1.000  H
  O25      1.0000 0.41830  0.77640  0.19290  Biso   1.000  O
  O26      1.0000 0.45037  0.90700  0.10530  Biso   1.000  O
  O27      1.0000 0.03400  0.51630  0.17750  Biso   1.000  O
  O28      1.0000 0.03100  0.69830  0.09820  Biso   1.000  O
  O29      1.0000 0.52580  0.76720  0.09880  Biso   1.000  O
  O30      1.0000 0.56730  0.86130  0.00770  Biso   1.000  O
  C97      1.0000 0.41740  0.83480  0.11930  Biso   1.000  C
  C98      1.0000 0.37770  0.83690  0.04290  Biso   1.000  C
  H73      1.0000 0.37720  0.92460  0.00900  Biso   1.000  H
  H74      1.0000 0.38140  0.76450  0.99630  Biso   1.000  H
  C99      1.0000 0.33300  0.81750  0.08020  Biso   1.000  C
  C100     1.0000 0.31870  0.69470  0.09890  Biso   1.000  C
  H75      1.0000 0.33740  0.61890  0.09210  Biso   1.000  H
  C101     1.0000 0.27690  0.67420  0.12830  Biso   1.000  C
  H76      1.0000 0.26780  0.58470  0.14130  Biso   1.000  H
  C102     1.0000 0.24890  0.77890  0.13890  Biso   1.000  C
  C103     1.0000 0.26330  0.89970  0.11680  Biso   1.000  C
  H77      1.0000 0.24460  0.97600  0.12170  Biso   1.000  H
  C104     1.0000 0.30450  0.91940  0.08680  Biso   1.000  C
  H78      1.0000 0.31290  0.00830  0.07040  Biso   1.000  H
  C105     1.0000 0.20390  0.75930  0.16890  Biso   1.000  C
  C106     1.0000 0.18800  0.63370  0.19010  Biso   1.000  C
  H79      1.0000 0.20630  0.55640  0.18540  Biso   1.000  H
  C107     1.0000 0.14620  0.61660  0.21780  Biso   1.000  C
  H80      1.0000 0.13650  0.52800  0.23110  Biso   1.000  H
  C108     1.0000 0.11900  0.72260  0.22650  Biso   1.000  C
  C109     1.0000 0.13340  0.84890  0.20820  Biso   1.000  C
  H81      1.0000 0.11490  0.92500  0.21510  Biso   1.000  H
  C110     1.0000 0.17540  0.86690  0.17930  Biso   1.000  C
  H82      1.0000 0.18480  0.95600  0.16620  Biso   1.000  H
  C111     1.0000 0.07220  0.70270  0.25420  Biso   1.000  C
  H83      1.0000 0.05960  0.79120  0.26950  Biso   1.000  H
  H84      1.0000 0.07360  0.64420  0.31110  Biso   1.000  H
  C112     1.0000 0.04300  0.63740  0.17230  Biso   1.000  C
  C113     1.0000 0.56240  0.77400  0.06660  Biso   1.000  C
  C114     1.0000 0.59650  0.66780  0.09440  Biso   1.000  C
  H85      1.0000 0.59940  0.65620  0.16420  Biso   1.000  H
  H86      1.0000 0.58570  0.58090  0.06530  Biso   1.000  H
  C115     1.0000 0.64220  0.69630  0.06610  Biso   1.000  C
  C116     1.0000 0.67540  0.74910  0.12820  Biso   1.000  C
  H87      1.0000 0.66980  0.77260  0.19060  Biso   1.000  H
  C117     1.0000 0.71660  0.76870  0.10230  Biso   1.000  C
  H88      1.0000 0.73930  0.80450  0.14800  Biso   1.000  H
  C118     1.0000 0.72730  0.73910  0.01280  Biso   1.000  C
  C119     1.0000 0.69270  0.68850  0.94900  Biso   1.000  C
  H89      1.0000 0.69810  0.66690  0.88610  Biso   1.000  H
  C120     1.0000 0.65100  0.66930  0.97500  Biso   1.000  C
  H90      1.0000 0.62780  0.63670  0.92940  Biso   1.000  H
  O31      1.0000 0.91830  0.27640  0.19290  Biso   1.000  O
  O32      1.0000 0.95037  0.40700  0.10530  Biso   1.000  O
  O33      1.0000 0.53400  0.01630  0.17750  Biso   1.000  O
  O34      1.0000 0.53100  0.19830  0.09820  Biso   1.000  O
  O35      1.0000 0.02580  0.26720  0.09880  Biso   1.000  O
  O36      1.0000 0.06730  0.36130  0.00770  Biso   1.000  O
  C121     1.0000 0.91740  0.33480  0.11930  Biso   1.000  C
  C122     1.0000 0.87770  0.33690  0.04290  Biso   1.000  C
  H91      1.0000 0.87720  0.42460  0.00900  Biso   1.000  H
  H92      1.0000 0.88140  0.26450  0.99630  Biso   1.000  H
  C123     1.0000 0.83300  0.31750  0.08020  Biso   1.000  C
  C124     1.0000 0.81870  0.19470  0.09890  Biso   1.000  C
  H93      1.0000 0.83740  0.11890  0.09210  Biso   1.000  H
  C125     1.0000 0.77690  0.17420  0.12830  Biso   1.000  C
  H94      1.0000 0.76780  0.08470  0.14130  Biso   1.000  H
  C126     1.0000 0.74890  0.27890  0.13890  Biso   1.000  C
  C127     1.0000 0.76330  0.39970  0.11680  Biso   1.000  C
  H95      1.0000 0.74460  0.47600  0.12170  Biso   1.000  H
  C128     1.0000 0.80450  0.41940  0.08680  Biso   1.000  C
  H96      1.0000 0.81290  0.50830  0.07040  Biso   1.000  H
  C129     1.0000 0.70390  0.25930  0.16890  Biso   1.000  C
  C130     1.0000 0.68800  0.13370  0.19010  Biso   1.000  C
  H97      1.0000 0.70630  0.05640  0.18540  Biso   1.000  H
  C131     1.0000 0.64620  0.11660  0.21780  Biso   1.000  C
  H98      1.0000 0.63650  0.02800  0.23110  Biso   1.000  H
  C132     1.0000 0.61900  0.22260  0.22650  Biso   1.000  C
  C133     1.0000 0.63340  0.34890  0.20820  Biso   1.000  C
  H99      1.0000 0.61490  0.42500  0.21510  Biso   1.000  H
  C134     1.0000 0.67540  0.36690  0.17930  Biso   1.000  C
  H100     1.0000 0.68480  0.45600  0.16620  Biso   1.000  H
  C135     1.0000 0.57220  0.20270  0.25420  Biso   1.000  C
  H101     1.0000 0.55960  0.29120  0.26950  Biso   1.000  H
  H102     1.0000 0.57360  0.14420  0.31110  Biso   1.000  H
  C136     1.0000 0.54300  0.13740  0.17230  Biso   1.000  C
  C137     1.0000 0.06240  0.27400  0.06660  Biso   1.000  C
  C138     1.0000 0.09650  0.16780  0.09440  Biso   1.000  C
  H103     1.0000 0.09940  0.15620  0.16420  Biso   1.000  H
  H104     1.0000 0.08570  0.08090  0.06530  Biso   1.000  H
  C139     1.0000 0.14220  0.19630  0.06610  Biso   1.000  C
  C140     1.0000 0.17540  0.24910  0.12820  Biso   1.000  C
  H105     1.0000 0.16980  0.27260  0.19060  Biso   1.000  H
  C141     1.0000 0.21660  0.26870  0.10230  Biso   1.000  C
  H106     1.0000 0.23930  0.30450  0.14800  Biso   1.000  H
  C142     1.0000 0.22730  0.23910  0.01280  Biso   1.000  C
  C143     1.0000 0.19270  0.18850  0.94900  Biso   1.000  C
  H107     1.0000 0.19810  0.16690  0.88610  Biso   1.000  H
  C144     1.0000 0.15100  0.16930  0.97500  Biso   1.000  C
  H108     1.0000 0.12780  0.13670  0.92940  Biso   1.000  H
  O37      1.0000 0.58170  0.77640  0.30710  Biso   1.000  O
  O38      1.0000 0.54963  0.90700  0.39470  Biso   1.000  O
  O39      1.0000 0.96600  0.51630  0.32250  Biso   1.000  O
  O40      1.0000 0.96900  0.69830  0.40180  Biso   1.000  O
  O41      1.0000 0.47420  0.76720  0.40120  Biso   1.000  O
  O42      1.0000 0.43270  0.86130  0.49230  Biso   1.000  O
  C145     1.0000 0.58260  0.83480  0.38070  Biso   1.000  C
  C146     1.0000 0.62230  0.83690  0.45710  Biso   1.000  C
  H109     1.0000 0.62280  0.92460  0.49100  Biso   1.000  H
  H110     1.0000 0.61860  0.76450  0.50370  Biso   1.000  H
  C147     1.0000 0.66700  0.81750  0.41980  Biso   1.000  C
  C148     1.0000 0.68130  0.69470  0.40110  Biso   1.000  C
  H111     1.0000 0.66260  0.61890  0.40790  Biso   1.000  H
  C149     1.0000 0.72310  0.67420  0.37170  Biso   1.000  C
  H112     1.0000 0.73220  0.58470  0.35870  Biso   1.000  H
  C150     1.0000 0.75110  0.77890  0.36110  Biso   1.000  C
  C151     1.0000 0.73670  0.89970  0.38320  Biso   1.000  C
  H113     1.0000 0.75540  0.97600  0.37830  Biso   1.000  H
  C152     1.0000 0.69550  0.91940  0.41320  Biso   1.000  C
  H114     1.0000 0.68710  0.00830  0.42960  Biso   1.000  H
  C153     1.0000 0.79610  0.75930  0.33110  Biso   1.000  C
  C154     1.0000 0.81200  0.63370  0.30990  Biso   1.000  C
  H115     1.0000 0.79370  0.55640  0.31460  Biso   1.000  H
  C155     1.0000 0.85380  0.61660  0.28220  Biso   1.000  C
  H116     1.0000 0.86350  0.52800  0.26890  Biso   1.000  H
  C156     1.0000 0.88100  0.72260  0.27350  Biso   1.000  C
  C157     1.0000 0.86660  0.84890  0.29180  Biso   1.000  C
  H117     1.0000 0.88510  0.92500  0.28490  Biso   1.000  H
  C158     1.0000 0.82460  0.86690  0.32070  Biso   1.000  C
  H118     1.0000 0.81520  0.95600  0.33380  Biso   1.000  H
  C159     1.0000 0.92780  0.70270  0.24580  Biso   1.000  C
  H119     1.0000 0.94040  0.79120  0.23050  Biso   1.000  H
  H120     1.0000 0.92640  0.64420  0.18890  Biso   1.000  H
  C160     1.0000 0.95700  0.63740  0.32770  Biso   1.000  C
  C161     1.0000 0.43760  0.77400  0.43340  Biso   1.000  C
  C162     1.0000 0.40350  0.66780  0.40560  Biso   1.000  C
  H121     1.0000 0.40060  0.65620  0.33580  Biso   1.000  H
  H122     1.0000 0.41430  0.58090  0.43470  Biso   1.000  H
  C163     1.0000 0.35780  0.69630  0.43390  Biso   1.000  C
  C164     1.0000 0.32460  0.74910  0.37180  Biso   1.000  C
  H123     1.0000 0.33020  0.77260  0.30940  Biso   1.000  H
  C165     1.0000 0.28340  0.76870  0.39770  Biso   1.000  C
  H124     1.0000 0.26070  0.80450  0.35200  Biso   1.000  H
  C166     1.0000 0.27270  0.73910  0.48720  Biso   1.000  C
  C167     1.0000 0.30730  0.68850  0.55100  Biso   1.000  C
  H125     1.0000 0.30190  0.66690  0.61390  Biso   1.000  H
  C168     1.0000 0.34900  0.66930  0.52500  Biso   1.000  C
  H126     1.0000 0.37220  0.63670  0.57060  Biso   1.000  H
  O43      1.0000 0.08170  0.27640  0.30710  Biso   1.000  O
  O44      1.0000 0.04963  0.40700  0.39470  Biso   1.000  O
  O45      1.0000 0.46600  0.01630  0.32250  Biso   1.000  O
  O46      1.0000 0.46900  0.19830  0.40180  Biso   1.000  O
  O47      1.0000 0.97420  0.26720  0.40120  Biso   1.000  O
  O48      1.0000 0.93270  0.36130  0.49230  Biso   1.000  O
  C169     1.0000 0.08260  0.33480  0.38070  Biso   1.000  C
  C170     1.0000 0.12230  0.33690  0.45710  Biso   1.000  C
  H127     1.0000 0.12280  0.42460  0.49100  Biso   1.000  H
  H128     1.0000 0.11860  0.26450  0.50370  Biso   1.000  H
  C171     1.0000 0.16700  0.31750  0.41980  Biso   1.000  C
  C172     1.0000 0.18130  0.19470  0.40110  Biso   1.000  C
  H129     1.0000 0.16260  0.11890  0.40790  Biso   1.000  H
  C173     1.0000 0.22310  0.17420  0.37170  Biso   1.000  C
  H130     1.0000 0.23220  0.08470  0.35870  Biso   1.000  H
  C174     1.0000 0.25110  0.27890  0.36110  Biso   1.000  C
  C175     1.0000 0.23670  0.39970  0.38320  Biso   1.000  C
  H131     1.0000 0.25540  0.47600  0.37830  Biso   1.000  H
  C176     1.0000 0.19550  0.41940  0.41320  Biso   1.000  C
  H132     1.0000 0.18710  0.50830  0.42960  Biso   1.000  H
  C177     1.0000 0.29610  0.25930  0.33110  Biso   1.000  C
  C178     1.0000 0.31200  0.13370  0.30990  Biso   1.000  C
  H133     1.0000 0.29370  0.05640  0.31460  Biso   1.000  H
  C179     1.0000 0.35380  0.11660  0.28220  Biso   1.000  C
  H134     1.0000 0.36350  0.02800  0.26890  Biso   1.000  H
  C180     1.0000 0.38100  0.22260  0.27350  Biso   1.000  C
  C181     1.0000 0.36660  0.34890  0.29180  Biso   1.000  C
  H135     1.0000 0.38510  0.42500  0.28490  Biso   1.000  H
  C182     1.0000 0.32460  0.36690  0.32070  Biso   1.000  C
  H136     1.0000 0.31520  0.45600  0.33380  Biso   1.000  H
  C183     1.0000 0.42780  0.20270  0.24580  Biso   1.000  C
  H137     1.0000 0.44040  0.29120  0.23050  Biso   1.000  H
  H138     1.0000 0.42640  0.14420  0.18890  Biso   1.000  H
  C184     1.0000 0.45700  0.13740  0.32770  Biso   1.000  C
  C185     1.0000 0.93760  0.27400  0.43340  Biso   1.000  C
  C186     1.0000 0.90350  0.16780  0.40560  Biso   1.000  C
  H139     1.0000 0.90060  0.15620  0.33580  Biso   1.000  H
  H140     1.0000 0.91430  0.08090  0.43470  Biso   1.000  H
  C187     1.0000 0.85780  0.19630  0.43390  Biso   1.000  C
  C188     1.0000 0.82460  0.24910  0.37180  Biso   1.000  C
  H141     1.0000 0.83020  0.27260  0.30940  Biso   1.000  H
  C189     1.0000 0.78340  0.26870  0.39770  Biso   1.000  C
  H142     1.0000 0.76070  0.30450  0.35200  Biso   1.000  H
  C190     1.0000 0.77270  0.23910  0.48720  Biso   1.000  C
  C191     1.0000 0.80730  0.18850  0.55100  Biso   1.000  C
  H143     1.0000 0.80190  0.16690  0.61390  Biso   1.000  H
  C192     1.0000 0.84900  0.16930  0.52500  Biso   1.000  C
  H144     1.0000 0.87220  0.13670  0.57060  Biso   1.000  H
  Pr1      1.0000 0.50000  0.17736  0.75000  Biso   1.000  Pr
  Pr2      1.0000 0.00000  0.67736  0.75000  Biso   1.000  Pr
  Pr3      1.0000 0.50000  0.82264  0.25000  Biso   1.000  Pr
  Pr4      1.0000 0.00000  0.32264  0.25000  Biso   1.000  Pr
  Pr5      1.0000 0.50000  0.00000  0.00000  Biso   1.000  Pr
  Pr6      1.0000 0.00000  0.50000  0.00000  Biso   1.000  Pr
  Pr7      1.0000 0.50000  0.00000  0.50000  Biso   1.000  Pr
  Pr8      1.0000 0.00000  0.50000  0.50000  Biso   1.000  Pr
