data_image0
_cell_length_a       13.0842
_cell_length_b       13.0842
_cell_length_c       19.878
_cell_angle_alpha    90
_cell_angle_beta     90
_cell_angle_gamma    120

_symmetry_space_group_name_H-M    "P 1"
_symmetry_int_tables_number       1

loop_
  _symmetry_equiv_pos_as_xyz
  'x, y, z'

loop_
  _atom_site_label
  _atom_site_occupancy
  _atom_site_fract_x
  _atom_site_fract_y
  _atom_site_fract_z
  _atom_site_thermal_displace_type
  _atom_site_B_iso_or_equiv
  _atom_site_type_symbol
  N1       1.0000 0.28890  0.02910  0.59370  Biso   1.000  N
  C1       1.0000 0.17880  0.95730  0.58480  Biso   1.000  C
  C2       1.0000 0.11920  0.96070  0.52730  Biso   1.000  C
  C3       1.0000 0.18650  0.05020  0.47630  Biso   1.000  C
  C4       1.0000 0.30530  0.12550  0.49010  Biso   1.000  C
  C5       1.0000 0.35360  0.11620  0.55060  Biso   1.000  C
  N2       1.0000 0.38350  0.21960  0.44770  Biso   1.000  N
  C6       1.0000 0.35850  0.27320  0.39770  Biso   1.000  C
  O1       1.0000 0.25710  0.23810  0.37730  Biso   1.000  O
  C7       1.0000 0.46740  0.37700  0.36630  Biso   1.000  C
  C8       1.0000 0.50220  0.47700  0.41170  Biso   1.000  C
  C9       1.0000 0.61420  0.58040  0.39920  Biso   1.000  C
  C10      1.0000 0.72200  0.58300  0.39240  Biso   1.000  C
  C11      1.0000 0.83800  0.69600  0.38670  Biso   1.000  C
  C12      1.0000 0.84300  0.79900  0.38580  Biso   1.000  C
  C13      1.0000 0.73500  0.79500  0.39750  Biso   1.000  C
  C14      1.0000 0.62600  0.69000  0.40050  Biso   1.000  C
  N3       1.0000 0.43530  0.40350  0.29960  Biso   1.000  N
  C15      1.0000 0.49620  0.40700  0.24390  Biso   1.000  C
  O2       1.0000 0.57660  0.38810  0.24340  Biso   1.000  O
  C16      1.0000 0.44750  0.42900  0.17940  Biso   1.000  C
  C17      1.0000 0.33110  0.39430  0.17120  Biso   1.000  C
  C18      1.0000 0.29750  0.42600  0.10970  Biso   1.000  C
  C19      1.0000 0.38500  0.48850  0.06290  Biso   1.000  C
  N4       1.0000 0.50010  0.52030  0.07100  Biso   1.000  N
  C20      1.0000 0.52930  0.49070  0.12770  Biso   1.000  C
  N5       1.0000 0.97090  0.25980  0.26037  Biso   1.000  N
  C21      1.0000 0.04270  0.22150  0.25147  Biso   1.000  C
  C22      1.0000 0.03930  0.15850  0.19397  Biso   1.000  C
  C23      1.0000 0.94980  0.13630  0.14297  Biso   1.000  C
  C24      1.0000 0.87450  0.17980  0.15677  Biso   1.000  C
  C25      1.0000 0.88380  0.23740  0.21727  Biso   1.000  C
  N6       1.0000 0.78040  0.16390  0.11437  Biso   1.000  N
  C26      1.0000 0.72680  0.08530  0.06437  Biso   1.000  C
  O3       1.0000 0.76190  0.01900  0.04397  Biso   1.000  O
  C27      1.0000 0.62300  0.09040  0.03297  Biso   1.000  C
  C28      1.0000 0.52300  0.02520  0.07837  Biso   1.000  C
  C29      1.0000 0.41960  0.03380  0.06587  Biso   1.000  C
  C30      1.0000 0.41700  0.13900  0.05907  Biso   1.000  C
  C31      1.0000 0.30400  0.14200  0.05337  Biso   1.000  C
  C32      1.0000 0.20100  0.04400  0.05247  Biso   1.000  C
  C33      1.0000 0.20500  0.94000  0.06417  Biso   1.000  C
  C34      1.0000 0.31000  0.93600  0.06717  Biso   1.000  C
  N7       1.0000 0.59650  0.03180  0.96627  Biso   1.000  N
  C35      1.0000 0.59300  0.08920  0.91057  Biso   1.000  C
  O4       1.0000 0.61190  0.18850  0.91007  Biso   1.000  O
  C36      1.0000 0.57100  0.01850  0.84607  Biso   1.000  C
  C37      1.0000 0.60570  0.93680  0.83787  Biso   1.000  C
  C38      1.0000 0.57400  0.87150  0.77637  Biso   1.000  C
  C39      1.0000 0.51150  0.89650  0.72957  Biso   1.000  C
  N8       1.0000 0.47970  0.97980  0.73767  Biso   1.000  N
  C40      1.0000 0.50930  0.03860  0.79437  Biso   1.000  C
  N9       1.0000 0.74020  0.71110  0.92703  Biso   1.000  N
  C41      1.0000 0.77850  0.82120  0.91813  Biso   1.000  C
  C42      1.0000 0.84150  0.88080  0.86063  Biso   1.000  C
  C43      1.0000 0.86370  0.81350  0.80963  Biso   1.000  C
  C44      1.0000 0.82020  0.69470  0.82343  Biso   1.000  C
  C45      1.0000 0.76260  0.64640  0.88393  Biso   1.000  C
  N10      1.0000 0.83610  0.61650  0.78103  Biso   1.000  N
  C46      1.0000 0.91470  0.64150  0.73103  Biso   1.000  C
  O5       1.0000 0.98100  0.74290  0.71063  Biso   1.000  O
  C47      1.0000 0.90960  0.53260  0.69963  Biso   1.000  C
  C48      1.0000 0.97480  0.49780  0.74503  Biso   1.000  C
  C49      1.0000 0.96620  0.38580  0.73253  Biso   1.000  C
  C50      1.0000 0.86100  0.27800  0.72573  Biso   1.000  C
  C51      1.0000 0.85800  0.16200  0.72003  Biso   1.000  C
  C52      1.0000 0.95600  0.15700  0.71913  Biso   1.000  C
  C53      1.0000 0.06000  0.26500  0.73083  Biso   1.000  C
  C54      1.0000 0.06400  0.37400  0.73383  Biso   1.000  C
  N11      1.0000 0.96820  0.56470  0.63293  Biso   1.000  N
  C55      1.0000 0.91080  0.50380  0.57723  Biso   1.000  C
  O6       1.0000 0.81150  0.42340  0.57673  Biso   1.000  O
  C56      1.0000 0.98150  0.55250  0.51273  Biso   1.000  C
  C57      1.0000 0.06320  0.66890  0.50453  Biso   1.000  C
  C58      1.0000 0.12850  0.70250  0.44303  Biso   1.000  C
  C59      1.0000 0.10350  0.61500  0.39623  Biso   1.000  C
  N12      1.0000 0.02020  0.49990  0.40433  Biso   1.000  N
  C60      1.0000 0.96140  0.47070  0.46103  Biso   1.000  C
  N13      1.0000 0.02910  0.28890  0.40630  Biso   1.000  N
  C61      1.0000 0.95730  0.17880  0.41520  Biso   1.000  C
  C62      1.0000 0.96070  0.11920  0.47270  Biso   1.000  C
  C63      1.0000 0.05020  0.18650  0.52370  Biso   1.000  C
  C64      1.0000 0.12550  0.30530  0.50990  Biso   1.000  C
  C65      1.0000 0.11620  0.35360  0.44940  Biso   1.000  C
  N14      1.0000 0.21960  0.38350  0.55230  Biso   1.000  N
  C66      1.0000 0.27320  0.35850  0.60230  Biso   1.000  C
  O7       1.0000 0.23810  0.25710  0.62270  Biso   1.000  O
  C67      1.0000 0.37700  0.46740  0.63370  Biso   1.000  C
  C68      1.0000 0.47700  0.50220  0.58830  Biso   1.000  C
  C69      1.0000 0.58040  0.61420  0.60080  Biso   1.000  C
  C70      1.0000 0.58300  0.72200  0.60760  Biso   1.000  C
  C71      1.0000 0.69600  0.83800  0.61330  Biso   1.000  C
  C72      1.0000 0.79900  0.84300  0.61420  Biso   1.000  C
  C73      1.0000 0.79500  0.73500  0.60250  Biso   1.000  C
  C74      1.0000 0.69000  0.62600  0.59950  Biso   1.000  C
  N15      1.0000 0.40350  0.43530  0.70040  Biso   1.000  N
  C75      1.0000 0.40700  0.49620  0.75610  Biso   1.000  C
  O8       1.0000 0.38810  0.57660  0.75660  Biso   1.000  O
  C76      1.0000 0.42900  0.44750  0.82060  Biso   1.000  C
  C77      1.0000 0.39430  0.33110  0.82880  Biso   1.000  C
  C78      1.0000 0.42600  0.29750  0.89030  Biso   1.000  C
  C79      1.0000 0.48850  0.38500  0.93710  Biso   1.000  C
  N16      1.0000 0.52030  0.50010  0.92900  Biso   1.000  N
  C80      1.0000 0.49070  0.52930  0.87230  Biso   1.000  C
  N17      1.0000 0.25980  0.97090  0.73963  Biso   1.000  N
  C81      1.0000 0.22150  0.04270  0.74853  Biso   1.000  C
  C82      1.0000 0.15850  0.03930  0.80603  Biso   1.000  C
  C83      1.0000 0.13630  0.94980  0.85703  Biso   1.000  C
  C84      1.0000 0.17980  0.87450  0.84323  Biso   1.000  C
  C85      1.0000 0.23740  0.88380  0.78273  Biso   1.000  C
  N18      1.0000 0.16390  0.78040  0.88563  Biso   1.000  N
  C86      1.0000 0.08530  0.72680  0.93563  Biso   1.000  C
  O9       1.0000 0.01900  0.76190  0.95603  Biso   1.000  O
  C87      1.0000 0.09040  0.62300  0.96703  Biso   1.000  C
  C88      1.0000 0.02520  0.52300  0.92163  Biso   1.000  C
  C89      1.0000 0.03380  0.41960  0.93413  Biso   1.000  C
  C90      1.0000 0.13900  0.41700  0.94093  Biso   1.000  C
  C91      1.0000 0.14200  0.30400  0.94663  Biso   1.000  C
  C92      1.0000 0.04400  0.20100  0.94753  Biso   1.000  C
  C93      1.0000 0.94000  0.20500  0.93583  Biso   1.000  C
  C94      1.0000 0.93600  0.31000  0.93283  Biso   1.000  C
  N19      1.0000 0.03180  0.59650  0.03373  Biso   1.000  N
  C95      1.0000 0.08920  0.59300  0.08943  Biso   1.000  C
  O10      1.0000 0.18850  0.61190  0.08993  Biso   1.000  O
  C96      1.0000 0.01850  0.57100  0.15393  Biso   1.000  C
  C97      1.0000 0.93680  0.60570  0.16213  Biso   1.000  C
  C98      1.0000 0.87150  0.57400  0.22363  Biso   1.000  C
  C99      1.0000 0.89650  0.51150  0.27043  Biso   1.000  C
  N20      1.0000 0.97980  0.47970  0.26233  Biso   1.000  N
  C100     1.0000 0.03860  0.50930  0.20563  Biso   1.000  C
  N21      1.0000 0.71110  0.74020  0.07297  Biso   1.000  N
  C101     1.0000 0.82120  0.77850  0.08187  Biso   1.000  C
  C102     1.0000 0.88080  0.84150  0.13937  Biso   1.000  C
  C103     1.0000 0.81350  0.86370  0.19037  Biso   1.000  C
  C104     1.0000 0.69470  0.82020  0.17657  Biso   1.000  C
  C105     1.0000 0.64640  0.76260  0.11607  Biso   1.000  C
  N22      1.0000 0.61650  0.83610  0.21897  Biso   1.000  N
  C106     1.0000 0.64150  0.91470  0.26897  Biso   1.000  C
  O11      1.0000 0.74290  0.98100  0.28937  Biso   1.000  O
  C107     1.0000 0.53260  0.90960  0.30037  Biso   1.000  C
  C108     1.0000 0.49780  0.97480  0.25497  Biso   1.000  C
  C109     1.0000 0.38580  0.96620  0.26747  Biso   1.000  C
  C110     1.0000 0.27800  0.86100  0.27427  Biso   1.000  C
  C111     1.0000 0.16200  0.85800  0.27997  Biso   1.000  C
  C112     1.0000 0.15700  0.95600  0.28087  Biso   1.000  C
  C113     1.0000 0.26500  0.06000  0.26917  Biso   1.000  C
  C114     1.0000 0.37400  0.06400  0.26617  Biso   1.000  C
  N23      1.0000 0.56470  0.96820  0.36707  Biso   1.000  N
  C115     1.0000 0.50380  0.91080  0.42277  Biso   1.000  C
  O12      1.0000 0.42340  0.81150  0.42327  Biso   1.000  O
  C116     1.0000 0.55250  0.98150  0.48727  Biso   1.000  C
  C117     1.0000 0.66890  0.06320  0.49547  Biso   1.000  C
  C118     1.0000 0.70250  0.12850  0.55697  Biso   1.000  C
  C119     1.0000 0.61500  0.10350  0.60377  Biso   1.000  C
  N24      1.0000 0.49990  0.02020  0.59567  Biso   1.000  N
  C120     1.0000 0.47070  0.96140  0.53897  Biso   1.000  C
  Cu1      1.0000 0.61840  0.61840  0.00000  Biso   1.000  Cu
  Cu2      1.0000 0.38160  0.00000  0.66667  Biso   1.000  Cu
  Cu3      1.0000 0.00000  0.38160  0.33333  Biso   1.000  Cu
