data_PAPPIH_clean
_audit_creation_date              2014-07-02
_audit_creation_method            'Materials Studio'
_symmetry_space_group_name_H-M    'P1'
_symmetry_Int_Tables_number       1
_symmetry_cell_setting            triclinic
loop_
_symmetry_equiv_pos_as_xyz
  x,y,z
_cell_length_a                    13.0785
_cell_length_b                    13.0785
_cell_length_c                    20.0830
_cell_angle_alpha                 90.0000
_cell_angle_beta                  90.0000
_cell_angle_gamma                 120.0000
loop_
_atom_site_label
_atom_site_type_symbol
_atom_site_fract_x
_atom_site_fract_y
_atom_site_fract_z
_atom_site_U_iso_or_equiv
_atom_site_adp_type
_atom_site_occupancy
Cu1    Cu    0.38463  -0.00000   0.00000   0.01267  Uiso   1.00
Cu2    Cu    0.61537   0.61537   0.33333   0.01267  Uiso   1.00
Cu3    Cu    0.00000   0.38463   0.66667   0.01267  Uiso   1.00
H1     H     0.43410   0.17190   0.89330   0.01267  Uiso   1.00
H2     H     0.15340   0.05680   0.77350   0.01267  Uiso   1.00
H3     H     0.04460   0.91590   0.85300   0.01267  Uiso   1.00
H4     H     0.13500   0.89980   0.94800   0.01267  Uiso   1.00
H5     H     0.45630   0.26000   0.79420   0.01267  Uiso   1.00
H6     H     0.52630   0.35380   0.69210   0.01267  Uiso   1.00
H7     H     0.43350   0.49450   0.74120   0.01267  Uiso   1.00
H8     H     0.52070   0.46810   0.78090   0.01267  Uiso   1.00
H9     H     0.58880   0.59480   0.66040   0.01267  Uiso   1.00
H10    H     0.62780   0.70040   0.78690   0.01267  Uiso   1.00
H11    H     0.54440   0.70500   0.73240   0.01267  Uiso   1.00
H12    H     0.68120   0.77050   0.72060   0.01267  Uiso   1.00
H13    H     0.78030   0.65680   0.69330   0.01267  Uiso   1.00
H14    H     0.70820   0.51850   0.69420   0.01267  Uiso   1.00
H15    H     0.73580   0.58920   0.76110   0.01267  Uiso   1.00
H16    H     0.36100   0.38350   0.62360   0.01267  Uiso   1.00
H17    H     0.60480   0.50950   0.46820   0.01267  Uiso   1.00
H18    H     0.35580   0.49630   0.35500   0.01267  Uiso   1.00
H19    H     0.21470   0.38670   0.43320   0.01267  Uiso   1.00
H20    H     0.27240   0.34290   0.53340   0.01267  Uiso   1.00
H21    H     0.73780   0.56590   0.22663   0.01267  Uiso   1.00
H22    H     0.90340   0.84660   0.10683   0.01267  Uiso   1.00
H23    H     0.87130   0.95540   0.18633   0.01267  Uiso   1.00
H24    H     0.76480   0.86500   0.28133   0.01267  Uiso   1.00
H25    H     0.80370   0.54370   0.12753   0.01267  Uiso   1.00
H26    H     0.82750   0.47370   0.02543   0.01267  Uiso   1.00
H27    H     0.06100   0.56650   0.07453   0.01267  Uiso   1.00
H28    H     0.94740   0.47930   0.11423   0.01267  Uiso   1.00
H29    H     0.00600   0.41120   0.99373   0.01267  Uiso   1.00
H30    H     0.07260   0.37220   0.12023   0.01267  Uiso   1.00
H31    H     0.16060   0.45560   0.06573   0.01267  Uiso   1.00
H32    H     0.08930   0.31880   0.05393   0.01267  Uiso   1.00
H33    H     0.87650   0.21970   0.02663   0.01267  Uiso   1.00
H34    H     0.81030   0.29180   0.02753   0.01267  Uiso   1.00
H35    H     0.85340   0.26420   0.09443   0.01267  Uiso   1.00
H36    H     0.02250   0.63900   0.95693   0.01267  Uiso   1.00
H37    H     0.90470   0.39520   0.80153   0.01267  Uiso   1.00
H38    H     0.14050   0.64420   0.68833   0.01267  Uiso   1.00
H39    H     0.17200   0.78530   0.76653   0.01267  Uiso   1.00
H40    H     0.07050   0.72760   0.86673   0.01267  Uiso   1.00
H41    H     0.82810   0.26220   0.55997   0.01267  Uiso   1.00
H42    H     0.94320   0.09660   0.44017   0.01267  Uiso   1.00
H43    H     0.08410   0.12870   0.51967   0.01267  Uiso   1.00
H44    H     0.10020   0.23520   0.61467   0.01267  Uiso   1.00
H45    H     0.74000   0.19630   0.46087   0.01267  Uiso   1.00
H46    H     0.64620   0.17250   0.35877   0.01267  Uiso   1.00
H47    H     0.50550   0.93900   0.40787   0.01267  Uiso   1.00
H48    H     0.53190   0.05260   0.44757   0.01267  Uiso   1.00
H49    H     0.40520   0.99400   0.32707   0.01267  Uiso   1.00
H50    H     0.29960   0.92740   0.45357   0.01267  Uiso   1.00
H51    H     0.29500   0.83940   0.39907   0.01267  Uiso   1.00
H52    H     0.22950   0.91070   0.38727   0.01267  Uiso   1.00
H53    H     0.34320   0.12350   0.35997   0.01267  Uiso   1.00
H54    H     0.48150   0.18970   0.36087   0.01267  Uiso   1.00
H55    H     0.41080   0.14660   0.42777   0.01267  Uiso   1.00
H56    H     0.61650   0.97750   0.29027   0.01267  Uiso   1.00
H57    H     0.49050   0.09530   0.13487   0.01267  Uiso   1.00
H58    H     0.50370   0.85950   0.02167   0.01267  Uiso   1.00
H59    H     0.61330   0.82800   0.09987   0.01267  Uiso   1.00
H60    H     0.65710   0.92950   0.20007   0.01267  Uiso   1.00
H61    H     0.26220   0.82810   0.10670   0.01267  Uiso   1.00
H62    H     0.09660   0.94320   0.22650   0.01267  Uiso   1.00
H63    H     0.12870   0.08410   0.14700   0.01267  Uiso   1.00
H64    H     0.23520   0.10020   0.05200   0.01267  Uiso   1.00
H65    H     0.19630   0.74000   0.20580   0.01267  Uiso   1.00
H66    H     0.17250   0.64620   0.30790   0.01267  Uiso   1.00
H67    H     0.93900   0.50550   0.25880   0.01267  Uiso   1.00
H68    H     0.05260   0.53190   0.21910   0.01267  Uiso   1.00
H69    H     0.99400   0.40520   0.33960   0.01267  Uiso   1.00
H70    H     0.92740   0.29960   0.21310   0.01267  Uiso   1.00
H71    H     0.83940   0.29500   0.26760   0.01267  Uiso   1.00
H72    H     0.91070   0.22950   0.27940   0.01267  Uiso   1.00
H73    H     0.12350   0.34320   0.30670   0.01267  Uiso   1.00
H74    H     0.18970   0.48150   0.30580   0.01267  Uiso   1.00
H75    H     0.14660   0.41080   0.23890   0.01267  Uiso   1.00
H76    H     0.97750   0.61650   0.37640   0.01267  Uiso   1.00
H77    H     0.09530   0.49050   0.53180   0.01267  Uiso   1.00
H78    H     0.85950   0.50370   0.64500   0.01267  Uiso   1.00
H79    H     0.82800   0.61330   0.56680   0.01267  Uiso   1.00
H80    H     0.92950   0.65710   0.46660   0.01267  Uiso   1.00
H81    H     0.17190   0.43410   0.77337   0.01267  Uiso   1.00
H82    H     0.05680   0.15340   0.89317   0.01267  Uiso   1.00
H83    H     0.91590   0.04460   0.81367   0.01267  Uiso   1.00
H84    H     0.89980   0.13500   0.71867   0.01267  Uiso   1.00
H85    H     0.26000   0.45630   0.87247   0.01267  Uiso   1.00
H86    H     0.35380   0.52630   0.97457   0.01267  Uiso   1.00
H87    H     0.49450   0.43350   0.92547   0.01267  Uiso   1.00
H88    H     0.46810   0.52070   0.88577   0.01267  Uiso   1.00
H89    H     0.59480   0.58880   0.00627   0.01267  Uiso   1.00
H90    H     0.70040   0.62780   0.87977   0.01267  Uiso   1.00
H91    H     0.70500   0.54440   0.93427   0.01267  Uiso   1.00
H92    H     0.77050   0.68120   0.94607   0.01267  Uiso   1.00
H93    H     0.65680   0.78030   0.97337   0.01267  Uiso   1.00
H94    H     0.51850   0.70820   0.97247   0.01267  Uiso   1.00
H95    H     0.58920   0.73580   0.90557   0.01267  Uiso   1.00
H96    H     0.38350   0.36100   0.04307   0.01267  Uiso   1.00
H97    H     0.50950   0.60480   0.19847   0.01267  Uiso   1.00
H98    H     0.49630   0.35580   0.31167   0.01267  Uiso   1.00
H99    H     0.38670   0.21470   0.23347   0.01267  Uiso   1.00
H100   H     0.34290   0.27240   0.13327   0.01267  Uiso   1.00
H101   H     0.56590   0.73780   0.44003   0.01267  Uiso   1.00
H102   H     0.84660   0.90340   0.55983   0.01267  Uiso   1.00
H103   H     0.95540   0.87130   0.48033   0.01267  Uiso   1.00
H104   H     0.86500   0.76480   0.38533   0.01267  Uiso   1.00
H105   H     0.54370   0.80370   0.53913   0.01267  Uiso   1.00
H106   H     0.47370   0.82750   0.64123   0.01267  Uiso   1.00
H107   H     0.56650   0.06100   0.59213   0.01267  Uiso   1.00
H108   H     0.47930   0.94740   0.55243   0.01267  Uiso   1.00
H109   H     0.41120   0.00600   0.67293   0.01267  Uiso   1.00
H110   H     0.37220   0.07260   0.54643   0.01267  Uiso   1.00
H111   H     0.45560   0.16060   0.60093   0.01267  Uiso   1.00
H112   H     0.31880   0.08930   0.61273   0.01267  Uiso   1.00
H113   H     0.21970   0.87650   0.64003   0.01267  Uiso   1.00
H114   H     0.29180   0.81030   0.63913   0.01267  Uiso   1.00
H115   H     0.26420   0.85340   0.57223   0.01267  Uiso   1.00
H116   H     0.63900   0.02250   0.70973   0.01267  Uiso   1.00
H117   H     0.39520   0.90470   0.86513   0.01267  Uiso   1.00
H118   H     0.64420   0.14050   0.97833   0.01267  Uiso   1.00
H119   H     0.78530   0.17200   0.90013   0.01267  Uiso   1.00
H120   H     0.72760   0.07050   0.79993   0.01267  Uiso   1.00
C1     C     0.35540   0.11810   0.88403   0.01267  Uiso   1.00
C2     C     0.30640   0.13160   0.82493   0.01267  Uiso   1.00
C3     C     0.18880   0.05260   0.81276   0.01267  Uiso   1.00
C4     C     0.12470   0.96730   0.85967   0.01267  Uiso   1.00
C5     C     0.17920   0.95800   0.91682   0.01267  Uiso   1.00
C6     C     0.35450   0.26450   0.72771   0.01267  Uiso   1.00
C7     C     0.46090   0.37000   0.69519   0.01267  Uiso   1.00
C8     C     0.49980   0.48130   0.73668   0.01267  Uiso   1.00
C9     C     0.60380   0.59210   0.70805   0.01267  Uiso   1.00
C10    C     0.61540   0.70210   0.73990   0.01267  Uiso   1.00
C11    C     0.71740   0.58880   0.71480   0.01267  Uiso   1.00
C12    C     0.49300   0.40030   0.57472   0.01267  Uiso   1.00
C13    C     0.44560   0.42250   0.51127   0.01267  Uiso   1.00
C14    C     0.52560   0.48550   0.46155   0.01267  Uiso   1.00
C15    C     0.37880   0.47700   0.39462   0.01267  Uiso   1.00
C16    C     0.29380   0.41210   0.44151   0.01267  Uiso   1.00
C17    C     0.32800   0.38540   0.50075   0.01267  Uiso   1.00
C18    C     0.76270   0.64460   0.21736   0.01267  Uiso   1.00
C19    C     0.82520   0.69360   0.15826   0.01267  Uiso   1.00
C20    C     0.86380   0.81120   0.14609   0.01267  Uiso   1.00
C21    C     0.84260   0.87530   0.19300   0.01267  Uiso   1.00
C22    C     0.77880   0.82080   0.25015   0.01267  Uiso   1.00
C23    C     0.91000   0.64550   0.06104   0.01267  Uiso   1.00
C24    C     0.90910   0.53910   0.02852   0.01267  Uiso   1.00
C25    C     0.98150   0.50020   0.07001   0.01267  Uiso   1.00
C26    C     0.98830   0.39620   0.04138   0.01267  Uiso   1.00
C27    C     0.08670   0.38460   0.07323   0.01267  Uiso   1.00
C28    C     0.87140   0.28260   0.04813   0.01267  Uiso   1.00
C29    C     0.90730   0.50700   0.90805   0.01267  Uiso   1.00
C30    C     0.97690   0.55440   0.84460   0.01267  Uiso   1.00
C31    C     0.95990   0.47440   0.79488   0.01267  Uiso   1.00
C32    C     0.09820   0.62120   0.72795   0.01267  Uiso   1.00
C33    C     0.11830   0.70620   0.77484   0.01267  Uiso   1.00
C34    C     0.05740   0.67200   0.83408   0.01267  Uiso   1.00
C35    C     0.88190   0.23730   0.55070   0.01267  Uiso   1.00
C36    C     0.86840   0.17480   0.49160   0.01267  Uiso   1.00
C37    C     0.94740   0.13620   0.47943   0.01267  Uiso   1.00
C38    C     0.03270   0.15740   0.52634   0.01267  Uiso   1.00
C39    C     0.04200   0.22120   0.58349   0.01267  Uiso   1.00
C40    C     0.73550   0.09000   0.39438   0.01267  Uiso   1.00
C41    C     0.63000   0.09090   0.36186   0.01267  Uiso   1.00
C42    C     0.51870   0.01850   0.40335   0.01267  Uiso   1.00
C43    C     0.40790   0.01170   0.37472   0.01267  Uiso   1.00
C44    C     0.29790   0.91330   0.40657   0.01267  Uiso   1.00
C45    C     0.41120   0.12860   0.38147   0.01267  Uiso   1.00
C46    C     0.59970   0.09270   0.24139   0.01267  Uiso   1.00
C47    C     0.57750   0.02310   0.17794   0.01267  Uiso   1.00
C48    C     0.51450   0.04010   0.12822   0.01267  Uiso   1.00
C49    C     0.52300   0.90180   0.06129   0.01267  Uiso   1.00
C50    C     0.58790   0.88170   0.10818   0.01267  Uiso   1.00
C51    C     0.61460   0.94260   0.16742   0.01267  Uiso   1.00
C52    C     0.23730   0.88190   0.11597   0.01267  Uiso   1.00
C53    C     0.17480   0.86840   0.17507   0.01267  Uiso   1.00
C54    C     0.13620   0.94740   0.18724   0.01267  Uiso   1.00
C55    C     0.15740   0.03270   0.14033   0.01267  Uiso   1.00
C56    C     0.22120   0.04200   0.08318   0.01267  Uiso   1.00
C57    C     0.09000   0.73550   0.27229   0.01267  Uiso   1.00
C58    C     0.09090   0.63000   0.30481   0.01267  Uiso   1.00
C59    C     0.01850   0.51870   0.26332   0.01267  Uiso   1.00
C60    C     0.01170   0.40790   0.29195   0.01267  Uiso   1.00
C61    C     0.91330   0.29790   0.26010   0.01267  Uiso   1.00
C62    C     0.12860   0.41120   0.28520   0.01267  Uiso   1.00
C63    C     0.09270   0.59970   0.42528   0.01267  Uiso   1.00
C64    C     0.02310   0.57750   0.48873   0.01267  Uiso   1.00
C65    C     0.04010   0.51450   0.53845   0.01267  Uiso   1.00
C66    C     0.90180   0.52300   0.60538   0.01267  Uiso   1.00
C67    C     0.88170   0.58790   0.55849   0.01267  Uiso   1.00
C68    C     0.94260   0.61460   0.49925   0.01267  Uiso   1.00
C69    C     0.11810   0.35540   0.78264   0.01267  Uiso   1.00
C70    C     0.13160   0.30640   0.84174   0.01267  Uiso   1.00
C71    C     0.05260   0.18880   0.85391   0.01267  Uiso   1.00
C72    C     0.96730   0.12470   0.80700   0.01267  Uiso   1.00
C73    C     0.95800   0.17920   0.74985   0.01267  Uiso   1.00
C74    C     0.26450   0.35450   0.93896   0.01267  Uiso   1.00
C75    C     0.37000   0.46090   0.97148   0.01267  Uiso   1.00
C76    C     0.48130   0.49980   0.92999   0.01267  Uiso   1.00
C77    C     0.59210   0.60380   0.95862   0.01267  Uiso   1.00
C78    C     0.70210   0.61540   0.92677   0.01267  Uiso   1.00
C79    C     0.58880   0.71740   0.95187   0.01267  Uiso   1.00
C80    C     0.40030   0.49300   0.09195   0.01267  Uiso   1.00
C81    C     0.42250   0.44560   0.15540   0.01267  Uiso   1.00
C82    C     0.48550   0.52560   0.20512   0.01267  Uiso   1.00
C83    C     0.47700   0.37880   0.27205   0.01267  Uiso   1.00
C84    C     0.41210   0.29380   0.22516   0.01267  Uiso   1.00
C85    C     0.38540   0.32800   0.16592   0.01267  Uiso   1.00
C86    C     0.64460   0.76270   0.44930   0.01267  Uiso   1.00
C87    C     0.69360   0.82520   0.50840   0.01267  Uiso   1.00
C88    C     0.81120   0.86380   0.52057   0.01267  Uiso   1.00
C89    C     0.87530   0.84260   0.47366   0.01267  Uiso   1.00
C90    C     0.82080   0.77880   0.41651   0.01267  Uiso   1.00
C91    C     0.64550   0.91000   0.60562   0.01267  Uiso   1.00
C92    C     0.53910   0.90910   0.63814   0.01267  Uiso   1.00
C93    C     0.50020   0.98150   0.59665   0.01267  Uiso   1.00
C94    C     0.39620   0.98830   0.62528   0.01267  Uiso   1.00
C95    C     0.38460   0.08670   0.59343   0.01267  Uiso   1.00
C96    C     0.28260   0.87140   0.61853   0.01267  Uiso   1.00
C97    C     0.50700   0.90730   0.75861   0.01267  Uiso   1.00
C98    C     0.55440   0.97690   0.82206   0.01267  Uiso   1.00
C99    C     0.47440   0.95990   0.87178   0.01267  Uiso   1.00
C100   C     0.62120   0.09820   0.93871   0.01267  Uiso   1.00
C101   C     0.70620   0.11830   0.89182   0.01267  Uiso   1.00
C102   C     0.67200   0.05740   0.83258   0.01267  Uiso   1.00
N1     N     0.29407   0.03130   0.92763   0.01267  Uiso   1.00
N2     N     0.38290   0.22430   0.78341   0.01267  Uiso   1.00
N3     N     0.42690   0.38480   0.62859   0.01267  Uiso   1.00
N4     N     0.49340   0.51344   0.40397   0.01267  Uiso   1.00
N5     N     0.73723   0.70593   0.26096   0.01267  Uiso   1.00
N6     N     0.84140   0.61710   0.11674   0.01267  Uiso   1.00
N7     N     0.95790   0.57310   0.96192   0.01267  Uiso   1.00
N8     N     0.02004   0.50660   0.73730   0.01267  Uiso   1.00
N9     N     0.96870   0.26277   0.59430   0.01267  Uiso   1.00
N10    N     0.77570   0.15860   0.45008   0.01267  Uiso   1.00
N11    N     0.61520   0.04210   0.29526   0.01267  Uiso   1.00
N12    N     0.48656   0.97996   0.07064   0.01267  Uiso   1.00
N13    N     0.26277   0.96870   0.07237   0.01267  Uiso   1.00
N14    N     0.15860   0.77570   0.21659   0.01267  Uiso   1.00
N15    N     0.04210   0.61520   0.37141   0.01267  Uiso   1.00
N16    N     0.97996   0.48656   0.59603   0.01267  Uiso   1.00
N17    N     0.03130   0.29407   0.73904   0.01267  Uiso   1.00
N18    N     0.22430   0.38290   0.88326   0.01267  Uiso   1.00
N19    N     0.38480   0.42690   0.03808   0.01267  Uiso   1.00
N20    N     0.51344   0.49340   0.26270   0.01267  Uiso   1.00
N21    N     0.70593   0.73723   0.40570   0.01267  Uiso   1.00
N22    N     0.61710   0.84140   0.54992   0.01267  Uiso   1.00
N23    N     0.57310   0.95790   0.70474   0.01267  Uiso   1.00
N24    N     0.50660   0.02004   0.92936   0.01267  Uiso   1.00
O1     O     0.25534   0.22294   0.70668   0.01267  Uiso   1.00
O2     O     0.58580   0.39902   0.57578   0.01267  Uiso   1.00
O3     O     0.96760   0.74466   0.04001   0.01267  Uiso   1.00
O4     O     0.81322   0.41420   0.90911   0.01267  Uiso   1.00
O5     O     0.77706   0.03240   0.37335   0.01267  Uiso   1.00
O6     O     0.60098   0.18678   0.24245   0.01267  Uiso   1.00
O7     O     0.03240   0.77706   0.29332   0.01267  Uiso   1.00
O8     O     0.18678   0.60098   0.42422   0.01267  Uiso   1.00
O9     O     0.22294   0.25534   0.95999   0.01267  Uiso   1.00
O10    O     0.39902   0.58580   0.09089   0.01267  Uiso   1.00
O11    O     0.74466   0.96760   0.62665   0.01267  Uiso   1.00
O12    O     0.41420   0.81322   0.75755   0.01267  Uiso   1.00
