data_PAPPED_clean
_audit_creation_date              2014-07-02
_audit_creation_method            'Materials Studio'
_symmetry_space_group_name_H-M    'P1'
_symmetry_Int_Tables_number       1
_symmetry_cell_setting            triclinic
loop_
_symmetry_equiv_pos_as_xyz
  x,y,z
_cell_length_a                    12.9292
_cell_length_b                    12.9292
_cell_length_c                    20.1039
_cell_angle_alpha                 90.0000
_cell_angle_beta                  90.0000
_cell_angle_gamma                 120.0000
loop_
_atom_site_label
_atom_site_type_symbol
_atom_site_fract_x
_atom_site_fract_y
_atom_site_fract_z
_atom_site_U_iso_or_equiv
_atom_site_adp_type
_atom_site_occupancy
Cu1    Cu    0.62047   1.00000   0.00000   0.01267  Uiso   1.00
Cu2    Cu    0.37953   0.37953   0.33333   0.01267  Uiso   1.00
Cu3    Cu    0.00000   0.62047   0.66667   0.01267  Uiso   1.00
H1     H     0.87140   0.10010   0.94650   0.01267  Uiso   1.00
H2     H     0.95910   0.08800   0.84930   0.01267  Uiso   1.00
H3     H     0.84660   0.94510   0.77020   0.01267  Uiso   1.00
H4     H     0.56870   0.82170   0.89440   0.01267  Uiso   1.00
H5     H     0.54230   0.73750   0.79270   0.01267  Uiso   1.00
H6     H     0.47250   0.64050   0.69160   0.01267  Uiso   1.00
H7     H     0.47850   0.52610   0.78050   0.01267  Uiso   1.00
H8     H     0.56550   0.49810   0.74050   0.01267  Uiso   1.00
H9     H     0.40630   0.39440   0.66050   0.01267  Uiso   1.00
H10    H     0.21300   0.33060   0.69820   0.01267  Uiso   1.00
H11    H     0.28550   0.46950   0.68870   0.01267  Uiso   1.00
H12    H     0.26590   0.41440   0.76020   0.01267  Uiso   1.00
H13    H     0.37590   0.29660   0.78890   0.01267  Uiso   1.00
H14    H     0.44700   0.28030   0.73060   0.01267  Uiso   1.00
H15    H     0.30760   0.21970   0.72660   0.01267  Uiso   1.00
H16    H     0.63840   0.60750   0.62340   0.01267  Uiso   1.00
H17    H     0.72890   0.64970   0.53250   0.01267  Uiso   1.00
H18    H     0.78550   0.60570   0.43160   0.01267  Uiso   1.00
H19    H     0.64220   0.49590   0.35420   0.01267  Uiso   1.00
H20    H     0.39360   0.48920   0.46690   0.01267  Uiso   1.00
H21    H     0.22870   0.12860   0.27983   0.01267  Uiso   1.00
H22    H     0.12890   0.04090   0.18263   0.01267  Uiso   1.00
H23    H     0.09850   0.15340   0.10353   0.01267  Uiso   1.00
H24    H     0.25300   0.43130   0.22773   0.01267  Uiso   1.00
H25    H     0.19520   0.45770   0.12603   0.01267  Uiso   1.00
H26    H     0.16800   0.52750   0.02493   0.01267  Uiso   1.00
H27    H     0.04760   0.52150   0.11383   0.01267  Uiso   1.00
H28    H     0.93260   0.43450   0.07383   0.01267  Uiso   1.00
H29    H     0.98810   0.59370   0.99383   0.01267  Uiso   1.00
H30    H     0.11760   0.78700   0.03153   0.01267  Uiso   1.00
H31    H     0.18400   0.71450   0.02203   0.01267  Uiso   1.00
H32    H     0.14850   0.73410   0.09353   0.01267  Uiso   1.00
H33    H     0.92070   0.62410   0.12223   0.01267  Uiso   1.00
H34    H     0.83330   0.55300   0.06393   0.01267  Uiso   1.00
H35    H     0.91210   0.69240   0.05993   0.01267  Uiso   1.00
H36    H     0.96910   0.36160   0.95673   0.01267  Uiso   1.00
H37    H     0.92080   0.27110   0.86583   0.01267  Uiso   1.00
H38    H     0.82020   0.21450   0.76493   0.01267  Uiso   1.00
H39    H     0.85370   0.35780   0.68753   0.01267  Uiso   1.00
H40    H     0.09560   0.60640   0.80023   0.01267  Uiso   1.00
H41    H     0.89990   0.77130   0.61317   0.01267  Uiso   1.00
H42    H     0.91200   0.87110   0.51597   0.01267  Uiso   1.00
H43    H     0.05490   0.90150   0.43687   0.01267  Uiso   1.00
H44    H     0.17830   0.74700   0.56107   0.01267  Uiso   1.00
H45    H     0.26250   0.80480   0.45937   0.01267  Uiso   1.00
H46    H     0.35950   0.83200   0.35827   0.01267  Uiso   1.00
H47    H     0.47390   0.95240   0.44717   0.01267  Uiso   1.00
H48    H     0.50190   0.06740   0.40717   0.01267  Uiso   1.00
H49    H     0.60560   0.01190   0.32717   0.01267  Uiso   1.00
H50    H     0.66940   0.88240   0.36487   0.01267  Uiso   1.00
H51    H     0.53050   0.81600   0.35537   0.01267  Uiso   1.00
H52    H     0.58560   0.85150   0.42687   0.01267  Uiso   1.00
H53    H     0.70340   0.07930   0.45557   0.01267  Uiso   1.00
H54    H     0.71970   0.16670   0.39727   0.01267  Uiso   1.00
H55    H     0.78030   0.08790   0.39327   0.01267  Uiso   1.00
H56    H     0.39250   0.03090   0.29007   0.01267  Uiso   1.00
H57    H     0.35030   0.07920   0.19917   0.01267  Uiso   1.00
H58    H     0.39430   0.17980   0.09827   0.01267  Uiso   1.00
H59    H     0.50410   0.14630   0.02087   0.01267  Uiso   1.00
H60    H     0.51080   0.90440   0.13357   0.01267  Uiso   1.00
H61    H     0.77130   0.89990   0.05350   0.01267  Uiso   1.00
H62    H     0.87110   0.91200   0.15070   0.01267  Uiso   1.00
H63    H     0.90150   0.05490   0.22980   0.01267  Uiso   1.00
H64    H     0.74700   0.17830   0.10560   0.01267  Uiso   1.00
H65    H     0.80480   0.26250   0.20730   0.01267  Uiso   1.00
H66    H     0.83200   0.35950   0.30840   0.01267  Uiso   1.00
H67    H     0.95240   0.47390   0.21950   0.01267  Uiso   1.00
H68    H     0.06740   0.50190   0.25950   0.01267  Uiso   1.00
H69    H     0.01190   0.60560   0.33950   0.01267  Uiso   1.00
H70    H     0.88240   0.66940   0.30180   0.01267  Uiso   1.00
H71    H     0.81600   0.53050   0.31130   0.01267  Uiso   1.00
H72    H     0.85150   0.58560   0.23980   0.01267  Uiso   1.00
H73    H     0.07930   0.70340   0.21110   0.01267  Uiso   1.00
H74    H     0.16670   0.71970   0.26940   0.01267  Uiso   1.00
H75    H     0.08790   0.78030   0.27340   0.01267  Uiso   1.00
H76    H     0.03090   0.39250   0.37660   0.01267  Uiso   1.00
H77    H     0.07920   0.35030   0.46750   0.01267  Uiso   1.00
H78    H     0.17980   0.39430   0.56840   0.01267  Uiso   1.00
H79    H     0.14630   0.50410   0.64580   0.01267  Uiso   1.00
H80    H     0.90440   0.51080   0.53310   0.01267  Uiso   1.00
H81    H     0.10010   0.87140   0.72017   0.01267  Uiso   1.00
H82    H     0.08800   0.95910   0.81737   0.01267  Uiso   1.00
H83    H     0.94510   0.84660   0.89647   0.01267  Uiso   1.00
H84    H     0.82170   0.56870   0.77227   0.01267  Uiso   1.00
H85    H     0.73750   0.54230   0.87397   0.01267  Uiso   1.00
H86    H     0.64050   0.47250   0.97507   0.01267  Uiso   1.00
H87    H     0.52610   0.47850   0.88617   0.01267  Uiso   1.00
H88    H     0.49810   0.56550   0.92617   0.01267  Uiso   1.00
H89    H     0.39440   0.40630   0.00617   0.01267  Uiso   1.00
H90    H     0.33060   0.21300   0.96847   0.01267  Uiso   1.00
H91    H     0.46950   0.28550   0.97797   0.01267  Uiso   1.00
H92    H     0.41440   0.26590   0.90647   0.01267  Uiso   1.00
H93    H     0.29660   0.37590   0.87777   0.01267  Uiso   1.00
H94    H     0.28030   0.44700   0.93607   0.01267  Uiso   1.00
H95    H     0.21970   0.30760   0.94007   0.01267  Uiso   1.00
H96    H     0.60750   0.63840   0.04327   0.01267  Uiso   1.00
H97    H     0.64970   0.72890   0.13417   0.01267  Uiso   1.00
H98    H     0.60570   0.78550   0.23507   0.01267  Uiso   1.00
H99    H     0.49590   0.64220   0.31247   0.01267  Uiso   1.00
H100   H     0.48920   0.39360   0.19977   0.01267  Uiso   1.00
H101   H     0.12860   0.22870   0.38683   0.01267  Uiso   1.00
H102   H     0.04090   0.12890   0.48403   0.01267  Uiso   1.00
H103   H     0.15340   0.09850   0.56313   0.01267  Uiso   1.00
H104   H     0.43130   0.25300   0.43893   0.01267  Uiso   1.00
H105   H     0.45770   0.19520   0.54063   0.01267  Uiso   1.00
H106   H     0.52750   0.16800   0.64173   0.01267  Uiso   1.00
H107   H     0.52150   0.04760   0.55283   0.01267  Uiso   1.00
H108   H     0.43450   0.93260   0.59283   0.01267  Uiso   1.00
H109   H     0.59370   0.98810   0.67283   0.01267  Uiso   1.00
H110   H     0.78700   0.11760   0.63513   0.01267  Uiso   1.00
H111   H     0.71450   0.18400   0.64463   0.01267  Uiso   1.00
H112   H     0.73410   0.14850   0.57313   0.01267  Uiso   1.00
H113   H     0.62410   0.92070   0.54443   0.01267  Uiso   1.00
H114   H     0.55300   0.83330   0.60273   0.01267  Uiso   1.00
H115   H     0.69240   0.91210   0.60673   0.01267  Uiso   1.00
H116   H     0.36160   0.96910   0.70993   0.01267  Uiso   1.00
H117   H     0.27110   0.92080   0.80083   0.01267  Uiso   1.00
H118   H     0.21450   0.82020   0.90173   0.01267  Uiso   1.00
H119   H     0.35780   0.85370   0.97913   0.01267  Uiso   1.00
H120   H     0.60640   0.09560   0.86643   0.01267  Uiso   1.00
C1     C     0.82580   0.04160   0.91544   0.01267  Uiso   1.00
C2     C     0.87870   0.03450   0.85704   0.01267  Uiso   1.00
C3     C     0.81240   0.94820   0.81029   0.01267  Uiso   1.00
C4     C     0.69490   0.86670   0.82412   0.01267  Uiso   1.00
C5     C     0.64740   0.87780   0.88414   0.01267  Uiso   1.00
C6     C     0.64600   0.73240   0.72703   0.01267  Uiso   1.00
C7     C     0.53880   0.62440   0.69501   0.01267  Uiso   1.00
C8     C     0.49880   0.51220   0.73625   0.01267  Uiso   1.00
C9     C     0.39160   0.39910   0.70788   0.01267  Uiso   1.00
C10    C     0.27890   0.40380   0.71430   0.01267  Uiso   1.00
C11    C     0.37940   0.28880   0.74160   0.01267  Uiso   1.00
C12    C     0.50700   0.59540   0.57425   0.01267  Uiso   1.00
C13    C     0.55370   0.57270   0.51081   0.01267  Uiso   1.00
C14    C     0.67210   0.60790   0.49983   0.01267  Uiso   1.00
C15    C     0.70570   0.58070   0.44013   0.01267  Uiso   1.00
C16    C     0.61970   0.51640   0.39375   0.01267  Uiso   1.00
C17    C     0.47320   0.51120   0.46051   0.01267  Uiso   1.00
C18    C     0.21580   0.17420   0.24877   0.01267  Uiso   1.00
C19    C     0.15580   0.12130   0.19037   0.01267  Uiso   1.00
C20    C     0.13580   0.18760   0.14362   0.01267  Uiso   1.00
C21    C     0.17180   0.30510   0.15745   0.01267  Uiso   1.00
C22    C     0.23040   0.35260   0.21747   0.01267  Uiso   1.00
C23    C     0.08640   0.35400   0.06036   0.01267  Uiso   1.00
C24    C     0.08560   0.46120   0.02834   0.01267  Uiso   1.00
C25    C     0.01340   0.50120   0.06958   0.01267  Uiso   1.00
C26    C     0.00750   0.60840   0.04121   0.01267  Uiso   1.00
C27    C     0.12490   0.72110   0.04763   0.01267  Uiso   1.00
C28    C     0.90940   0.62060   0.07493   0.01267  Uiso   1.00
C29    C     0.08840   0.49300   0.90758   0.01267  Uiso   1.00
C30    C     0.01900   0.44630   0.84414   0.01267  Uiso   1.00
C31    C     0.93580   0.32790   0.83316   0.01267  Uiso   1.00
C32    C     0.87500   0.29430   0.77346   0.01267  Uiso   1.00
C33    C     0.89670   0.38030   0.72708   0.01267  Uiso   1.00
C34    C     0.03800   0.52680   0.79384   0.01267  Uiso   1.00
C35    C     0.95840   0.78420   0.58211   0.01267  Uiso   1.00
C36    C     0.96550   0.84420   0.52371   0.01267  Uiso   1.00
C37    C     0.05180   0.86420   0.47696   0.01267  Uiso   1.00
C38    C     0.13330   0.82820   0.49079   0.01267  Uiso   1.00
C39    C     0.12220   0.76960   0.55081   0.01267  Uiso   1.00
C40    C     0.26760   0.91360   0.39370   0.01267  Uiso   1.00
C41    C     0.37560   0.91440   0.36168   0.01267  Uiso   1.00
C42    C     0.48780   0.98660   0.40292   0.01267  Uiso   1.00
C43    C     0.60090   0.99250   0.37455   0.01267  Uiso   1.00
C44    C     0.59620   0.87510   0.38097   0.01267  Uiso   1.00
C45    C     0.71120   0.09060   0.40827   0.01267  Uiso   1.00
C46    C     0.40460   0.91160   0.24092   0.01267  Uiso   1.00
C47    C     0.42730   0.98100   0.17748   0.01267  Uiso   1.00
C48    C     0.39210   0.06420   0.16650   0.01267  Uiso   1.00
C49    C     0.41930   0.12500   0.10680   0.01267  Uiso   1.00
C50    C     0.48360   0.10330   0.06042   0.01267  Uiso   1.00
C51    C     0.48880   0.96200   0.12718   0.01267  Uiso   1.00
C52    C     0.78420   0.95840   0.08456   0.01267  Uiso   1.00
C53    C     0.84420   0.96550   0.14296   0.01267  Uiso   1.00
C54    C     0.86420   0.05180   0.18971   0.01267  Uiso   1.00
C55    C     0.82820   0.13330   0.17588   0.01267  Uiso   1.00
C56    C     0.76960   0.12220   0.11586   0.01267  Uiso   1.00
C57    C     0.91360   0.26760   0.27297   0.01267  Uiso   1.00
C58    C     0.91440   0.37560   0.30499   0.01267  Uiso   1.00
C59    C     0.98660   0.48780   0.26375   0.01267  Uiso   1.00
C60    C     0.99250   0.60090   0.29212   0.01267  Uiso   1.00
C61    C     0.87510   0.59620   0.28570   0.01267  Uiso   1.00
C62    C     0.09060   0.71120   0.25840   0.01267  Uiso   1.00
C63    C     0.91160   0.40460   0.42575   0.01267  Uiso   1.00
C64    C     0.98100   0.42730   0.48919   0.01267  Uiso   1.00
C65    C     0.06420   0.39210   0.50017   0.01267  Uiso   1.00
C66    C     0.12500   0.41930   0.55987   0.01267  Uiso   1.00
C67    C     0.10330   0.48360   0.60625   0.01267  Uiso   1.00
C68    C     0.96200   0.48880   0.53949   0.01267  Uiso   1.00
C69    C     0.04160   0.82580   0.75123   0.01267  Uiso   1.00
C70    C     0.03450   0.87870   0.80963   0.01267  Uiso   1.00
C71    C     0.94820   0.81240   0.85638   0.01267  Uiso   1.00
C72    C     0.86670   0.69490   0.84255   0.01267  Uiso   1.00
C73    C     0.87780   0.64740   0.78253   0.01267  Uiso   1.00
C74    C     0.73240   0.64600   0.93964   0.01267  Uiso   1.00
C75    C     0.62440   0.53880   0.97166   0.01267  Uiso   1.00
C76    C     0.51220   0.49880   0.93042   0.01267  Uiso   1.00
C77    C     0.39910   0.39160   0.95879   0.01267  Uiso   1.00
C78    C     0.40380   0.27890   0.95237   0.01267  Uiso   1.00
C79    C     0.28880   0.37940   0.92507   0.01267  Uiso   1.00
C80    C     0.59540   0.50700   0.09242   0.01267  Uiso   1.00
C81    C     0.57270   0.55370   0.15586   0.01267  Uiso   1.00
C82    C     0.60790   0.67210   0.16684   0.01267  Uiso   1.00
C83    C     0.58070   0.70570   0.22654   0.01267  Uiso   1.00
C84    C     0.51640   0.61970   0.27292   0.01267  Uiso   1.00
C85    C     0.51120   0.47320   0.20616   0.01267  Uiso   1.00
C86    C     0.17420   0.21580   0.41789   0.01267  Uiso   1.00
C87    C     0.12130   0.15580   0.47629   0.01267  Uiso   1.00
C88    C     0.18760   0.13580   0.52304   0.01267  Uiso   1.00
C89    C     0.30510   0.17180   0.50921   0.01267  Uiso   1.00
C90    C     0.35260   0.23040   0.44919   0.01267  Uiso   1.00
C91    C     0.35400   0.08640   0.60630   0.01267  Uiso   1.00
C92    C     0.46120   0.08560   0.63832   0.01267  Uiso   1.00
C93    C     0.50120   0.01340   0.59708   0.01267  Uiso   1.00
C94    C     0.60840   0.00750   0.62545   0.01267  Uiso   1.00
C95    C     0.72110   0.12490   0.61903   0.01267  Uiso   1.00
C96    C     0.62060   0.90940   0.59173   0.01267  Uiso   1.00
C97    C     0.49300   0.08840   0.75908   0.01267  Uiso   1.00
C98    C     0.44630   0.01900   0.82252   0.01267  Uiso   1.00
C99    C     0.32790   0.93580   0.83350   0.01267  Uiso   1.00
C100   C     0.29430   0.87500   0.89320   0.01267  Uiso   1.00
C101   C     0.38030   0.89670   0.93958   0.01267  Uiso   1.00
C102   C     0.52680   0.03800   0.87282   0.01267  Uiso   1.00
N1     N     0.71040   0.96600   0.92799   0.01267  Uiso   1.00
N2     N     0.61680   0.77310   0.78228   0.01267  Uiso   1.00
N3     N     0.57280   0.60850   0.62824   0.01267  Uiso   1.00
N4     N     0.50420   0.48180   0.40315   0.01267  Uiso   1.00
N5     N     0.25560   0.28960   0.26132   0.01267  Uiso   1.00
N6     N     0.15630   0.38320   0.11561   0.01267  Uiso   1.00
N7     N     0.03570   0.42720   0.96157   0.01267  Uiso   1.00
N8     N     0.97760   0.49580   0.73648   0.01267  Uiso   1.00
N9     N     0.03400   0.74440   0.59466   0.01267  Uiso   1.00
N10    N     0.22690   0.84370   0.44895   0.01267  Uiso   1.00
N11    N     0.39150   0.96430   0.29491   0.01267  Uiso   1.00
N12    N     0.51820   0.02240   0.06982   0.01267  Uiso   1.00
N13    N     0.74440   0.03400   0.07201   0.01267  Uiso   1.00
N14    N     0.84370   0.22690   0.21772   0.01267  Uiso   1.00
N15    N     0.96430   0.39150   0.37176   0.01267  Uiso   1.00
N16    N     0.02240   0.51820   0.59685   0.01267  Uiso   1.00
N17    N     0.96600   0.71040   0.73868   0.01267  Uiso   1.00
N18    N     0.77310   0.61680   0.88439   0.01267  Uiso   1.00
N19    N     0.60850   0.57280   0.03843   0.01267  Uiso   1.00
N20    N     0.48180   0.50420   0.26352   0.01267  Uiso   1.00
N21    N     0.28960   0.25560   0.40534   0.01267  Uiso   1.00
N22    N     0.38320   0.15630   0.55105   0.01267  Uiso   1.00
N23    N     0.42720   0.03570   0.70509   0.01267  Uiso   1.00
N24    N     0.49580   0.97760   0.93018   0.01267  Uiso   1.00
O1     O     0.74620   0.77410   0.70578   0.01267  Uiso   1.00
O2     O     0.41490   0.60030   0.57535   0.01267  Uiso   1.00
O3     O     0.02790   0.25380   0.03911   0.01267  Uiso   1.00
O4     O     0.18540   0.58510   0.90868   0.01267  Uiso   1.00
O5     O     0.22590   0.97210   0.37245   0.01267  Uiso   1.00
O6     O     0.39970   0.81460   0.24202   0.01267  Uiso   1.00
O7     O     0.97210   0.22590   0.29422   0.01267  Uiso   1.00
O8     O     0.81460   0.39970   0.42465   0.01267  Uiso   1.00
O9     O     0.77410   0.74620   0.96089   0.01267  Uiso   1.00
O10    O     0.60030   0.41490   0.09132   0.01267  Uiso   1.00
O11    O     0.25380   0.02790   0.62755   0.01267  Uiso   1.00
O12    O     0.58510   0.18540   0.75798   0.01267  Uiso   1.00
