data_PAPRUU_clean
_audit_creation_date              2014-07-02
_audit_creation_method            'Materials Studio'
_symmetry_space_group_name_H-M    'P1'
_symmetry_Int_Tables_number       1
_symmetry_cell_setting            triclinic
loop_
_symmetry_equiv_pos_as_xyz
  x,y,z
_cell_length_a                    7.4881
_cell_length_b                    13.2539
_cell_length_c                    13.2539
_cell_angle_alpha                 120.0000
_cell_angle_beta                  90.0000
_cell_angle_gamma                 90.0000
loop_
_atom_site_label
_atom_site_type_symbol
_atom_site_fract_x
_atom_site_fract_y
_atom_site_fract_z
_atom_site_U_iso_or_equiv
_atom_site_adp_type
_atom_site_occupancy
La1    La    0.33051   0.66667   0.33334   0.01267  Uiso   1.00
La2    La    0.66949   0.33333   0.66666   0.01267  Uiso   1.00
Ni1    Ni    0.00000   0.50000   0.50000   0.01267  Uiso   1.00
Ni2    Ni    0.00000   0.00000   0.50000   0.01267  Uiso   1.00
Ni3    Ni    0.00000   0.50000   0.00000   0.01267  Uiso   1.00
H1     H     0.71470   0.73120   0.55750   0.01267  Uiso   1.00
H2     H     0.60520   0.66650   0.60860   0.01267  Uiso   1.00
H3     H     0.83890   0.64550   0.68200   0.01267  Uiso   1.00
H4     H     0.06630   0.75570   0.71780   0.01267  Uiso   1.00
H5     H     0.93510   0.81630   0.67220   0.01267  Uiso   1.00
H6     H     0.71470   0.82630   0.26880   0.01267  Uiso   1.00
H7     H     0.60520   0.94210   0.33350   0.01267  Uiso   1.00
H8     H     0.83890   0.03650   0.35450   0.01267  Uiso   1.00
H9     H     0.06630   0.96210   0.24430   0.01267  Uiso   1.00
H10    H     0.93510   0.85590   0.18370   0.01267  Uiso   1.00
H11    H     0.71470   0.44250   0.17370   0.01267  Uiso   1.00
H12    H     0.60520   0.39140   0.05790   0.01267  Uiso   1.00
H13    H     0.83890   0.31800   0.96350   0.01267  Uiso   1.00
H14    H     0.06630   0.28220   0.03790   0.01267  Uiso   1.00
H15    H     0.93510   0.32780   0.14410   0.01267  Uiso   1.00
H16    H     0.28530   0.26880   0.44250   0.01267  Uiso   1.00
H17    H     0.39480   0.33350   0.39140   0.01267  Uiso   1.00
H18    H     0.16110   0.35450   0.31800   0.01267  Uiso   1.00
H19    H     0.93370   0.24430   0.28220   0.01267  Uiso   1.00
H20    H     0.06490   0.18370   0.32780   0.01267  Uiso   1.00
H21    H     0.28530   0.17370   0.73120   0.01267  Uiso   1.00
H22    H     0.39480   0.05790   0.66650   0.01267  Uiso   1.00
H23    H     0.16110   0.96350   0.64550   0.01267  Uiso   1.00
H24    H     0.93370   0.03790   0.75570   0.01267  Uiso   1.00
H25    H     0.06490   0.14410   0.81630   0.01267  Uiso   1.00
H26    H     0.28530   0.55750   0.82630   0.01267  Uiso   1.00
H27    H     0.39480   0.60860   0.94210   0.01267  Uiso   1.00
H28    H     0.16110   0.68200   0.03650   0.01267  Uiso   1.00
H29    H     0.93370   0.71780   0.96210   0.01267  Uiso   1.00
H30    H     0.06490   0.67220   0.85590   0.01267  Uiso   1.00
C1     C     0.67660   0.56040   0.44020   0.01267  Uiso   1.00
C2     C     0.70760   0.65990   0.56090   0.01267  Uiso   1.00
C3     C     0.99850   0.74450   0.65060   0.01267  Uiso   1.00
C4     C     0.12580   0.71780   0.55110   0.01267  Uiso   1.00
C5     C     0.67660   0.87980   0.43960   0.01267  Uiso   1.00
C6     C     0.70760   0.90100   0.34010   0.01267  Uiso   1.00
C7     C     0.99850   0.90610   0.25550   0.01267  Uiso   1.00
C8     C     0.12580   0.83330   0.28220   0.01267  Uiso   1.00
C9     C     0.67660   0.55980   0.12020   0.01267  Uiso   1.00
C10    C     0.70760   0.43910   0.09900   0.01267  Uiso   1.00
C11    C     0.99850   0.34940   0.09390   0.01267  Uiso   1.00
C12    C     0.12580   0.44890   0.16670   0.01267  Uiso   1.00
C13    C     0.32340   0.43960   0.55980   0.01267  Uiso   1.00
C14    C     0.29240   0.34010   0.43910   0.01267  Uiso   1.00
C15    C     0.00150   0.25550   0.34940   0.01267  Uiso   1.00
C16    C     0.87420   0.28220   0.44890   0.01267  Uiso   1.00
C17    C     0.32340   0.12020   0.56040   0.01267  Uiso   1.00
C18    C     0.29240   0.09900   0.65990   0.01267  Uiso   1.00
C19    C     0.00150   0.09390   0.74450   0.01267  Uiso   1.00
C20    C     0.87420   0.16670   0.71780   0.01267  Uiso   1.00
C21    C     0.32340   0.44020   0.87980   0.01267  Uiso   1.00
C22    C     0.29240   0.56090   0.90100   0.01267  Uiso   1.00
C23    C     0.00150   0.65060   0.90610   0.01267  Uiso   1.00
C24    C     0.87420   0.55110   0.83330   0.01267  Uiso   1.00
N1     N     0.86950   0.65014   0.61804   0.01267  Uiso   1.00
N2     N     0.86950   0.96790   0.34986   0.01267  Uiso   1.00
N3     N     0.86950   0.38196   0.03210   0.01267  Uiso   1.00
N4     N     0.13050   0.34986   0.38196   0.01267  Uiso   1.00
N5     N     0.13050   0.03210   0.65014   0.01267  Uiso   1.00
N6     N     0.13050   0.61804   0.96790   0.01267  Uiso   1.00
O1     O     0.53950   0.56580   0.38970   0.01267  Uiso   1.00
O2     O     0.78510   0.47644   0.39616   0.01267  Uiso   1.00
O3     O     0.11050   0.62027   0.45805   0.01267  Uiso   1.00
O4     O     0.23940   0.79012   0.56127   0.01267  Uiso   1.00
O5     O     0.53950   0.82390   0.43420   0.01267  Uiso   1.00
O6     O     0.78510   0.91972   0.52356   0.01267  Uiso   1.00
O7     O     0.11050   0.83778   0.37973   0.01267  Uiso   1.00
O8     O     0.23940   0.77115   0.20988   0.01267  Uiso   1.00
O9     O     0.53950   0.61030   0.17610   0.01267  Uiso   1.00
O10    O     0.78510   0.60384   0.08028   0.01267  Uiso   1.00
O11    O     0.11050   0.54195   0.16222   0.01267  Uiso   1.00
O12    O     0.23940   0.43873   0.22885   0.01267  Uiso   1.00
O13    O     0.46050   0.43420   0.61030   0.01267  Uiso   1.00
O14    O     0.21490   0.52356   0.60384   0.01267  Uiso   1.00
O15    O     0.88950   0.37973   0.54195   0.01267  Uiso   1.00
O16    O     0.76060   0.20988   0.43873   0.01267  Uiso   1.00
O17    O     0.46050   0.17610   0.56580   0.01267  Uiso   1.00
O18    O     0.21490   0.08028   0.47644   0.01267  Uiso   1.00
O19    O     0.88950   0.16222   0.62027   0.01267  Uiso   1.00
O20    O     0.76060   0.22885   0.79012   0.01267  Uiso   1.00
O21    O     0.46050   0.38970   0.82390   0.01267  Uiso   1.00
O22    O     0.21490   0.39616   0.91972   0.01267  Uiso   1.00
O23    O     0.88950   0.45805   0.83778   0.01267  Uiso   1.00
O24    O     0.76060   0.56127   0.77115   0.01267  Uiso   1.00
