data_image0
_cell_length_a       19.869
_cell_length_b       19.869
_cell_length_c       27.47
_cell_angle_alpha    90
_cell_angle_beta     90
_cell_angle_gamma    120

_symmetry_space_group_name_H-M    "P 1"
_symmetry_int_tables_number       1

loop_
  _symmetry_equiv_pos_as_xyz
  'x, y, z'

loop_
  _atom_site_label
  _atom_site_occupancy
  _atom_site_fract_x
  _atom_site_fract_y
  _atom_site_fract_z
  _atom_site_thermal_displace_type
  _atom_site_B_iso_or_equiv
  _atom_site_type_symbol
  Pr1      1.0000 0.48494  0.52753  0.92978  Biso   1.000  Pr
  C1       1.0000 0.10750  0.46160  0.03050  Biso   1.000  C
  C2       1.0000 0.16390  0.43760  0.04540  Biso   1.000  C
  C3       1.0000 0.22920  0.45820  0.01830  Biso   1.000  C
  H1       1.0000 0.23680  0.48610  0.98960  Biso   1.000  H
  O1       1.0000 0.35570  0.48730  0.96290  Biso   1.000  O
  C4       1.0000 0.28320  0.43930  0.03200  Biso   1.000  C
  C5       1.0000 0.35460  0.46330  0.00530  Biso   1.000  C
  O2       1.0000 0.41130  0.46080  0.02230  Biso   1.000  O
  C6       1.0000 0.27290  0.39840  0.07480  Biso   1.000  C
  H2       1.0000 0.31000  0.38640  0.08540  Biso   1.000  H
  O3       1.0000 0.05460  0.45030  0.05950  Biso   1.000  O
  C7       1.0000 0.20710  0.37640  0.10060  Biso   1.000  C
  O4       1.0000 0.11650  0.49060  0.99100  Biso   1.000  O
  C8       1.0000 0.15320  0.39720  0.08730  Biso   1.000  C
  H3       1.0000 0.11000  0.38380  0.10670  Biso   1.000  H
  O5       1.0000 0.18500  0.33140  0.14410  Biso   1.000  O
  C9       1.0000 0.23590  0.30340  0.15930  Biso   1.000  C
  H4       1.0000 0.28760  0.34640  0.16580  Biso   1.000  H
  H5       1.0000 0.23940  0.27070  0.13440  Biso   1.000  H
  C10      1.0000 0.14880  0.17910  0.20590  Biso   1.000  C
  C11      1.0000 0.12850  0.14530  0.15610  Biso   1.000  C
  H6       1.0000 0.15280  0.18600  0.13240  Biso   1.000  H
  H7       1.0000 0.07310  0.11910  0.15190  Biso   1.000  H
  H8       1.0000 0.14640  0.10880  0.15190  Biso   1.000  H
  C12      1.0000 0.19890  0.25590  0.20630  Biso   1.000  C
  Pr2      1.0000 0.47247  0.95741  0.92978  Biso   1.000  Pr
  C13      1.0000 0.53840  0.64590  0.03050  Biso   1.000  C
  C14      1.0000 0.56240  0.72630  0.04540  Biso   1.000  C
  C15      1.0000 0.54180  0.77100  0.01830  Biso   1.000  C
  H9       1.0000 0.51390  0.75070  0.98960  Biso   1.000  H
  O6       1.0000 0.51270  0.86840  0.96290  Biso   1.000  O
  C16      1.0000 0.56070  0.84390  0.03200  Biso   1.000  C
  C17      1.0000 0.53670  0.89130  0.00530  Biso   1.000  C
  O7       1.0000 0.53920  0.95050  0.02230  Biso   1.000  O
  C18      1.0000 0.60160  0.87450  0.07480  Biso   1.000  C
  H10      1.0000 0.61360  0.92360  0.08540  Biso   1.000  H
  O8       1.0000 0.54970  0.60430  0.05950  Biso   1.000  O
  C19      1.0000 0.62360  0.83070  0.10060  Biso   1.000  C
  O9       1.0000 0.50940  0.62590  0.99100  Biso   1.000  O
  C20      1.0000 0.60280  0.75600  0.08730  Biso   1.000  C
  H11      1.0000 0.61620  0.72620  0.10670  Biso   1.000  H
  O10      1.0000 0.66860  0.85360  0.14410  Biso   1.000  O
  C21      1.0000 0.69660  0.93250  0.15930  Biso   1.000  C
  H12      1.0000 0.65360  0.94120  0.16580  Biso   1.000  H
  H13      1.0000 0.72930  0.96870  0.13440  Biso   1.000  H
  C22      1.0000 0.82090  0.96970  0.20590  Biso   1.000  C
  C23      1.0000 0.85470  0.98320  0.15610  Biso   1.000  C
  H14      1.0000 0.81400  0.96680  0.13240  Biso   1.000  H
  H15      1.0000 0.88090  0.95400  0.15190  Biso   1.000  H
  H16      1.0000 0.89120  0.03760  0.15190  Biso   1.000  H
  C24      1.0000 0.74410  0.94300  0.20630  Biso   1.000  C
  Pr3      1.0000 0.04259  0.51506  0.92978  Biso   1.000  Pr
  C25      1.0000 0.35410  0.89250  0.03050  Biso   1.000  C
  C26      1.0000 0.27370  0.83610  0.04540  Biso   1.000  C
  C27      1.0000 0.22900  0.77080  0.01830  Biso   1.000  C
  H17      1.0000 0.24930  0.76320  0.98960  Biso   1.000  H
  O11      1.0000 0.13160  0.64430  0.96290  Biso   1.000  O
  C28      1.0000 0.15610  0.71680  0.03200  Biso   1.000  C
  C29      1.0000 0.10870  0.64540  0.00530  Biso   1.000  C
  O12      1.0000 0.04950  0.58870  0.02230  Biso   1.000  O
  C30      1.0000 0.12550  0.72710  0.07480  Biso   1.000  C
  H18      1.0000 0.07640  0.69000  0.08540  Biso   1.000  H
  O13      1.0000 0.39570  0.94540  0.05950  Biso   1.000  O
  C31      1.0000 0.16930  0.79290  0.10060  Biso   1.000  C
  O14      1.0000 0.37410  0.88350  0.99100  Biso   1.000  O
  C32      1.0000 0.24400  0.84680  0.08730  Biso   1.000  C
  H19      1.0000 0.27380  0.89000  0.10670  Biso   1.000  H
  O15      1.0000 0.14640  0.81500  0.14410  Biso   1.000  O
  C33      1.0000 0.06750  0.76410  0.15930  Biso   1.000  C
  H20      1.0000 0.05880  0.71240  0.16580  Biso   1.000  H
  H21      1.0000 0.03130  0.76060  0.13440  Biso   1.000  H
  C34      1.0000 0.03030  0.85120  0.20590  Biso   1.000  C
  C35      1.0000 0.01680  0.87150  0.15610  Biso   1.000  C
  H22      1.0000 0.03320  0.84720  0.13240  Biso   1.000  H
  H23      1.0000 0.04600  0.92690  0.15190  Biso   1.000  H
  H24      1.0000 0.96240  0.85360  0.15190  Biso   1.000  H
  C36      1.0000 0.05700  0.80110  0.20630  Biso   1.000  C
  Pr4      1.0000 0.51506  0.47247  0.42978  Biso   1.000  Pr
  C37      1.0000 0.89250  0.53840  0.53050  Biso   1.000  C
  C38      1.0000 0.83610  0.56240  0.54540  Biso   1.000  C
  C39      1.0000 0.77080  0.54180  0.51830  Biso   1.000  C
  H25      1.0000 0.76320  0.51390  0.48960  Biso   1.000  H
  O16      1.0000 0.64430  0.51270  0.46290  Biso   1.000  O
  C40      1.0000 0.71680  0.56070  0.53200  Biso   1.000  C
  C41      1.0000 0.64540  0.53670  0.50530  Biso   1.000  C
  O17      1.0000 0.58870  0.53920  0.52230  Biso   1.000  O
  C42      1.0000 0.72710  0.60160  0.57480  Biso   1.000  C
  H26      1.0000 0.69000  0.61360  0.58540  Biso   1.000  H
  O18      1.0000 0.94540  0.54970  0.55950  Biso   1.000  O
  C43      1.0000 0.79290  0.62360  0.60060  Biso   1.000  C
  O19      1.0000 0.88350  0.50940  0.49100  Biso   1.000  O
  C44      1.0000 0.84680  0.60280  0.58730  Biso   1.000  C
  H27      1.0000 0.89000  0.61620  0.60670  Biso   1.000  H
  O20      1.0000 0.81500  0.66860  0.64410  Biso   1.000  O
  C45      1.0000 0.76410  0.69660  0.65930  Biso   1.000  C
  H28      1.0000 0.71240  0.65360  0.66580  Biso   1.000  H
  H29      1.0000 0.76060  0.72930  0.63440  Biso   1.000  H
  C46      1.0000 0.85120  0.82090  0.70590  Biso   1.000  C
  C47      1.0000 0.87150  0.85470  0.65610  Biso   1.000  C
  H30      1.0000 0.84720  0.81400  0.63240  Biso   1.000  H
  H31      1.0000 0.92690  0.88090  0.65190  Biso   1.000  H
  H32      1.0000 0.85360  0.89120  0.65190  Biso   1.000  H
  C48      1.0000 0.80110  0.74410  0.70630  Biso   1.000  C
  Pr5      1.0000 0.52753  0.04259  0.42978  Biso   1.000  Pr
  C49      1.0000 0.46160  0.35410  0.53050  Biso   1.000  C
  C50      1.0000 0.43760  0.27370  0.54540  Biso   1.000  C
  C51      1.0000 0.45820  0.22900  0.51830  Biso   1.000  C
  H33      1.0000 0.48610  0.24930  0.48960  Biso   1.000  H
  O21      1.0000 0.48730  0.13160  0.46290  Biso   1.000  O
  C52      1.0000 0.43930  0.15610  0.53200  Biso   1.000  C
  C53      1.0000 0.46330  0.10870  0.50530  Biso   1.000  C
  O22      1.0000 0.46080  0.04950  0.52230  Biso   1.000  O
  C54      1.0000 0.39840  0.12550  0.57480  Biso   1.000  C
  H34      1.0000 0.38640  0.07640  0.58540  Biso   1.000  H
  O23      1.0000 0.45030  0.39570  0.55950  Biso   1.000  O
  C55      1.0000 0.37640  0.16930  0.60060  Biso   1.000  C
  O24      1.0000 0.49060  0.37410  0.49100  Biso   1.000  O
  C56      1.0000 0.39720  0.24400  0.58730  Biso   1.000  C
  H35      1.0000 0.38380  0.27380  0.60670  Biso   1.000  H
  O25      1.0000 0.33140  0.14640  0.64410  Biso   1.000  O
  C57      1.0000 0.30340  0.06750  0.65930  Biso   1.000  C
  H36      1.0000 0.34640  0.05880  0.66580  Biso   1.000  H
  H37      1.0000 0.27070  0.03130  0.63440  Biso   1.000  H
  C58      1.0000 0.17910  0.03030  0.70590  Biso   1.000  C
  C59      1.0000 0.14530  0.01680  0.65610  Biso   1.000  C
  H38      1.0000 0.18600  0.03320  0.63240  Biso   1.000  H
  H39      1.0000 0.11910  0.04600  0.65190  Biso   1.000  H
  H40      1.0000 0.10880  0.96240  0.65190  Biso   1.000  H
  C60      1.0000 0.25590  0.05700  0.70630  Biso   1.000  C
  Pr6      1.0000 0.95741  0.48494  0.42978  Biso   1.000  Pr
  C61      1.0000 0.64590  0.10750  0.53050  Biso   1.000  C
  C62      1.0000 0.72630  0.16390  0.54540  Biso   1.000  C
  C63      1.0000 0.77100  0.22920  0.51830  Biso   1.000  C
  H41      1.0000 0.75070  0.23680  0.48960  Biso   1.000  H
  O26      1.0000 0.86840  0.35570  0.46290  Biso   1.000  O
  C64      1.0000 0.84390  0.28320  0.53200  Biso   1.000  C
  C65      1.0000 0.89130  0.35460  0.50530  Biso   1.000  C
  O27      1.0000 0.95050  0.41130  0.52230  Biso   1.000  O
  C66      1.0000 0.87450  0.27290  0.57480  Biso   1.000  C
  H42      1.0000 0.92360  0.31000  0.58540  Biso   1.000  H
  O28      1.0000 0.60430  0.05460  0.55950  Biso   1.000  O
  C67      1.0000 0.83070  0.20710  0.60060  Biso   1.000  C
  O29      1.0000 0.62590  0.11650  0.49100  Biso   1.000  O
  C68      1.0000 0.75600  0.15320  0.58730  Biso   1.000  C
  H43      1.0000 0.72620  0.11000  0.60670  Biso   1.000  H
  O30      1.0000 0.85360  0.18500  0.64410  Biso   1.000  O
  C69      1.0000 0.93250  0.23590  0.65930  Biso   1.000  C
  H44      1.0000 0.94120  0.28760  0.66580  Biso   1.000  H
  H45      1.0000 0.96870  0.23940  0.63440  Biso   1.000  H
  C70      1.0000 0.96970  0.14880  0.70590  Biso   1.000  C
  C71      1.0000 0.98320  0.12850  0.65610  Biso   1.000  C
  H46      1.0000 0.96680  0.15280  0.63240  Biso   1.000  H
  H47      1.0000 0.95400  0.07310  0.65190  Biso   1.000  H
  H48      1.0000 0.03760  0.14640  0.65190  Biso   1.000  H
  C72      1.0000 0.94300  0.19890  0.70630  Biso   1.000  C
  Pr7      1.0000 0.51506  0.47247  0.07022  Biso   1.000  Pr
  C73      1.0000 0.89250  0.53840  0.96950  Biso   1.000  C
  C74      1.0000 0.83610  0.56240  0.95460  Biso   1.000  C
  C75      1.0000 0.77080  0.54180  0.98170  Biso   1.000  C
  H49      1.0000 0.76320  0.51390  0.01040  Biso   1.000  H
  O31      1.0000 0.64430  0.51270  0.03710  Biso   1.000  O
  C76      1.0000 0.71680  0.56070  0.96800  Biso   1.000  C
  C77      1.0000 0.64540  0.53670  0.99470  Biso   1.000  C
  O32      1.0000 0.58870  0.53920  0.97770  Biso   1.000  O
  C78      1.0000 0.72710  0.60160  0.92520  Biso   1.000  C
  H50      1.0000 0.69000  0.61360  0.91460  Biso   1.000  H
  O33      1.0000 0.94540  0.54970  0.94050  Biso   1.000  O
  C79      1.0000 0.79290  0.62360  0.89940  Biso   1.000  C
  O34      1.0000 0.88350  0.50940  0.00900  Biso   1.000  O
  C80      1.0000 0.84680  0.60280  0.91270  Biso   1.000  C
  H51      1.0000 0.89000  0.61620  0.89330  Biso   1.000  H
  O35      1.0000 0.81500  0.66860  0.85590  Biso   1.000  O
  C81      1.0000 0.76410  0.69660  0.84070  Biso   1.000  C
  H52      1.0000 0.71240  0.65360  0.83420  Biso   1.000  H
  H53      1.0000 0.76060  0.72930  0.86560  Biso   1.000  H
  C82      1.0000 0.85120  0.82090  0.79410  Biso   1.000  C
  C83      1.0000 0.87150  0.85470  0.84390  Biso   1.000  C
  H54      1.0000 0.84720  0.81400  0.86760  Biso   1.000  H
  H55      1.0000 0.92690  0.88090  0.84810  Biso   1.000  H
  H56      1.0000 0.85360  0.89120  0.84810  Biso   1.000  H
  C84      1.0000 0.80110  0.74410  0.79370  Biso   1.000  C
  Pr8      1.0000 0.52753  0.04259  0.07022  Biso   1.000  Pr
  C85      1.0000 0.46160  0.35410  0.96950  Biso   1.000  C
  C86      1.0000 0.43760  0.27370  0.95460  Biso   1.000  C
  C87      1.0000 0.45820  0.22900  0.98170  Biso   1.000  C
  H57      1.0000 0.48610  0.24930  0.01040  Biso   1.000  H
  O36      1.0000 0.48730  0.13160  0.03710  Biso   1.000  O
  C88      1.0000 0.43930  0.15610  0.96800  Biso   1.000  C
  C89      1.0000 0.46330  0.10870  0.99470  Biso   1.000  C
  O37      1.0000 0.46080  0.04950  0.97770  Biso   1.000  O
  C90      1.0000 0.39840  0.12550  0.92520  Biso   1.000  C
  H58      1.0000 0.38640  0.07640  0.91460  Biso   1.000  H
  O38      1.0000 0.45030  0.39570  0.94050  Biso   1.000  O
  C91      1.0000 0.37640  0.16930  0.89940  Biso   1.000  C
  O39      1.0000 0.49060  0.37410  0.00900  Biso   1.000  O
  C92      1.0000 0.39720  0.24400  0.91270  Biso   1.000  C
  H59      1.0000 0.38380  0.27380  0.89330  Biso   1.000  H
  O40      1.0000 0.33140  0.14640  0.85590  Biso   1.000  O
  C93      1.0000 0.30340  0.06750  0.84070  Biso   1.000  C
  H60      1.0000 0.34640  0.05880  0.83420  Biso   1.000  H
  H61      1.0000 0.27070  0.03130  0.86560  Biso   1.000  H
  C94      1.0000 0.17910  0.03030  0.79410  Biso   1.000  C
  C95      1.0000 0.14530  0.01680  0.84390  Biso   1.000  C
  H62      1.0000 0.18600  0.03320  0.86760  Biso   1.000  H
  H63      1.0000 0.11910  0.04600  0.84810  Biso   1.000  H
  H64      1.0000 0.10880  0.96240  0.84810  Biso   1.000  H
  C96      1.0000 0.25590  0.05700  0.79370  Biso   1.000  C
  Pr9      1.0000 0.95741  0.48494  0.07022  Biso   1.000  Pr
  C97      1.0000 0.64590  0.10750  0.96950  Biso   1.000  C
  C98      1.0000 0.72630  0.16390  0.95460  Biso   1.000  C
  C99      1.0000 0.77100  0.22920  0.98170  Biso   1.000  C
  H65      1.0000 0.75070  0.23680  0.01040  Biso   1.000  H
  O41      1.0000 0.86840  0.35570  0.03710  Biso   1.000  O
  C100     1.0000 0.84390  0.28320  0.96800  Biso   1.000  C
  C101     1.0000 0.89130  0.35460  0.99470  Biso   1.000  C
  O42      1.0000 0.95050  0.41130  0.97770  Biso   1.000  O
  C102     1.0000 0.87450  0.27290  0.92520  Biso   1.000  C
  H66      1.0000 0.92360  0.31000  0.91460  Biso   1.000  H
  O43      1.0000 0.60430  0.05460  0.94050  Biso   1.000  O
  C103     1.0000 0.83070  0.20710  0.89940  Biso   1.000  C
  O44      1.0000 0.62590  0.11650  0.00900  Biso   1.000  O
  C104     1.0000 0.75600  0.15320  0.91270  Biso   1.000  C
  H67      1.0000 0.72620  0.11000  0.89330  Biso   1.000  H
  O45      1.0000 0.85360  0.18500  0.85590  Biso   1.000  O
  C105     1.0000 0.93250  0.23590  0.84070  Biso   1.000  C
  H68      1.0000 0.94120  0.28760  0.83420  Biso   1.000  H
  H69      1.0000 0.96870  0.23940  0.86560  Biso   1.000  H
  C106     1.0000 0.96970  0.14880  0.79410  Biso   1.000  C
  C107     1.0000 0.98320  0.12850  0.84390  Biso   1.000  C
  H70      1.0000 0.96680  0.15280  0.86760  Biso   1.000  H
  H71      1.0000 0.95400  0.07310  0.84810  Biso   1.000  H
  H72      1.0000 0.03760  0.14640  0.84810  Biso   1.000  H
  C108     1.0000 0.94300  0.19890  0.79370  Biso   1.000  C
  Pr10     1.0000 0.48494  0.52753  0.57022  Biso   1.000  Pr
  C109     1.0000 0.10750  0.46160  0.46950  Biso   1.000  C
  C110     1.0000 0.16390  0.43760  0.45460  Biso   1.000  C
  C111     1.0000 0.22920  0.45820  0.48170  Biso   1.000  C
  H73      1.0000 0.23680  0.48610  0.51040  Biso   1.000  H
  O46      1.0000 0.35570  0.48730  0.53710  Biso   1.000  O
  C112     1.0000 0.28320  0.43930  0.46800  Biso   1.000  C
  C113     1.0000 0.35460  0.46330  0.49470  Biso   1.000  C
  O47      1.0000 0.41130  0.46080  0.47770  Biso   1.000  O
  C114     1.0000 0.27290  0.39840  0.42520  Biso   1.000  C
  H74      1.0000 0.31000  0.38640  0.41460  Biso   1.000  H
  O48      1.0000 0.05460  0.45030  0.44050  Biso   1.000  O
  C115     1.0000 0.20710  0.37640  0.39940  Biso   1.000  C
  O49      1.0000 0.11650  0.49060  0.50900  Biso   1.000  O
  C116     1.0000 0.15320  0.39720  0.41270  Biso   1.000  C
  H75      1.0000 0.11000  0.38380  0.39330  Biso   1.000  H
  O50      1.0000 0.18500  0.33140  0.35590  Biso   1.000  O
  C117     1.0000 0.23590  0.30340  0.34070  Biso   1.000  C
  H76      1.0000 0.28760  0.34640  0.33420  Biso   1.000  H
  H77      1.0000 0.23940  0.27070  0.36560  Biso   1.000  H
  C118     1.0000 0.14880  0.17910  0.29410  Biso   1.000  C
  C119     1.0000 0.12850  0.14530  0.34390  Biso   1.000  C
  H78      1.0000 0.15280  0.18600  0.36760  Biso   1.000  H
  H79      1.0000 0.07310  0.11910  0.34810  Biso   1.000  H
  H80      1.0000 0.14640  0.10880  0.34810  Biso   1.000  H
  C120     1.0000 0.19890  0.25590  0.29370  Biso   1.000  C
  Pr11     1.0000 0.47247  0.95741  0.57022  Biso   1.000  Pr
  C121     1.0000 0.53840  0.64590  0.46950  Biso   1.000  C
  C122     1.0000 0.56240  0.72630  0.45460  Biso   1.000  C
  C123     1.0000 0.54180  0.77100  0.48170  Biso   1.000  C
  H81      1.0000 0.51390  0.75070  0.51040  Biso   1.000  H
  O51      1.0000 0.51270  0.86840  0.53710  Biso   1.000  O
  C124     1.0000 0.56070  0.84390  0.46800  Biso   1.000  C
  C125     1.0000 0.53670  0.89130  0.49470  Biso   1.000  C
  O52      1.0000 0.53920  0.95050  0.47770  Biso   1.000  O
  C126     1.0000 0.60160  0.87450  0.42520  Biso   1.000  C
  H82      1.0000 0.61360  0.92360  0.41460  Biso   1.000  H
  O53      1.0000 0.54970  0.60430  0.44050  Biso   1.000  O
  C127     1.0000 0.62360  0.83070  0.39940  Biso   1.000  C
  O54      1.0000 0.50940  0.62590  0.50900  Biso   1.000  O
  C128     1.0000 0.60280  0.75600  0.41270  Biso   1.000  C
  H83      1.0000 0.61620  0.72620  0.39330  Biso   1.000  H
  O55      1.0000 0.66860  0.85360  0.35590  Biso   1.000  O
  C129     1.0000 0.69660  0.93250  0.34070  Biso   1.000  C
  H84      1.0000 0.65360  0.94120  0.33420  Biso   1.000  H
  H85      1.0000 0.72930  0.96870  0.36560  Biso   1.000  H
  C130     1.0000 0.82090  0.96970  0.29410  Biso   1.000  C
  C131     1.0000 0.85470  0.98320  0.34390  Biso   1.000  C
  H86      1.0000 0.81400  0.96680  0.36760  Biso   1.000  H
  H87      1.0000 0.88090  0.95400  0.34810  Biso   1.000  H
  H88      1.0000 0.89120  0.03760  0.34810  Biso   1.000  H
  C132     1.0000 0.74410  0.94300  0.29370  Biso   1.000  C
  Pr12     1.0000 0.04259  0.51506  0.57022  Biso   1.000  Pr
  C133     1.0000 0.35410  0.89250  0.46950  Biso   1.000  C
  C134     1.0000 0.27370  0.83610  0.45460  Biso   1.000  C
  C135     1.0000 0.22900  0.77080  0.48170  Biso   1.000  C
  H89      1.0000 0.24930  0.76320  0.51040  Biso   1.000  H
  O56      1.0000 0.13160  0.64430  0.53710  Biso   1.000  O
  C136     1.0000 0.15610  0.71680  0.46800  Biso   1.000  C
  C137     1.0000 0.10870  0.64540  0.49470  Biso   1.000  C
  O57      1.0000 0.04950  0.58870  0.47770  Biso   1.000  O
  C138     1.0000 0.12550  0.72710  0.42520  Biso   1.000  C
  H90      1.0000 0.07640  0.69000  0.41460  Biso   1.000  H
  O58      1.0000 0.39570  0.94540  0.44050  Biso   1.000  O
  C139     1.0000 0.16930  0.79290  0.39940  Biso   1.000  C
  O59      1.0000 0.37410  0.88350  0.50900  Biso   1.000  O
  C140     1.0000 0.24400  0.84680  0.41270  Biso   1.000  C
  H91      1.0000 0.27380  0.89000  0.39330  Biso   1.000  H
  O60      1.0000 0.14640  0.81500  0.35590  Biso   1.000  O
  C141     1.0000 0.06750  0.76410  0.34070  Biso   1.000  C
  H92      1.0000 0.05880  0.71240  0.33420  Biso   1.000  H
  H93      1.0000 0.03130  0.76060  0.36560  Biso   1.000  H
  C142     1.0000 0.03030  0.85120  0.29410  Biso   1.000  C
  C143     1.0000 0.01680  0.87150  0.34390  Biso   1.000  C
  H94      1.0000 0.03320  0.84720  0.36760  Biso   1.000  H
  H95      1.0000 0.04600  0.92690  0.34810  Biso   1.000  H
  H96      1.0000 0.96240  0.85360  0.34810  Biso   1.000  H
  C144     1.0000 0.05700  0.80110  0.29370  Biso   1.000  C
  C145     1.0000 0.12720  0.14470  0.25000  Biso   1.000  C
  C146     1.0000 0.22390  0.30250  0.25000  Biso   1.000  C
  C147     1.0000 0.85530  0.98250  0.25000  Biso   1.000  C
  C148     1.0000 0.69750  0.92140  0.25000  Biso   1.000  C
  C149     1.0000 0.01750  0.87280  0.25000  Biso   1.000  C
  C150     1.0000 0.07860  0.77610  0.25000  Biso   1.000  C
  C151     1.0000 0.87280  0.85530  0.75000  Biso   1.000  C
  C152     1.0000 0.77610  0.69750  0.75000  Biso   1.000  C
  C153     1.0000 0.14470  0.01750  0.75000  Biso   1.000  C
  C154     1.0000 0.30250  0.07860  0.75000  Biso   1.000  C
  C155     1.0000 0.98250  0.12720  0.75000  Biso   1.000  C
  C156     1.0000 0.92140  0.22390  0.75000  Biso   1.000  C
