data_PAPVIN_clean
_audit_creation_date              2014-07-02
_audit_creation_method            'Materials Studio'
_symmetry_space_group_name_H-M    'P1'
_symmetry_Int_Tables_number       1
_symmetry_cell_setting            triclinic
loop_
_symmetry_equiv_pos_as_xyz
  x,y,z
_cell_length_a                    9.0246
_cell_length_b                    14.8111
_cell_length_c                    23.0610
_cell_angle_alpha                 90.0000
_cell_angle_beta                  90.0000
_cell_angle_gamma                 92.7732
loop_
_atom_site_label
_atom_site_type_symbol
_atom_site_fract_x
_atom_site_fract_y
_atom_site_fract_z
_atom_site_U_iso_or_equiv
_atom_site_adp_type
_atom_site_occupancy
Tm1    Tm    0.79009   0.99616   0.01843   0.01267  Uiso   1.00
Tm2    Tm    0.70991   0.50384   0.51843   0.01267  Uiso   1.00
Tm3    Tm    0.20991   0.00384   0.98157   0.01267  Uiso   1.00
Tm4    Tm    0.29009   0.49616   0.48157   0.01267  Uiso   1.00
H1     H     0.63310   0.80600   0.76870   0.01267  Uiso   1.00
H2     H     0.68960   0.81530   0.83290   0.01267  Uiso   1.00
H3     H     0.65410   0.71930   0.80620   0.01267  Uiso   1.00
H4     H     0.99910   0.68850   0.89370   0.01267  Uiso   1.00
H5     H     0.83640   0.66580   0.87270   0.01267  Uiso   1.00
H6     H     0.88160   0.76300   0.89550   0.01267  Uiso   1.00
H7     H     0.67880   0.75100   0.02060   0.01267  Uiso   1.00
H8     H     0.29280   0.66350   0.80790   0.01267  Uiso   1.00
H9     H     0.16930   0.64100   0.85470   0.01267  Uiso   1.00
H10    H     0.18170   0.81550   0.63300   0.01267  Uiso   1.00
H11    H     0.06450   0.89020   0.63530   0.01267  Uiso   1.00
H12    H     0.01850   0.79320   0.61230   0.01267  Uiso   1.00
H13    H     0.30800   0.77680   0.67680   0.01267  Uiso   1.00
H14    H     0.32520   0.69140   0.71590   0.01267  Uiso   1.00
H15    H     0.36770   0.78790   0.74040   0.01267  Uiso   1.00
H16    H     0.70400   0.87100   0.70700   0.01267  Uiso   1.00
H17    H     0.28000   0.93600   0.50800   0.01267  Uiso   1.00
H18    H     0.40800   0.59300   0.88500   0.01267  Uiso   1.00
H19    H     0.82500   0.89300   0.65900   0.01267  Uiso   1.00
H20    H     0.71500   0.60500   0.00600   0.01267  Uiso   1.00
H21    H     0.30500   0.78600   0.49800   0.01267  Uiso   1.00
H22    H     0.57400   0.52000   0.93500   0.01267  Uiso   1.00
H23    H     0.43600   0.01000   0.57200   0.01267  Uiso   1.00
H24    H     0.59100   0.93700   0.62600   0.01267  Uiso   1.00
H25    H     0.86690   0.69400   0.26870   0.01267  Uiso   1.00
H26    H     0.81040   0.68470   0.33290   0.01267  Uiso   1.00
H27    H     0.84590   0.78070   0.30620   0.01267  Uiso   1.00
H28    H     0.50090   0.81150   0.39370   0.01267  Uiso   1.00
H29    H     0.66360   0.83420   0.37270   0.01267  Uiso   1.00
H30    H     0.61840   0.73700   0.39550   0.01267  Uiso   1.00
H31    H     0.82120   0.74900   0.52060   0.01267  Uiso   1.00
H32    H     0.20720   0.83650   0.30790   0.01267  Uiso   1.00
H33    H     0.33070   0.85900   0.35470   0.01267  Uiso   1.00
H34    H     0.31830   0.68450   0.13300   0.01267  Uiso   1.00
H35    H     0.43550   0.60980   0.13530   0.01267  Uiso   1.00
H36    H     0.48150   0.70680   0.11230   0.01267  Uiso   1.00
H37    H     0.19200   0.72320   0.17680   0.01267  Uiso   1.00
H38    H     0.17480   0.80860   0.21590   0.01267  Uiso   1.00
H39    H     0.13230   0.71210   0.24040   0.01267  Uiso   1.00
H40    H     0.79600   0.62900   0.20700   0.01267  Uiso   1.00
H41    H     0.22000   0.56400   0.00800   0.01267  Uiso   1.00
H42    H     0.09200   0.90700   0.38500   0.01267  Uiso   1.00
H43    H     0.67500   0.60700   0.15900   0.01267  Uiso   1.00
H44    H     0.78500   0.89500   0.50600   0.01267  Uiso   1.00
H45    H     0.19500   0.71400   0.99800   0.01267  Uiso   1.00
H46    H     0.92600   0.98000   0.43500   0.01267  Uiso   1.00
H47    H     0.06400   0.49000   0.07200   0.01267  Uiso   1.00
H48    H     0.90900   0.56300   0.12600   0.01267  Uiso   1.00
H49    H     0.36690   0.19400   0.23130   0.01267  Uiso   1.00
H50    H     0.31040   0.18470   0.16710   0.01267  Uiso   1.00
H51    H     0.34590   0.28070   0.19380   0.01267  Uiso   1.00
H52    H     0.00090   0.31150   0.10630   0.01267  Uiso   1.00
H53    H     0.16360   0.33420   0.12730   0.01267  Uiso   1.00
H54    H     0.11840   0.23700   0.10450   0.01267  Uiso   1.00
H55    H     0.32120   0.24900   0.97940   0.01267  Uiso   1.00
H56    H     0.70720   0.33650   0.19210   0.01267  Uiso   1.00
H57    H     0.83070   0.35900   0.14530   0.01267  Uiso   1.00
H58    H     0.81830   0.18450   0.36700   0.01267  Uiso   1.00
H59    H     0.93550   0.10980   0.36470   0.01267  Uiso   1.00
H60    H     0.98150   0.20680   0.38770   0.01267  Uiso   1.00
H61    H     0.69200   0.22320   0.32320   0.01267  Uiso   1.00
H62    H     0.67480   0.30860   0.28410   0.01267  Uiso   1.00
H63    H     0.63230   0.21210   0.25960   0.01267  Uiso   1.00
H64    H     0.29600   0.12900   0.29300   0.01267  Uiso   1.00
H65    H     0.72000   0.06400   0.49200   0.01267  Uiso   1.00
H66    H     0.59200   0.40700   0.11500   0.01267  Uiso   1.00
H67    H     0.17500   0.10700   0.34100   0.01267  Uiso   1.00
H68    H     0.28500   0.39500   0.99400   0.01267  Uiso   1.00
H69    H     0.69500   0.21400   0.50200   0.01267  Uiso   1.00
H70    H     0.42600   0.48000   0.06500   0.01267  Uiso   1.00
H71    H     0.56400   0.99000   0.42800   0.01267  Uiso   1.00
H72    H     0.40900   0.06300   0.37400   0.01267  Uiso   1.00
H73    H     0.13310   0.30600   0.73130   0.01267  Uiso   1.00
H74    H     0.18960   0.31530   0.66710   0.01267  Uiso   1.00
H75    H     0.15410   0.21930   0.69380   0.01267  Uiso   1.00
H76    H     0.49910   0.18850   0.60630   0.01267  Uiso   1.00
H77    H     0.33640   0.16580   0.62730   0.01267  Uiso   1.00
H78    H     0.38160   0.26300   0.60450   0.01267  Uiso   1.00
H79    H     0.17880   0.25100   0.47940   0.01267  Uiso   1.00
H80    H     0.79280   0.16350   0.69210   0.01267  Uiso   1.00
H81    H     0.66930   0.14100   0.64530   0.01267  Uiso   1.00
H82    H     0.68170   0.31550   0.86700   0.01267  Uiso   1.00
H83    H     0.56450   0.39020   0.86470   0.01267  Uiso   1.00
H84    H     0.51850   0.29320   0.88770   0.01267  Uiso   1.00
H85    H     0.80800   0.27680   0.82320   0.01267  Uiso   1.00
H86    H     0.82520   0.19140   0.78410   0.01267  Uiso   1.00
H87    H     0.86770   0.28790   0.75960   0.01267  Uiso   1.00
H88    H     0.20400   0.37100   0.79300   0.01267  Uiso   1.00
H89    H     0.78000   0.43600   0.99200   0.01267  Uiso   1.00
H90    H     0.90800   0.09300   0.61500   0.01267  Uiso   1.00
H91    H     0.32500   0.39300   0.84100   0.01267  Uiso   1.00
H92    H     0.21500   0.10500   0.49400   0.01267  Uiso   1.00
H93    H     0.80500   0.28600   0.00200   0.01267  Uiso   1.00
H94    H     0.07400   0.02000   0.56500   0.01267  Uiso   1.00
H95    H     0.93600   0.51000   0.92800   0.01267  Uiso   1.00
H96    H     0.09100   0.43700   0.87400   0.01267  Uiso   1.00
C1     C     0.48040   0.66960   0.54350   0.01267  Uiso   1.00
C2     C     0.47090   0.76910   0.55630   0.01267  Uiso   1.00
C3     C     0.36450   0.81400   0.52540   0.01267  Uiso   1.00
C4     C     0.34820   0.90510   0.53080   0.01267  Uiso   1.00
C5     C     0.43840   0.95210   0.56910   0.01267  Uiso   1.00
C6     C     0.54490   0.90960   0.60080   0.01267  Uiso   1.00
C7     C     0.56260   0.81770   0.59572   0.01267  Uiso   1.00
C8     C     0.77800   0.84820   0.68310   0.01267  Uiso   1.00
C9     C     0.89150   0.80640   0.72160   0.01267  Uiso   1.00
C10    C     0.03600   0.79710   0.70160   0.01267  Uiso   1.00
C11    C     0.85110   0.77650   0.77720   0.01267  Uiso   1.00
C12    C     0.69250   0.77960   0.79820   0.01267  Uiso   1.00
C13    C     0.95800   0.74060   0.81390   0.01267  Uiso   1.00
C14    C     0.91490   0.71190   0.87440   0.01267  Uiso   1.00
C15    C     0.49520   0.86270   0.97950   0.01267  Uiso   1.00
C16    C     0.51500   0.76570   0.96227   0.01267  Uiso   1.00
C17    C     0.62100   0.71990   0.99300   0.01267  Uiso   1.00
C18    C     0.64230   0.62910   0.98350   0.01267  Uiso   1.00
C19    C     0.55810   0.58320   0.94190   0.01267  Uiso   1.00
C20    C     0.45390   0.62830   0.91030   0.01267  Uiso   1.00
C21    C     0.43020   0.71960   0.91885   0.01267  Uiso   1.00
C22    C     0.21640   0.68900   0.83160   0.01267  Uiso   1.00
C23    C     0.10260   0.73220   0.79340   0.01267  Uiso   1.00
C24    C     0.14180   0.76150   0.73760   0.01267  Uiso   1.00
C25    C     0.07920   0.82680   0.63970   0.01267  Uiso   1.00
C26    C     0.30050   0.75370   0.71570   0.01267  Uiso   1.00
C27    C     0.89050   0.95360   0.90220   0.01267  Uiso   1.00
C28    C     0.01960   0.83040   0.04350   0.01267  Uiso   1.00
C29    C     0.02910   0.73090   0.05630   0.01267  Uiso   1.00
C30    C     0.13550   0.68600   0.02540   0.01267  Uiso   1.00
C31    C     0.15180   0.59490   0.03080   0.01267  Uiso   1.00
C32    C     0.06160   0.54790   0.06910   0.01267  Uiso   1.00
C33    C     0.95510   0.59040   0.10080   0.01267  Uiso   1.00
C34    C     0.93740   0.68230   0.09572   0.01267  Uiso   1.00
C35    C     0.72200   0.65180   0.18310   0.01267  Uiso   1.00
C36    C     0.60850   0.69360   0.22160   0.01267  Uiso   1.00
C37    C     0.46400   0.70290   0.20160   0.01267  Uiso   1.00
C38    C     0.64890   0.72350   0.27720   0.01267  Uiso   1.00
C39    C     0.80750   0.72040   0.29820   0.01267  Uiso   1.00
C40    C     0.54200   0.75940   0.31390   0.01267  Uiso   1.00
C41    C     0.58510   0.78810   0.37440   0.01267  Uiso   1.00
C42    C     0.00480   0.63730   0.47950   0.01267  Uiso   1.00
C43    C     0.98500   0.73430   0.46227   0.01267  Uiso   1.00
C44    C     0.87900   0.78010   0.49300   0.01267  Uiso   1.00
C45    C     0.85770   0.87090   0.48350   0.01267  Uiso   1.00
C46    C     0.94190   0.91680   0.44190   0.01267  Uiso   1.00
C47    C     0.04610   0.87170   0.41030   0.01267  Uiso   1.00
C48    C     0.06980   0.78040   0.41885   0.01267  Uiso   1.00
C49    C     0.28360   0.81100   0.33160   0.01267  Uiso   1.00
C50    C     0.39740   0.76780   0.29340   0.01267  Uiso   1.00
C51    C     0.35820   0.73850   0.23760   0.01267  Uiso   1.00
C52    C     0.42080   0.67320   0.13970   0.01267  Uiso   1.00
C53    C     0.19950   0.74630   0.21570   0.01267  Uiso   1.00
C54    C     0.60950   0.54640   0.40220   0.01267  Uiso   1.00
C55    C     0.51960   0.33040   0.45650   0.01267  Uiso   1.00
C56    C     0.52910   0.23090   0.44370   0.01267  Uiso   1.00
C57    C     0.63550   0.18600   0.47460   0.01267  Uiso   1.00
C58    C     0.65180   0.09490   0.46920   0.01267  Uiso   1.00
C59    C     0.56160   0.04790   0.43090   0.01267  Uiso   1.00
C60    C     0.45510   0.09040   0.39920   0.01267  Uiso   1.00
C61    C     0.43740   0.18230   0.40428   0.01267  Uiso   1.00
C62    C     0.22200   0.15180   0.31690   0.01267  Uiso   1.00
C63    C     0.10850   0.19360   0.27840   0.01267  Uiso   1.00
C64    C     0.96400   0.20290   0.29840   0.01267  Uiso   1.00
C65    C     0.14890   0.22350   0.22280   0.01267  Uiso   1.00
C66    C     0.30750   0.22040   0.20180   0.01267  Uiso   1.00
C67    C     0.04200   0.25940   0.18610   0.01267  Uiso   1.00
C68    C     0.08510   0.28810   0.12560   0.01267  Uiso   1.00
C69    C     0.50480   0.13730   0.02050   0.01267  Uiso   1.00
C70    C     0.48500   0.23430   0.03773   0.01267  Uiso   1.00
C71    C     0.37900   0.28010   0.00700   0.01267  Uiso   1.00
C72    C     0.35770   0.37090   0.01650   0.01267  Uiso   1.00
C73    C     0.44190   0.41680   0.05810   0.01267  Uiso   1.00
C74    C     0.54610   0.37170   0.08970   0.01267  Uiso   1.00
C75    C     0.56980   0.28040   0.08115   0.01267  Uiso   1.00
C76    C     0.78360   0.31100   0.16840   0.01267  Uiso   1.00
C77    C     0.89740   0.26780   0.20660   0.01267  Uiso   1.00
C78    C     0.85820   0.23850   0.26240   0.01267  Uiso   1.00
C79    C     0.92080   0.17320   0.36030   0.01267  Uiso   1.00
C80    C     0.69950   0.24630   0.28430   0.01267  Uiso   1.00
C81    C     0.10950   0.04640   0.09780   0.01267  Uiso   1.00
C82    C     0.98040   0.16960   0.95650   0.01267  Uiso   1.00
C83    C     0.97090   0.26910   0.94370   0.01267  Uiso   1.00
C84    C     0.86450   0.31400   0.97460   0.01267  Uiso   1.00
C85    C     0.84820   0.40510   0.96920   0.01267  Uiso   1.00
C86    C     0.93840   0.45210   0.93090   0.01267  Uiso   1.00
C87    C     0.04490   0.40960   0.89920   0.01267  Uiso   1.00
C88    C     0.06260   0.31770   0.90428   0.01267  Uiso   1.00
C89    C     0.27800   0.34820   0.81690   0.01267  Uiso   1.00
C90    C     0.39150   0.30640   0.77840   0.01267  Uiso   1.00
C91    C     0.53600   0.29710   0.79840   0.01267  Uiso   1.00
C92    C     0.35110   0.27650   0.72280   0.01267  Uiso   1.00
C93    C     0.19250   0.27960   0.70180   0.01267  Uiso   1.00
C94    C     0.45800   0.24060   0.68610   0.01267  Uiso   1.00
C95    C     0.41490   0.21190   0.62560   0.01267  Uiso   1.00
C96    C     0.99520   0.36270   0.52050   0.01267  Uiso   1.00
C97    C     0.01500   0.26570   0.53773   0.01267  Uiso   1.00
C98    C     0.12100   0.21990   0.50700   0.01267  Uiso   1.00
C99    C     0.14230   0.12910   0.51650   0.01267  Uiso   1.00
C100   C     0.05810   0.08320   0.55810   0.01267  Uiso   1.00
C101   C     0.95390   0.12830   0.58970   0.01267  Uiso   1.00
C102   C     0.93020   0.21960   0.58115   0.01267  Uiso   1.00
C103   C     0.71640   0.18900   0.66840   0.01267  Uiso   1.00
C104   C     0.60260   0.23220   0.70660   0.01267  Uiso   1.00
C105   C     0.64180   0.26150   0.76240   0.01267  Uiso   1.00
C106   C     0.57920   0.32680   0.86030   0.01267  Uiso   1.00
C107   C     0.80050   0.25370   0.78430   0.01267  Uiso   1.00
C108   C     0.39050   0.45360   0.59780   0.01267  Uiso   1.00
S1     S     0.69410   0.75966   0.63707   0.01267  Uiso   1.00
S2     S     0.29721   0.77726   0.87836   0.01267  Uiso   1.00
S3     S     0.80590   0.74034   0.13707   0.01267  Uiso   1.00
S4     S     0.20279   0.72274   0.37836   0.01267  Uiso   1.00
S5     S     0.30590   0.24034   0.36293   0.01267  Uiso   1.00
S6     S     0.70279   0.22274   0.12164   0.01267  Uiso   1.00
S7     S     0.19410   0.25966   0.86293   0.01267  Uiso   1.00
S8     S     0.79721   0.27726   0.62164   0.01267  Uiso   1.00
O1     O     0.36200   0.62690   0.52961   0.01267  Uiso   1.00
O2     O     0.60730   0.63770   0.54675   0.01267  Uiso   1.00
O3     O     0.38310   0.90050   0.96054   0.01267  Uiso   1.00
O4     O     0.58940   0.90100   0.01290   0.01267  Uiso   1.00
O5     O     0.75480   0.96080   0.91200   0.01267  Uiso   1.00
O6     O     0.98090   0.95550   0.94448   0.01267  Uiso   1.00
O7     O     0.13800   0.87310   0.02961   0.01267  Uiso   1.00
O8     O     0.89270   0.86230   0.04675   0.01267  Uiso   1.00
O9     O     0.11690   0.59950   0.46054   0.01267  Uiso   1.00
O10    O     0.91060   0.59900   0.51290   0.01267  Uiso   1.00
O11    O     0.74520   0.53920   0.41200   0.01267  Uiso   1.00
O12    O     0.51910   0.54450   0.44448   0.01267  Uiso   1.00
O13    O     0.63800   0.37310   0.47039   0.01267  Uiso   1.00
O14    O     0.39270   0.36230   0.45325   0.01267  Uiso   1.00
O15    O     0.61690   0.09950   0.03946   0.01267  Uiso   1.00
O16    O     0.41060   0.09900   0.98710   0.01267  Uiso   1.00
O17    O     0.24520   0.03920   0.08800   0.01267  Uiso   1.00
O18    O     0.01910   0.04450   0.05552   0.01267  Uiso   1.00
O19    O     0.86200   0.12690   0.97039   0.01267  Uiso   1.00
O20    O     0.10730   0.13770   0.95325   0.01267  Uiso   1.00
O21    O     0.88310   0.40050   0.53946   0.01267  Uiso   1.00
O22    O     0.08940   0.40100   0.48710   0.01267  Uiso   1.00
O23    O     0.25480   0.46080   0.58800   0.01267  Uiso   1.00
O24    O     0.48090   0.45550   0.55552   0.01267  Uiso   1.00
