data_image0
_cell_length_a       12.726
_cell_length_b       12.726
_cell_length_c       30.939
_cell_angle_alpha    90
_cell_angle_beta     90
_cell_angle_gamma    120

_symmetry_space_group_name_H-M    "P 1"
_symmetry_int_tables_number       1

loop_
  _symmetry_equiv_pos_as_xyz
  'x, y, z'

loop_
  _atom_site_label
  _atom_site_occupancy
  _atom_site_fract_x
  _atom_site_fract_y
  _atom_site_fract_z
  _atom_site_thermal_displace_type
  _atom_site_B_iso_or_equiv
  _atom_site_type_symbol
  Al1      1.0000 0.75330  0.75722  0.29540  Biso   1.000  Al
  Al2      1.0000 0.57616  0.90230  0.21646  Biso   1.000  Al
  P1       1.0000 0.57783  0.90432  0.11444  Biso   1.000  P
  P2       1.0000 0.75682  0.00127  0.29140  Biso   1.000  P
  O1       1.0000 0.61376  0.93930  0.16168  Biso   1.000  O
  O2       1.0000 0.53414  0.75325  0.22506  Biso   1.000  O
  O3       1.0000 0.79283  0.90717  0.29395  Biso   1.000  O
  O4       1.0000 0.46125  0.92799  0.23103  Biso   1.000  O
  O5       1.0000 0.70143  0.99588  0.24720  Biso   1.000  O
  O6       1.0000 0.87760  0.74202  0.29679  Biso   1.000  O
  O7       1.0000 0.66441  0.68355  0.33993  Biso   1.000  O
  O8       1.0000 0.67590  0.68627  0.24778  Biso   1.000  O
  Al3      1.0000 0.41997  0.09055  0.62873  Biso   1.000  Al
  Al4      1.0000 0.24283  0.23563  0.54979  Biso   1.000  Al
  P3       1.0000 0.24450  0.23765  0.44777  Biso   1.000  P
  P4       1.0000 0.42349  0.33460  0.62473  Biso   1.000  P
  O9       1.0000 0.28043  0.27263  0.49501  Biso   1.000  O
  O10      1.0000 0.20081  0.08658  0.55839  Biso   1.000  O
  O11      1.0000 0.45950  0.24050  0.62728  Biso   1.000  O
  O12      1.0000 0.12792  0.26132  0.56436  Biso   1.000  O
  O13      1.0000 0.36810  0.32921  0.58053  Biso   1.000  O
  O14      1.0000 0.54427  0.07535  0.63012  Biso   1.000  O
  O15      1.0000 0.33108  0.01688  0.67326  Biso   1.000  O
  O16      1.0000 0.34257  0.01960  0.58111  Biso   1.000  O
  Al5      1.0000 0.08663  0.42389  0.96207  Biso   1.000  Al
  Al6      1.0000 0.90949  0.56897  0.88313  Biso   1.000  Al
  P5       1.0000 0.91116  0.57099  0.78111  Biso   1.000  P
  P6       1.0000 0.09015  0.66794  0.95807  Biso   1.000  P
  O17      1.0000 0.94709  0.60597  0.82835  Biso   1.000  O
  O18      1.0000 0.86747  0.41992  0.89173  Biso   1.000  O
  O19      1.0000 0.12616  0.57384  0.96062  Biso   1.000  O
  O20      1.0000 0.79458  0.59466  0.89770  Biso   1.000  O
  O21      1.0000 0.03476  0.66255  0.91387  Biso   1.000  O
  O22      1.0000 0.21093  0.40869  0.96346  Biso   1.000  O
  O23      1.0000 0.99774  0.35022  0.00660  Biso   1.000  O
  O24      1.0000 0.00923  0.35294  0.91445  Biso   1.000  O
  Al7      1.0000 0.24278  0.99608  0.29540  Biso   1.000  Al
  Al8      1.0000 0.09770  0.67386  0.21646  Biso   1.000  Al
  P7       1.0000 0.09568  0.67351  0.11444  Biso   1.000  P
  P8       1.0000 0.99873  0.75555  0.29140  Biso   1.000  P
  O25      1.0000 0.06070  0.67446  0.16168  Biso   1.000  O
  O26      1.0000 0.24675  0.78089  0.22506  Biso   1.000  O
  O27      1.0000 0.09283  0.88566  0.29395  Biso   1.000  O
  O28      1.0000 0.07201  0.53326  0.23103  Biso   1.000  O
  O29      1.0000 0.00412  0.70555  0.24720  Biso   1.000  O
  O30      1.0000 0.25798  0.13558  0.29679  Biso   1.000  O
  O31      1.0000 0.31645  0.98086  0.33993  Biso   1.000  O
  O32      1.0000 0.31373  0.98963  0.24778  Biso   1.000  O
  Al9      1.0000 0.90945  0.32941  0.62873  Biso   1.000  Al
  Al10     1.0000 0.76437  0.00719  0.54979  Biso   1.000  Al
  P9       1.0000 0.76235  0.00684  0.44777  Biso   1.000  P
  P10      1.0000 0.66540  0.08888  0.62473  Biso   1.000  P
  O33      1.0000 0.72737  0.00779  0.49501  Biso   1.000  O
  O34      1.0000 0.91342  0.11422  0.55839  Biso   1.000  O
  O35      1.0000 0.75950  0.21899  0.62728  Biso   1.000  O
  O36      1.0000 0.73868  0.86659  0.56436  Biso   1.000  O
  O37      1.0000 0.67079  0.03888  0.58053  Biso   1.000  O
  O38      1.0000 0.92465  0.46891  0.63012  Biso   1.000  O
  O39      1.0000 0.98312  0.31419  0.67326  Biso   1.000  O
  O40      1.0000 0.98040  0.32296  0.58111  Biso   1.000  O
  Al11     1.0000 0.57611  0.66275  0.96207  Biso   1.000  Al
  Al12     1.0000 0.43103  0.34053  0.88313  Biso   1.000  Al
  P11      1.0000 0.42901  0.34018  0.78111  Biso   1.000  P
  P12      1.0000 0.33206  0.42222  0.95807  Biso   1.000  P
  O41      1.0000 0.39403  0.34113  0.82835  Biso   1.000  O
  O42      1.0000 0.58008  0.44756  0.89173  Biso   1.000  O
  O43      1.0000 0.42616  0.55233  0.96062  Biso   1.000  O
  O44      1.0000 0.40534  0.19993  0.89770  Biso   1.000  O
  O45      1.0000 0.33745  0.37222  0.91387  Biso   1.000  O
  O46      1.0000 0.59131  0.80225  0.96346  Biso   1.000  O
  O47      1.0000 0.64978  0.64753  0.00660  Biso   1.000  O
  O48      1.0000 0.64706  0.65630  0.91445  Biso   1.000  O
  Al13     1.0000 0.00392  0.24670  0.29540  Biso   1.000  Al
  Al14     1.0000 0.32614  0.42384  0.21646  Biso   1.000  Al
  P13      1.0000 0.32649  0.42217  0.11444  Biso   1.000  P
  P14      1.0000 0.24445  0.24318  0.29140  Biso   1.000  P
  O49      1.0000 0.32554  0.38624  0.16168  Biso   1.000  O
  O50      1.0000 0.21911  0.46586  0.22506  Biso   1.000  O
  O51      1.0000 0.11434  0.20717  0.29395  Biso   1.000  O
  O52      1.0000 0.46674  0.53875  0.23103  Biso   1.000  O
  O53      1.0000 0.29445  0.29857  0.24720  Biso   1.000  O
  O54      1.0000 0.86442  0.12240  0.29679  Biso   1.000  O
  O55      1.0000 0.01914  0.33559  0.33993  Biso   1.000  O
  O56      1.0000 0.01037  0.32410  0.24778  Biso   1.000  O
  Al15     1.0000 0.67059  0.58003  0.62873  Biso   1.000  Al
  Al16     1.0000 0.99281  0.75717  0.54979  Biso   1.000  Al
  P15      1.0000 0.99316  0.75550  0.44777  Biso   1.000  P
  P16      1.0000 0.91112  0.57651  0.62473  Biso   1.000  P
  O57      1.0000 0.99221  0.71957  0.49501  Biso   1.000  O
  O58      1.0000 0.88578  0.79919  0.55839  Biso   1.000  O
  O59      1.0000 0.78101  0.54050  0.62728  Biso   1.000  O
  O60      1.0000 0.13341  0.87208  0.56436  Biso   1.000  O
  O61      1.0000 0.96112  0.63190  0.58053  Biso   1.000  O
  O62      1.0000 0.53109  0.45573  0.63012  Biso   1.000  O
  O63      1.0000 0.68581  0.66892  0.67326  Biso   1.000  O
  O64      1.0000 0.67704  0.65743  0.58111  Biso   1.000  O
  Al17     1.0000 0.33725  0.91337  0.96207  Biso   1.000  Al
  Al18     1.0000 0.65947  0.09051  0.88313  Biso   1.000  Al
  P17      1.0000 0.65982  0.08884  0.78111  Biso   1.000  P
  P18      1.0000 0.57778  0.90985  0.95807  Biso   1.000  P
  O65      1.0000 0.65887  0.05291  0.82835  Biso   1.000  O
  O66      1.0000 0.55244  0.13253  0.89173  Biso   1.000  O
  O67      1.0000 0.44767  0.87384  0.96062  Biso   1.000  O
  O68      1.0000 0.80007  0.20542  0.89770  Biso   1.000  O
  O69      1.0000 0.62778  0.96524  0.91387  Biso   1.000  O
  O70      1.0000 0.19775  0.78907  0.96346  Biso   1.000  O
  O71      1.0000 0.35247  0.00226  0.00660  Biso   1.000  O
  O72      1.0000 0.34370  0.99077  0.91445  Biso   1.000  O
  Al19     1.0000 0.24670  0.24278  0.70460  Biso   1.000  Al
  Al20     1.0000 0.42384  0.09770  0.78354  Biso   1.000  Al
  P19      1.0000 0.42217  0.09568  0.88556  Biso   1.000  P
  P20      1.0000 0.24318  0.99873  0.70860  Biso   1.000  P
  O73      1.0000 0.38624  0.06070  0.83832  Biso   1.000  O
  O74      1.0000 0.46586  0.24675  0.77494  Biso   1.000  O
  O75      1.0000 0.20717  0.09283  0.70605  Biso   1.000  O
  O76      1.0000 0.53875  0.07201  0.76897  Biso   1.000  O
  O77      1.0000 0.29857  0.00412  0.75280  Biso   1.000  O
  O78      1.0000 0.12240  0.25798  0.70321  Biso   1.000  O
  O79      1.0000 0.33559  0.31645  0.66007  Biso   1.000  O
  O80      1.0000 0.32410  0.31373  0.75222  Biso   1.000  O
  Al21     1.0000 0.91337  0.57611  0.03793  Biso   1.000  Al
  Al22     1.0000 0.09051  0.43103  0.11687  Biso   1.000  Al
  P21      1.0000 0.08884  0.42901  0.21889  Biso   1.000  P
  P22      1.0000 0.90985  0.33206  0.04193  Biso   1.000  P
  O81      1.0000 0.05291  0.39403  0.17165  Biso   1.000  O
  O82      1.0000 0.13253  0.58008  0.10827  Biso   1.000  O
  O83      1.0000 0.87384  0.42616  0.03938  Biso   1.000  O
  O84      1.0000 0.20542  0.40534  0.10230  Biso   1.000  O
  O85      1.0000 0.96524  0.33745  0.08613  Biso   1.000  O
  O86      1.0000 0.78907  0.59131  0.03654  Biso   1.000  O
  O87      1.0000 0.00226  0.64978  0.99340  Biso   1.000  O
  O88      1.0000 0.99077  0.64706  0.08555  Biso   1.000  O
  Al23     1.0000 0.58003  0.90945  0.37127  Biso   1.000  Al
  Al24     1.0000 0.75717  0.76437  0.45021  Biso   1.000  Al
  P23      1.0000 0.75550  0.76235  0.55223  Biso   1.000  P
  P24      1.0000 0.57651  0.66540  0.37527  Biso   1.000  P
  O89      1.0000 0.71957  0.72737  0.50499  Biso   1.000  O
  O90      1.0000 0.79919  0.91342  0.44161  Biso   1.000  O
  O91      1.0000 0.54050  0.75950  0.37272  Biso   1.000  O
  O92      1.0000 0.87208  0.73868  0.43564  Biso   1.000  O
  O93      1.0000 0.63190  0.67079  0.41947  Biso   1.000  O
  O94      1.0000 0.45573  0.92465  0.36988  Biso   1.000  O
  O95      1.0000 0.66892  0.98312  0.32674  Biso   1.000  O
  O96      1.0000 0.65743  0.98040  0.41889  Biso   1.000  O
  Al25     1.0000 0.75722  0.00392  0.70460  Biso   1.000  Al
  Al26     1.0000 0.90230  0.32614  0.78354  Biso   1.000  Al
  P25      1.0000 0.90432  0.32649  0.88556  Biso   1.000  P
  P26      1.0000 0.00127  0.24445  0.70860  Biso   1.000  P
  O97      1.0000 0.93930  0.32554  0.83832  Biso   1.000  O
  O98      1.0000 0.75325  0.21911  0.77494  Biso   1.000  O
  O99      1.0000 0.90717  0.11434  0.70605  Biso   1.000  O
  O100     1.0000 0.92799  0.46674  0.76897  Biso   1.000  O
  O101     1.0000 0.99588  0.29445  0.75280  Biso   1.000  O
  O102     1.0000 0.74202  0.86442  0.70321  Biso   1.000  O
  O103     1.0000 0.68355  0.01914  0.66007  Biso   1.000  O
  O104     1.0000 0.68627  0.01037  0.75222  Biso   1.000  O
  Al27     1.0000 0.42389  0.33725  0.03793  Biso   1.000  Al
  Al28     1.0000 0.56897  0.65947  0.11687  Biso   1.000  Al
  P27      1.0000 0.57099  0.65982  0.21889  Biso   1.000  P
  P28      1.0000 0.66794  0.57778  0.04193  Biso   1.000  P
  O105     1.0000 0.60597  0.65887  0.17165  Biso   1.000  O
  O106     1.0000 0.41992  0.55244  0.10827  Biso   1.000  O
  O107     1.0000 0.57384  0.44767  0.03938  Biso   1.000  O
  O108     1.0000 0.59466  0.80007  0.10230  Biso   1.000  O
  O109     1.0000 0.66255  0.62778  0.08613  Biso   1.000  O
  O110     1.0000 0.40869  0.19775  0.03654  Biso   1.000  O
  O111     1.0000 0.35022  0.35247  0.99340  Biso   1.000  O
  O112     1.0000 0.35294  0.34370  0.08555  Biso   1.000  O
  Al29     1.0000 0.09055  0.67059  0.37127  Biso   1.000  Al
  Al30     1.0000 0.23563  0.99281  0.45021  Biso   1.000  Al
  P29      1.0000 0.23765  0.99316  0.55223  Biso   1.000  P
  P30      1.0000 0.33460  0.91112  0.37527  Biso   1.000  P
  O113     1.0000 0.27263  0.99221  0.50499  Biso   1.000  O
  O114     1.0000 0.08658  0.88578  0.44161  Biso   1.000  O
  O115     1.0000 0.24050  0.78101  0.37272  Biso   1.000  O
  O116     1.0000 0.26132  0.13341  0.43564  Biso   1.000  O
  O117     1.0000 0.32921  0.96112  0.41947  Biso   1.000  O
  O118     1.0000 0.07535  0.53109  0.36988  Biso   1.000  O
  O119     1.0000 0.01688  0.68581  0.32674  Biso   1.000  O
  O120     1.0000 0.01960  0.67704  0.41889  Biso   1.000  O
  Al31     1.0000 0.99608  0.75330  0.70460  Biso   1.000  Al
  Al32     1.0000 0.67386  0.57616  0.78354  Biso   1.000  Al
  P31      1.0000 0.67351  0.57783  0.88556  Biso   1.000  P
  P32      1.0000 0.75555  0.75682  0.70860  Biso   1.000  P
  O121     1.0000 0.67446  0.61376  0.83832  Biso   1.000  O
  O122     1.0000 0.78089  0.53414  0.77494  Biso   1.000  O
  O123     1.0000 0.88566  0.79283  0.70605  Biso   1.000  O
  O124     1.0000 0.53326  0.46125  0.76897  Biso   1.000  O
  O125     1.0000 0.70555  0.70143  0.75280  Biso   1.000  O
  O126     1.0000 0.13558  0.87760  0.70321  Biso   1.000  O
  O127     1.0000 0.98086  0.66441  0.66007  Biso   1.000  O
  O128     1.0000 0.98963  0.67590  0.75222  Biso   1.000  O
  Al33     1.0000 0.66275  0.08663  0.03793  Biso   1.000  Al
  Al34     1.0000 0.34053  0.90949  0.11687  Biso   1.000  Al
  P33      1.0000 0.34018  0.91116  0.21889  Biso   1.000  P
  P34      1.0000 0.42222  0.09015  0.04193  Biso   1.000  P
  O129     1.0000 0.34113  0.94709  0.17165  Biso   1.000  O
  O130     1.0000 0.44756  0.86747  0.10827  Biso   1.000  O
  O131     1.0000 0.55233  0.12616  0.03938  Biso   1.000  O
  O132     1.0000 0.19993  0.79458  0.10230  Biso   1.000  O
  O133     1.0000 0.37222  0.03476  0.08613  Biso   1.000  O
  O134     1.0000 0.80225  0.21093  0.03654  Biso   1.000  O
  O135     1.0000 0.64753  0.99774  0.99340  Biso   1.000  O
  O136     1.0000 0.65630  0.00923  0.08555  Biso   1.000  O
  Al35     1.0000 0.32941  0.41997  0.37127  Biso   1.000  Al
  Al36     1.0000 0.00719  0.24283  0.45021  Biso   1.000  Al
  P35      1.0000 0.00684  0.24450  0.55223  Biso   1.000  P
  P36      1.0000 0.08888  0.42349  0.37527  Biso   1.000  P
  O137     1.0000 0.00779  0.28043  0.50499  Biso   1.000  O
  O138     1.0000 0.11422  0.20081  0.44161  Biso   1.000  O
  O139     1.0000 0.21899  0.45950  0.37272  Biso   1.000  O
  O140     1.0000 0.86659  0.12792  0.43564  Biso   1.000  O
  O141     1.0000 0.03888  0.36810  0.41947  Biso   1.000  O
  O142     1.0000 0.46891  0.54427  0.36988  Biso   1.000  O
  O143     1.0000 0.31419  0.33108  0.32674  Biso   1.000  O
  O144     1.0000 0.32296  0.34257  0.41889  Biso   1.000  O
