data_image0
_cell_length_a       16.2469
_cell_length_b       11.8775
_cell_length_c       18.028
_cell_angle_alpha    90
_cell_angle_beta     103.749
_cell_angle_gamma    90

_symmetry_space_group_name_H-M    "P 1"
_symmetry_int_tables_number       1

loop_
  _symmetry_equiv_pos_as_xyz
  'x, y, z'

loop_
  _atom_site_label
  _atom_site_occupancy
  _atom_site_fract_x
  _atom_site_fract_y
  _atom_site_fract_z
  _atom_site_thermal_displace_type
  _atom_site_B_iso_or_equiv
  _atom_site_type_symbol
  Mo1      1.0000 0.61768  0.26730  0.96685  Biso   1.000  Mo
  Mo2      1.0000 0.47931  0.14621  0.80525  Biso   1.000  Mo
  Mo3      1.0000 0.47622  0.92960  0.78693  Biso   1.000  Mo
  Mo4      1.0000 0.61101  0.75571  0.92163  Biso   1.000  Mo
  Mo5      1.0000 0.71561  0.84817  0.03684  Biso   1.000  Mo
  Mo6      1.0000 0.71678  0.14143  0.06753  Biso   1.000  Mo
  Mn1      1.0000 0.87551  0.00304  0.86546  Biso   1.000  Mn
  P1       1.0000 0.67256  0.02521  0.88577  Biso   1.000  P
  P2       1.0000 0.62316  0.33710  0.78995  Biso   1.000  P
  P3       1.0000 0.56102  0.70151  0.73712  Biso   1.000  P
  P4       1.0000 0.88903  0.00800  0.05862  Biso   1.000  P
  O1       1.0000 0.74000  0.04030  0.84210  Biso   1.000  O
  O2       1.0000 0.61370  0.92260  0.85850  Biso   1.000  O
  O3       1.0000 0.61540  0.13240  0.87680  Biso   1.000  O
  O4       1.0000 0.71180  0.01000  0.97320  Biso   1.000  O
  O5       1.0000 0.63010  0.44440  0.74800  Biso   1.000  O
  O6       1.0000 0.53850  0.27580  0.76050  Biso   1.000  O
  O7       1.0000 0.69940  0.25950  0.78020  Biso   1.000  O
  O8       1.0000 0.63440  0.36320  0.87620  Biso   1.000  O
  O9       1.0000 0.60830  0.67040  0.67710  Biso   1.000  O
  O10      1.0000 0.48490  0.62250  0.73390  Biso   1.000  O
  O11      1.0000 0.52920  0.82490  0.72180  Biso   1.000  O
  O12      1.0000 0.62180  0.69610  0.81800  Biso   1.000  O
  O13      1.0000 0.97750  0.99640  0.11740  Biso   1.000  O
  O14      1.0000 0.90190  0.03900  0.98170  Biso   1.000  O
  O15      1.0000 0.84110  0.10110  0.09170  Biso   1.000  O
  O16      1.0000 0.84310  0.89400  0.06050  Biso   1.000  O
  O17      1.0000 0.73880  0.24570  0.99240  Biso   1.000  O
  O18      1.0000 0.59300  0.13530  0.02420  Biso   1.000  O
  O19      1.0000 0.49180  0.25480  0.90110  Biso   1.000  O
  O20      1.0000 0.51730  0.05060  0.73300  Biso   1.000  O
  O21      1.0000 0.46420  0.02330  0.87510  Biso   1.000  O
  O22      1.0000 0.48600  0.79100  0.86240  Biso   1.000  O
  O23      1.0000 0.59170  0.86090  0.00080  Biso   1.000  O
  O24      1.0000 0.73370  0.77390  0.94610  Biso   1.000  O
  O25      1.0000 0.70410  0.98030  0.11450  Biso   1.000  O
  Mo7      1.0000 0.88232  0.76730  0.53315  Biso   1.000  Mo
  Mo8      1.0000 0.02069  0.64621  0.69475  Biso   1.000  Mo
  Mo9      1.0000 0.02378  0.42960  0.71307  Biso   1.000  Mo
  Mo10     1.0000 0.88899  0.25571  0.57837  Biso   1.000  Mo
  Mo11     1.0000 0.78439  0.34817  0.46316  Biso   1.000  Mo
  Mo12     1.0000 0.78322  0.64143  0.43247  Biso   1.000  Mo
  Mn2      1.0000 0.62449  0.50304  0.63454  Biso   1.000  Mn
  P5       1.0000 0.82744  0.52521  0.61423  Biso   1.000  P
  P6       1.0000 0.87684  0.83710  0.71005  Biso   1.000  P
  P7       1.0000 0.93898  0.20151  0.76288  Biso   1.000  P
  P8       1.0000 0.61097  0.50800  0.44138  Biso   1.000  P
  O26      1.0000 0.76000  0.54030  0.65790  Biso   1.000  O
  O27      1.0000 0.88630  0.42260  0.64150  Biso   1.000  O
  O28      1.0000 0.88460  0.63240  0.62320  Biso   1.000  O
  O29      1.0000 0.78820  0.51000  0.52680  Biso   1.000  O
  O30      1.0000 0.86990  0.94440  0.75200  Biso   1.000  O
  O31      1.0000 0.96150  0.77580  0.73950  Biso   1.000  O
  O32      1.0000 0.80060  0.75950  0.71980  Biso   1.000  O
  O33      1.0000 0.86560  0.86320  0.62380  Biso   1.000  O
  O34      1.0000 0.89170  0.17040  0.82290  Biso   1.000  O
  O35      1.0000 0.01510  0.12250  0.76610  Biso   1.000  O
  O36      1.0000 0.97080  0.32490  0.77820  Biso   1.000  O
  O37      1.0000 0.87820  0.19610  0.68200  Biso   1.000  O
  O38      1.0000 0.52250  0.49640  0.38260  Biso   1.000  O
  O39      1.0000 0.59810  0.53900  0.51830  Biso   1.000  O
  O40      1.0000 0.65890  0.60110  0.40830  Biso   1.000  O
  O41      1.0000 0.65690  0.39400  0.43950  Biso   1.000  O
  O42      1.0000 0.76120  0.74570  0.50760  Biso   1.000  O
  O43      1.0000 0.90700  0.63530  0.47580  Biso   1.000  O
  O44      1.0000 0.00820  0.75480  0.59890  Biso   1.000  O
  O45      1.0000 0.98270  0.55060  0.76700  Biso   1.000  O
  O46      1.0000 0.03580  0.52330  0.62490  Biso   1.000  O
  O47      1.0000 0.01400  0.29100  0.63760  Biso   1.000  O
  O48      1.0000 0.90830  0.36090  0.49920  Biso   1.000  O
  O49      1.0000 0.76630  0.27390  0.55390  Biso   1.000  O
  O50      1.0000 0.79590  0.48030  0.38550  Biso   1.000  O
  Mo13     1.0000 0.38232  0.73270  0.03315  Biso   1.000  Mo
  Mo14     1.0000 0.52069  0.85379  0.19475  Biso   1.000  Mo
  Mo15     1.0000 0.52378  0.07040  0.21307  Biso   1.000  Mo
  Mo16     1.0000 0.38899  0.24429  0.07837  Biso   1.000  Mo
  Mo17     1.0000 0.28439  0.15183  0.96316  Biso   1.000  Mo
  Mo18     1.0000 0.28322  0.85857  0.93247  Biso   1.000  Mo
  Mn3      1.0000 0.12449  0.99696  0.13454  Biso   1.000  Mn
  P9       1.0000 0.32744  0.97479  0.11423  Biso   1.000  P
  P10      1.0000 0.37684  0.66290  0.21005  Biso   1.000  P
  P11      1.0000 0.43898  0.29849  0.26288  Biso   1.000  P
  P12      1.0000 0.11097  0.99200  0.94138  Biso   1.000  P
  O51      1.0000 0.26000  0.95970  0.15790  Biso   1.000  O
  O52      1.0000 0.38630  0.07740  0.14150  Biso   1.000  O
  O53      1.0000 0.38460  0.86760  0.12320  Biso   1.000  O
  O54      1.0000 0.28820  0.99000  0.02680  Biso   1.000  O
  O55      1.0000 0.36990  0.55560  0.25200  Biso   1.000  O
  O56      1.0000 0.46150  0.72420  0.23950  Biso   1.000  O
  O57      1.0000 0.30060  0.74050  0.21980  Biso   1.000  O
  O58      1.0000 0.36560  0.63680  0.12380  Biso   1.000  O
  O59      1.0000 0.39170  0.32960  0.32290  Biso   1.000  O
  O60      1.0000 0.51510  0.37750  0.26610  Biso   1.000  O
  O61      1.0000 0.47080  0.17510  0.27820  Biso   1.000  O
  O62      1.0000 0.37820  0.30390  0.18200  Biso   1.000  O
  O63      1.0000 0.02250  0.00360  0.88260  Biso   1.000  O
  O64      1.0000 0.09810  0.96100  0.01830  Biso   1.000  O
  O65      1.0000 0.15890  0.89890  0.90830  Biso   1.000  O
  O66      1.0000 0.15690  0.10600  0.93950  Biso   1.000  O
  O67      1.0000 0.26120  0.75430  0.00760  Biso   1.000  O
  O68      1.0000 0.40700  0.86470  0.97580  Biso   1.000  O
  O69      1.0000 0.50820  0.74520  0.09890  Biso   1.000  O
  O70      1.0000 0.48270  0.94940  0.26700  Biso   1.000  O
  O71      1.0000 0.53580  0.97670  0.12490  Biso   1.000  O
  O72      1.0000 0.51400  0.20900  0.13760  Biso   1.000  O
  O73      1.0000 0.40830  0.13910  0.99920  Biso   1.000  O
  O74      1.0000 0.26630  0.22610  0.05390  Biso   1.000  O
  O75      1.0000 0.29590  0.01970  0.88550  Biso   1.000  O
  Mo19     1.0000 0.11768  0.23270  0.46685  Biso   1.000  Mo
  Mo20     1.0000 0.97931  0.35379  0.30525  Biso   1.000  Mo
  Mo21     1.0000 0.97622  0.57040  0.28693  Biso   1.000  Mo
  Mo22     1.0000 0.11101  0.74429  0.42163  Biso   1.000  Mo
  Mo23     1.0000 0.21561  0.65183  0.53684  Biso   1.000  Mo
  Mo24     1.0000 0.21678  0.35857  0.56753  Biso   1.000  Mo
  Mn4      1.0000 0.37551  0.49696  0.36546  Biso   1.000  Mn
  P13      1.0000 0.17256  0.47479  0.38577  Biso   1.000  P
  P14      1.0000 0.12316  0.16290  0.28995  Biso   1.000  P
  P15      1.0000 0.06102  0.79849  0.23712  Biso   1.000  P
  P16      1.0000 0.38903  0.49200  0.55862  Biso   1.000  P
  O76      1.0000 0.24000  0.45970  0.34210  Biso   1.000  O
  O77      1.0000 0.11370  0.57740  0.35850  Biso   1.000  O
  O78      1.0000 0.11540  0.36760  0.37680  Biso   1.000  O
  O79      1.0000 0.21180  0.49000  0.47320  Biso   1.000  O
  O80      1.0000 0.13010  0.05560  0.24800  Biso   1.000  O
  O81      1.0000 0.03850  0.22420  0.26050  Biso   1.000  O
  O82      1.0000 0.19940  0.24050  0.28020  Biso   1.000  O
  O83      1.0000 0.13440  0.13680  0.37620  Biso   1.000  O
  O84      1.0000 0.10830  0.82960  0.17710  Biso   1.000  O
  O85      1.0000 0.98490  0.87750  0.23390  Biso   1.000  O
  O86      1.0000 0.02920  0.67510  0.22180  Biso   1.000  O
  O87      1.0000 0.12180  0.80390  0.31800  Biso   1.000  O
  O88      1.0000 0.47750  0.50360  0.61740  Biso   1.000  O
  O89      1.0000 0.40190  0.46100  0.48170  Biso   1.000  O
  O90      1.0000 0.34110  0.39890  0.59170  Biso   1.000  O
  O91      1.0000 0.34310  0.60600  0.56050  Biso   1.000  O
  O92      1.0000 0.23880  0.25430  0.49240  Biso   1.000  O
  O93      1.0000 0.09300  0.36470  0.52420  Biso   1.000  O
  O94      1.0000 0.99180  0.24520  0.40110  Biso   1.000  O
  O95      1.0000 0.01730  0.44940  0.23300  Biso   1.000  O
  O96      1.0000 0.96420  0.47670  0.37510  Biso   1.000  O
  O97      1.0000 0.98600  0.70900  0.36240  Biso   1.000  O
  O98      1.0000 0.09170  0.63910  0.50080  Biso   1.000  O
  O99      1.0000 0.23370  0.72610  0.44610  Biso   1.000  O
  O100     1.0000 0.20410  0.51970  0.61450  Biso   1.000  O
  Mn5      1.0000 0.50000  0.00000  0.00000  Biso   1.000  Mn
  Mn6      1.0000 0.00000  0.50000  0.50000  Biso   1.000  Mn
