data_image0
_cell_length_a       10.187
_cell_length_b       10.241
_cell_length_c       8.2137
_cell_angle_alpha    90.398
_cell_angle_beta     95.93
_cell_angle_gamma    117.325

_symmetry_space_group_name_H-M    "P 1"
_symmetry_int_tables_number       1

loop_
  _symmetry_equiv_pos_as_xyz
  'x, y, z'

loop_
  _atom_site_label
  _atom_site_occupancy
  _atom_site_fract_x
  _atom_site_fract_y
  _atom_site_fract_z
  _atom_site_thermal_displace_type
  _atom_site_B_iso_or_equiv
  _atom_site_type_symbol
  V1       1.0000 0.98656  0.21530  0.35432  Biso   1.000  V
  V2       1.0000 0.51973  0.78346  0.15204  Biso   1.000  V
  V3       1.0000 0.78684  0.14798  0.69350  Biso   1.000  V
  P1       1.0000 0.78310  0.88430  0.45570  Biso   1.000  P
  P2       1.0000 0.18590  0.53680  0.20530  Biso   1.000  P
  P3       1.0000 0.28670  0.87930  0.94100  Biso   1.000  P
  O1       1.0000 0.11980  0.43050  0.33830  Biso   1.000  O
  O2       1.0000 0.36620  0.78480  0.98090  Biso   1.000  O
  O3       1.0000 0.88800  0.99750  0.34720  Biso   1.000  O
  O4       1.0000 0.62720  0.79420  0.36820  Biso   1.000  O
  O5       1.0000 0.13630  0.77400  0.84120  Biso   1.000  O
  O6       1.0000 0.77280  0.95860  0.61480  Biso   1.000  O
  O7       1.0000 0.26060  0.94160  0.09710  Biso   1.000  O
  O8       1.0000 0.12600  0.44450  0.03460  Biso   1.000  O
  O9       1.0000 0.89520  0.23600  0.49700  Biso   1.000  O
  O10      1.0000 0.35300  0.60180  0.22480  Biso   1.000  O
  O11      1.0000 0.12760  0.65040  0.20220  Biso   1.000  O
  O12      1.0000 0.84430  0.77690  0.50500  Biso   1.000  O
  O13      1.0000 0.37820  0.00280  0.83620  Biso   1.000  O
  V4       1.0000 0.01344  0.78470  0.64568  Biso   1.000  V
  V5       1.0000 0.48027  0.21654  0.84796  Biso   1.000  V
  V6       1.0000 0.21316  0.85202  0.30650  Biso   1.000  V
  P4       1.0000 0.21690  0.11570  0.54430  Biso   1.000  P
  P5       1.0000 0.81410  0.46320  0.79470  Biso   1.000  P
  P6       1.0000 0.71330  0.12070  0.05900  Biso   1.000  P
  O14      1.0000 0.88020  0.56950  0.66170  Biso   1.000  O
  O15      1.0000 0.63380  0.21520  0.01910  Biso   1.000  O
  O16      1.0000 0.11200  0.00250  0.65280  Biso   1.000  O
  O17      1.0000 0.37280  0.20580  0.63180  Biso   1.000  O
  O18      1.0000 0.86370  0.22600  0.15880  Biso   1.000  O
  O19      1.0000 0.22720  0.04140  0.38520  Biso   1.000  O
  O20      1.0000 0.73940  0.05840  0.90290  Biso   1.000  O
  O21      1.0000 0.87400  0.55550  0.96540  Biso   1.000  O
  O22      1.0000 0.10480  0.76400  0.50300  Biso   1.000  O
  O23      1.0000 0.64700  0.39820  0.77520  Biso   1.000  O
  O24      1.0000 0.87240  0.34960  0.79780  Biso   1.000  O
  O25      1.0000 0.15570  0.22310  0.49500  Biso   1.000  O
  O26      1.0000 0.62180  0.99720  0.16380  Biso   1.000  O
