data_image0
_cell_length_a       7.228
_cell_length_b       24.997
_cell_length_c       30.902
_cell_angle_alpha    90
_cell_angle_beta     93.167
_cell_angle_gamma    90

_symmetry_space_group_name_H-M    "P 1"
_symmetry_int_tables_number       1

loop_
  _symmetry_equiv_pos_as_xyz
  'x, y, z'

loop_
  _atom_site_label
  _atom_site_occupancy
  _atom_site_fract_x
  _atom_site_fract_y
  _atom_site_fract_z
  _atom_site_thermal_displace_type
  _atom_site_B_iso_or_equiv
  _atom_site_type_symbol
  N1       1.0000 0.28950  0.54999  0.00072  Biso   1.000  N
  N2       1.0000 0.55820  0.52654  0.94240  Biso   1.000  N
  C1       1.0000 0.16840  0.55720  0.03352  Biso   1.000  C
  C2       1.0000 0.03670  0.59820  0.02226  Biso   1.000  C
  H1       1.0000 0.94210  0.61000  0.03910  Biso   1.000  H
  C3       1.0000 0.07450  0.61650  0.98290  Biso   1.000  C
  H2       1.0000 0.01050  0.64320  0.96730  Biso   1.000  H
  C4       1.0000 0.23330  0.58710  0.96923  Biso   1.000  C
  C5       1.0000 0.31810  0.59640  0.93091  Biso   1.000  C
  C6       1.0000 0.46810  0.56720  0.91859  Biso   1.000  C
  C7       1.0000 0.54960  0.57240  0.87663  Biso   1.000  C
  H3       1.0000 0.51320  0.59630  0.85470  Biso   1.000  H
  C8       1.0000 0.68600  0.53660  0.87556  Biso   1.000  C
  H4       1.0000 0.76220  0.53110  0.85270  Biso   1.000  H
  C9       1.0000 0.69460  0.50770  0.91613  Biso   1.000  C
  C10      1.0000 0.18010  0.53170  0.07346  Biso   1.000  C
  C11      1.0000 0.23830  0.63850  0.89999  Biso   1.000  C
  C12      1.0000 0.06580  0.63180  0.87990  Biso   1.000  C
  H5       1.0000 0.99660  0.60160  0.88590  Biso   1.000  H
  C13      1.0000 0.99230  0.67000  0.85030  Biso   1.000  C
  H6       1.0000 0.87550  0.66430  0.83690  Biso   1.000  H
  C14      1.0000 0.08580  0.71400  0.84100  Biso   1.000  C
  C15      1.0000 0.26400  0.72220  0.86190  Biso   1.000  C
  H7       1.0000 0.33150  0.75270  0.85590  Biso   1.000  H
  C16      1.0000 0.33800  0.68440  0.89140  Biso   1.000  C
  H8       1.0000 0.45380  0.69000  0.90530  Biso   1.000  H
  C17      1.0000 0.00800  0.75660  0.80700  Biso   1.000  C
  O1       1.0000 0.11770  0.79030  0.79397  Biso   1.000  O
  O2       1.0000 0.83330  0.74880  0.79590  Biso   1.000  O
  C18      1.0000 0.05020  0.54860  0.10803  Biso   1.000  C
  C19      1.0000 0.12240  0.57830  0.14339  Biso   1.000  C
  H9       1.0000 0.24840  0.58600  0.14600  Biso   1.000  H
  C20      1.0000 0.00560  0.59640  0.17470  Biso   1.000  C
  H10      1.0000 0.05500  0.61570  0.19830  Biso   1.000  H
  C21      1.0000 0.81860  0.58618  0.17111  Biso   1.000  C
  C22      1.0000 0.74300  0.55610  0.13614  Biso   1.000  C
  H11      1.0000 0.61710  0.54820  0.13390  Biso   1.000  H
  C23      1.0000 0.85960  0.53840  0.10476  Biso   1.000  C
  H12      1.0000 0.80960  0.51920  0.08110  Biso   1.000  H
  C24      1.0000 0.69030  0.60946  0.20304  Biso   1.000  C
  O3       1.0000 0.75990  0.64022  0.23347  Biso   1.000  O
  O4       1.0000 0.51830  0.60308  0.20055  Biso   1.000  O
  N3       1.0000 0.78950  0.04999  0.00072  Biso   1.000  N
  N4       1.0000 0.05820  0.02654  0.94240  Biso   1.000  N
  C25      1.0000 0.66840  0.05720  0.03352  Biso   1.000  C
  C26      1.0000 0.53670  0.09820  0.02226  Biso   1.000  C
  H13      1.0000 0.44210  0.11000  0.03910  Biso   1.000  H
  C27      1.0000 0.57450  0.11650  0.98290  Biso   1.000  C
  H14      1.0000 0.51050  0.14320  0.96730  Biso   1.000  H
  C28      1.0000 0.73330  0.08710  0.96923  Biso   1.000  C
  C29      1.0000 0.81810  0.09640  0.93091  Biso   1.000  C
  C30      1.0000 0.96810  0.06720  0.91859  Biso   1.000  C
  C31      1.0000 0.04960  0.07240  0.87663  Biso   1.000  C
  H15      1.0000 0.01320  0.09630  0.85470  Biso   1.000  H
  C32      1.0000 0.18600  0.03660  0.87556  Biso   1.000  C
  H16      1.0000 0.26220  0.03110  0.85270  Biso   1.000  H
  C33      1.0000 0.19460  0.00770  0.91613  Biso   1.000  C
  C34      1.0000 0.68010  0.03170  0.07346  Biso   1.000  C
  C35      1.0000 0.73830  0.13850  0.89999  Biso   1.000  C
  C36      1.0000 0.56580  0.13180  0.87990  Biso   1.000  C
  H17      1.0000 0.49660  0.10160  0.88590  Biso   1.000  H
  C37      1.0000 0.49230  0.17000  0.85030  Biso   1.000  C
  H18      1.0000 0.37550  0.16430  0.83690  Biso   1.000  H
  C38      1.0000 0.58580  0.21400  0.84100  Biso   1.000  C
  C39      1.0000 0.76400  0.22220  0.86190  Biso   1.000  C
  H19      1.0000 0.83150  0.25270  0.85590  Biso   1.000  H
  C40      1.0000 0.83800  0.18440  0.89140  Biso   1.000  C
  H20      1.0000 0.95380  0.19000  0.90530  Biso   1.000  H
  C41      1.0000 0.50800  0.25660  0.80700  Biso   1.000  C
  O5       1.0000 0.61770  0.29030  0.79397  Biso   1.000  O
  O6       1.0000 0.33330  0.24880  0.79590  Biso   1.000  O
  C42      1.0000 0.55020  0.04860  0.10803  Biso   1.000  C
  C43      1.0000 0.62240  0.07830  0.14339  Biso   1.000  C
  H21      1.0000 0.74840  0.08600  0.14600  Biso   1.000  H
  C44      1.0000 0.50560  0.09640  0.17470  Biso   1.000  C
  H22      1.0000 0.55500  0.11570  0.19830  Biso   1.000  H
  C45      1.0000 0.31860  0.08618  0.17111  Biso   1.000  C
  C46      1.0000 0.24300  0.05610  0.13614  Biso   1.000  C
  H23      1.0000 0.11710  0.04820  0.13390  Biso   1.000  H
  C47      1.0000 0.35960  0.03840  0.10476  Biso   1.000  C
  H24      1.0000 0.30960  0.01920  0.08110  Biso   1.000  H
  C48      1.0000 0.19030  0.10946  0.20304  Biso   1.000  C
  O7       1.0000 0.25990  0.14022  0.23347  Biso   1.000  O
  O8       1.0000 0.01830  0.10308  0.20055  Biso   1.000  O
  N5       1.0000 0.71050  0.54999  0.49928  Biso   1.000  N
  N6       1.0000 0.44180  0.52654  0.55760  Biso   1.000  N
  C49      1.0000 0.83160  0.55720  0.46648  Biso   1.000  C
  C50      1.0000 0.96330  0.59820  0.47774  Biso   1.000  C
  H25      1.0000 0.05790  0.61000  0.46090  Biso   1.000  H
  C51      1.0000 0.92550  0.61650  0.51710  Biso   1.000  C
  H26      1.0000 0.98950  0.64320  0.53270  Biso   1.000  H
  C52      1.0000 0.76670  0.58710  0.53077  Biso   1.000  C
  C53      1.0000 0.68190  0.59640  0.56909  Biso   1.000  C
  C54      1.0000 0.53190  0.56720  0.58141  Biso   1.000  C
  C55      1.0000 0.45040  0.57240  0.62337  Biso   1.000  C
  H27      1.0000 0.48680  0.59630  0.64530  Biso   1.000  H
  C56      1.0000 0.31400  0.53660  0.62444  Biso   1.000  C
  H28      1.0000 0.23780  0.53110  0.64730  Biso   1.000  H
  C57      1.0000 0.30540  0.50770  0.58387  Biso   1.000  C
  C58      1.0000 0.81990  0.53170  0.42654  Biso   1.000  C
  C59      1.0000 0.76170  0.63850  0.60001  Biso   1.000  C
  C60      1.0000 0.93420  0.63180  0.62010  Biso   1.000  C
  H29      1.0000 0.00340  0.60160  0.61410  Biso   1.000  H
  C61      1.0000 0.00770  0.67000  0.64970  Biso   1.000  C
  H30      1.0000 0.12450  0.66430  0.66310  Biso   1.000  H
  C62      1.0000 0.91420  0.71400  0.65900  Biso   1.000  C
  C63      1.0000 0.73600  0.72220  0.63810  Biso   1.000  C
  H31      1.0000 0.66850  0.75270  0.64410  Biso   1.000  H
  C64      1.0000 0.66200  0.68440  0.60860  Biso   1.000  C
  H32      1.0000 0.54620  0.69000  0.59470  Biso   1.000  H
  C65      1.0000 0.99200  0.75660  0.69300  Biso   1.000  C
  O9       1.0000 0.88230  0.79030  0.70603  Biso   1.000  O
  O10      1.0000 0.16670  0.74880  0.70410  Biso   1.000  O
  C66      1.0000 0.94980  0.54860  0.39197  Biso   1.000  C
  C67      1.0000 0.87760  0.57830  0.35661  Biso   1.000  C
  H33      1.0000 0.75160  0.58600  0.35400  Biso   1.000  H
  C68      1.0000 0.99440  0.59640  0.32530  Biso   1.000  C
  H34      1.0000 0.94500  0.61570  0.30170  Biso   1.000  H
  C69      1.0000 0.18140  0.58618  0.32889  Biso   1.000  C
  C70      1.0000 0.25700  0.55610  0.36386  Biso   1.000  C
  H35      1.0000 0.38290  0.54820  0.36610  Biso   1.000  H
  C71      1.0000 0.14040  0.53840  0.39524  Biso   1.000  C
  H36      1.0000 0.19040  0.51920  0.41890  Biso   1.000  H
  C72      1.0000 0.30970  0.60946  0.29696  Biso   1.000  C
  O11      1.0000 0.24010  0.64022  0.26653  Biso   1.000  O
  O12      1.0000 0.48170  0.60308  0.29945  Biso   1.000  O
  N7       1.0000 0.21050  0.04999  0.49928  Biso   1.000  N
  N8       1.0000 0.94180  0.02654  0.55760  Biso   1.000  N
  C73      1.0000 0.33160  0.05720  0.46648  Biso   1.000  C
  C74      1.0000 0.46330  0.09820  0.47774  Biso   1.000  C
  H37      1.0000 0.55790  0.11000  0.46090  Biso   1.000  H
  C75      1.0000 0.42550  0.11650  0.51710  Biso   1.000  C
  H38      1.0000 0.48950  0.14320  0.53270  Biso   1.000  H
  C76      1.0000 0.26670  0.08710  0.53077  Biso   1.000  C
  C77      1.0000 0.18190  0.09640  0.56909  Biso   1.000  C
  C78      1.0000 0.03190  0.06720  0.58141  Biso   1.000  C
  C79      1.0000 0.95040  0.07240  0.62337  Biso   1.000  C
  H39      1.0000 0.98680  0.09630  0.64530  Biso   1.000  H
  C80      1.0000 0.81400  0.03660  0.62444  Biso   1.000  C
  H40      1.0000 0.73780  0.03110  0.64730  Biso   1.000  H
  C81      1.0000 0.80540  0.00770  0.58387  Biso   1.000  C
  C82      1.0000 0.31990  0.03170  0.42654  Biso   1.000  C
  C83      1.0000 0.26170  0.13850  0.60001  Biso   1.000  C
  C84      1.0000 0.43420  0.13180  0.62010  Biso   1.000  C
  H41      1.0000 0.50340  0.10160  0.61410  Biso   1.000  H
  C85      1.0000 0.50770  0.17000  0.64970  Biso   1.000  C
  H42      1.0000 0.62450  0.16430  0.66310  Biso   1.000  H
  C86      1.0000 0.41420  0.21400  0.65900  Biso   1.000  C
  C87      1.0000 0.23600  0.22220  0.63810  Biso   1.000  C
  H43      1.0000 0.16850  0.25270  0.64410  Biso   1.000  H
  C88      1.0000 0.16200  0.18440  0.60860  Biso   1.000  C
  H44      1.0000 0.04620  0.19000  0.59470  Biso   1.000  H
  C89      1.0000 0.49200  0.25660  0.69300  Biso   1.000  C
  O13      1.0000 0.38230  0.29030  0.70603  Biso   1.000  O
  O14      1.0000 0.66670  0.24880  0.70410  Biso   1.000  O
  C90      1.0000 0.44980  0.04860  0.39197  Biso   1.000  C
  C91      1.0000 0.37760  0.07830  0.35661  Biso   1.000  C
  H45      1.0000 0.25160  0.08600  0.35400  Biso   1.000  H
  C92      1.0000 0.49440  0.09640  0.32530  Biso   1.000  C
  H46      1.0000 0.44500  0.11570  0.30170  Biso   1.000  H
  C93      1.0000 0.68140  0.08618  0.32889  Biso   1.000  C
  C94      1.0000 0.75700  0.05610  0.36386  Biso   1.000  C
  H47      1.0000 0.88290  0.04820  0.36610  Biso   1.000  H
  C95      1.0000 0.64040  0.03840  0.39524  Biso   1.000  C
  H48      1.0000 0.69040  0.01920  0.41890  Biso   1.000  H
  C96      1.0000 0.80970  0.10946  0.29696  Biso   1.000  C
  O15      1.0000 0.74010  0.14022  0.26653  Biso   1.000  O
  O16      1.0000 0.98170  0.10308  0.29945  Biso   1.000  O
  N9       1.0000 0.71050  0.45001  0.99928  Biso   1.000  N
  N10      1.0000 0.44180  0.47346  0.05760  Biso   1.000  N
  C97      1.0000 0.83160  0.44280  0.96648  Biso   1.000  C
  C98      1.0000 0.96330  0.40180  0.97774  Biso   1.000  C
  H49      1.0000 0.05790  0.39000  0.96090  Biso   1.000  H
  C99      1.0000 0.92550  0.38350  0.01710  Biso   1.000  C
  H50      1.0000 0.98950  0.35680  0.03270  Biso   1.000  H
  C100     1.0000 0.76670  0.41290  0.03077  Biso   1.000  C
  C101     1.0000 0.68190  0.40360  0.06909  Biso   1.000  C
  C102     1.0000 0.53190  0.43280  0.08141  Biso   1.000  C
  C103     1.0000 0.45040  0.42760  0.12337  Biso   1.000  C
  H51      1.0000 0.48680  0.40370  0.14530  Biso   1.000  H
  C104     1.0000 0.31400  0.46340  0.12444  Biso   1.000  C
  H52      1.0000 0.23780  0.46890  0.14730  Biso   1.000  H
  C105     1.0000 0.30540  0.49230  0.08387  Biso   1.000  C
  C106     1.0000 0.81990  0.46830  0.92654  Biso   1.000  C
  C107     1.0000 0.76170  0.36150  0.10001  Biso   1.000  C
  C108     1.0000 0.93420  0.36820  0.12010  Biso   1.000  C
  H53      1.0000 0.00340  0.39840  0.11410  Biso   1.000  H
  C109     1.0000 0.00770  0.33000  0.14970  Biso   1.000  C
  H54      1.0000 0.12450  0.33570  0.16310  Biso   1.000  H
  C110     1.0000 0.91420  0.28600  0.15900  Biso   1.000  C
  C111     1.0000 0.73600  0.27780  0.13810  Biso   1.000  C
  H55      1.0000 0.66850  0.24730  0.14410  Biso   1.000  H
  C112     1.0000 0.66200  0.31560  0.10860  Biso   1.000  C
  H56      1.0000 0.54620  0.31000  0.09470  Biso   1.000  H
  C113     1.0000 0.99200  0.24340  0.19300  Biso   1.000  C
  O17      1.0000 0.88230  0.20970  0.20603  Biso   1.000  O
  O18      1.0000 0.16670  0.25120  0.20410  Biso   1.000  O
  C114     1.0000 0.94980  0.45140  0.89197  Biso   1.000  C
  C115     1.0000 0.87760  0.42170  0.85661  Biso   1.000  C
  H57      1.0000 0.75160  0.41400  0.85400  Biso   1.000  H
  C116     1.0000 0.99440  0.40360  0.82530  Biso   1.000  C
  H58      1.0000 0.94500  0.38430  0.80170  Biso   1.000  H
  C117     1.0000 0.18140  0.41382  0.82889  Biso   1.000  C
  C118     1.0000 0.25700  0.44390  0.86386  Biso   1.000  C
  H59      1.0000 0.38290  0.45180  0.86610  Biso   1.000  H
  C119     1.0000 0.14040  0.46160  0.89524  Biso   1.000  C
  H60      1.0000 0.19040  0.48080  0.91890  Biso   1.000  H
  C120     1.0000 0.30970  0.39054  0.79696  Biso   1.000  C
  O19      1.0000 0.24010  0.35978  0.76653  Biso   1.000  O
  O20      1.0000 0.48170  0.39692  0.79945  Biso   1.000  O
  N11      1.0000 0.21050  0.95001  0.99928  Biso   1.000  N
  N12      1.0000 0.94180  0.97346  0.05760  Biso   1.000  N
  C121     1.0000 0.33160  0.94280  0.96648  Biso   1.000  C
  C122     1.0000 0.46330  0.90180  0.97774  Biso   1.000  C
  H61      1.0000 0.55790  0.89000  0.96090  Biso   1.000  H
  C123     1.0000 0.42550  0.88350  0.01710  Biso   1.000  C
  H62      1.0000 0.48950  0.85680  0.03270  Biso   1.000  H
  C124     1.0000 0.26670  0.91290  0.03077  Biso   1.000  C
  C125     1.0000 0.18190  0.90360  0.06909  Biso   1.000  C
  C126     1.0000 0.03190  0.93280  0.08141  Biso   1.000  C
  C127     1.0000 0.95040  0.92760  0.12337  Biso   1.000  C
  H63      1.0000 0.98680  0.90370  0.14530  Biso   1.000  H
  C128     1.0000 0.81400  0.96340  0.12444  Biso   1.000  C
  H64      1.0000 0.73780  0.96890  0.14730  Biso   1.000  H
  C129     1.0000 0.80540  0.99230  0.08387  Biso   1.000  C
  C130     1.0000 0.31990  0.96830  0.92654  Biso   1.000  C
  C131     1.0000 0.26170  0.86150  0.10001  Biso   1.000  C
  C132     1.0000 0.43420  0.86820  0.12010  Biso   1.000  C
  H65      1.0000 0.50340  0.89840  0.11410  Biso   1.000  H
  C133     1.0000 0.50770  0.83000  0.14970  Biso   1.000  C
  H66      1.0000 0.62450  0.83570  0.16310  Biso   1.000  H
  C134     1.0000 0.41420  0.78600  0.15900  Biso   1.000  C
  C135     1.0000 0.23600  0.77780  0.13810  Biso   1.000  C
  H67      1.0000 0.16850  0.74730  0.14410  Biso   1.000  H
  C136     1.0000 0.16200  0.81560  0.10860  Biso   1.000  C
  H68      1.0000 0.04620  0.81000  0.09470  Biso   1.000  H
  C137     1.0000 0.49200  0.74340  0.19300  Biso   1.000  C
  O21      1.0000 0.38230  0.70970  0.20603  Biso   1.000  O
  O22      1.0000 0.66670  0.75120  0.20410  Biso   1.000  O
  C138     1.0000 0.44980  0.95140  0.89197  Biso   1.000  C
  C139     1.0000 0.37760  0.92170  0.85661  Biso   1.000  C
  H69      1.0000 0.25160  0.91400  0.85400  Biso   1.000  H
  C140     1.0000 0.49440  0.90360  0.82530  Biso   1.000  C
  H70      1.0000 0.44500  0.88430  0.80170  Biso   1.000  H
  C141     1.0000 0.68140  0.91382  0.82889  Biso   1.000  C
  C142     1.0000 0.75700  0.94390  0.86386  Biso   1.000  C
  H71      1.0000 0.88290  0.95180  0.86610  Biso   1.000  H
  C143     1.0000 0.64040  0.96160  0.89524  Biso   1.000  C
  H72      1.0000 0.69040  0.98080  0.91890  Biso   1.000  H
  C144     1.0000 0.80970  0.89054  0.79696  Biso   1.000  C
  O23      1.0000 0.74010  0.85978  0.76653  Biso   1.000  O
  O24      1.0000 0.98170  0.89692  0.79945  Biso   1.000  O
  N13      1.0000 0.28950  0.45001  0.50072  Biso   1.000  N
  N14      1.0000 0.55820  0.47346  0.44240  Biso   1.000  N
  C145     1.0000 0.16840  0.44280  0.53352  Biso   1.000  C
  C146     1.0000 0.03670  0.40180  0.52226  Biso   1.000  C
  H73      1.0000 0.94210  0.39000  0.53910  Biso   1.000  H
  C147     1.0000 0.07450  0.38350  0.48290  Biso   1.000  C
  H74      1.0000 0.01050  0.35680  0.46730  Biso   1.000  H
  C148     1.0000 0.23330  0.41290  0.46923  Biso   1.000  C
  C149     1.0000 0.31810  0.40360  0.43091  Biso   1.000  C
  C150     1.0000 0.46810  0.43280  0.41859  Biso   1.000  C
  C151     1.0000 0.54960  0.42760  0.37663  Biso   1.000  C
  H75      1.0000 0.51320  0.40370  0.35470  Biso   1.000  H
  C152     1.0000 0.68600  0.46340  0.37556  Biso   1.000  C
  H76      1.0000 0.76220  0.46890  0.35270  Biso   1.000  H
  C153     1.0000 0.69460  0.49230  0.41613  Biso   1.000  C
  C154     1.0000 0.18010  0.46830  0.57346  Biso   1.000  C
  C155     1.0000 0.23830  0.36150  0.39999  Biso   1.000  C
  C156     1.0000 0.06580  0.36820  0.37990  Biso   1.000  C
  H77      1.0000 0.99660  0.39840  0.38590  Biso   1.000  H
  C157     1.0000 0.99230  0.33000  0.35030  Biso   1.000  C
  H78      1.0000 0.87550  0.33570  0.33690  Biso   1.000  H
  C158     1.0000 0.08580  0.28600  0.34100  Biso   1.000  C
  C159     1.0000 0.26400  0.27780  0.36190  Biso   1.000  C
  H79      1.0000 0.33150  0.24730  0.35590  Biso   1.000  H
  C160     1.0000 0.33800  0.31560  0.39140  Biso   1.000  C
  H80      1.0000 0.45380  0.31000  0.40530  Biso   1.000  H
  C161     1.0000 0.00800  0.24340  0.30700  Biso   1.000  C
  O25      1.0000 0.11770  0.20970  0.29397  Biso   1.000  O
  O26      1.0000 0.83330  0.25120  0.29590  Biso   1.000  O
  C162     1.0000 0.05020  0.45140  0.60803  Biso   1.000  C
  C163     1.0000 0.12240  0.42170  0.64339  Biso   1.000  C
  H81      1.0000 0.24840  0.41400  0.64600  Biso   1.000  H
  C164     1.0000 0.00560  0.40360  0.67470  Biso   1.000  C
  H82      1.0000 0.05500  0.38430  0.69830  Biso   1.000  H
  C165     1.0000 0.81860  0.41382  0.67111  Biso   1.000  C
  C166     1.0000 0.74300  0.44390  0.63614  Biso   1.000  C
  H83      1.0000 0.61710  0.45180  0.63390  Biso   1.000  H
  C167     1.0000 0.85960  0.46160  0.60476  Biso   1.000  C
  H84      1.0000 0.80960  0.48080  0.58110  Biso   1.000  H
  C168     1.0000 0.69030  0.39054  0.70304  Biso   1.000  C
  O27      1.0000 0.75990  0.35978  0.73347  Biso   1.000  O
  O28      1.0000 0.51830  0.39692  0.70055  Biso   1.000  O
  N15      1.0000 0.78950  0.95001  0.50072  Biso   1.000  N
  N16      1.0000 0.05820  0.97346  0.44240  Biso   1.000  N
  C169     1.0000 0.66840  0.94280  0.53352  Biso   1.000  C
  C170     1.0000 0.53670  0.90180  0.52226  Biso   1.000  C
  H85      1.0000 0.44210  0.89000  0.53910  Biso   1.000  H
  C171     1.0000 0.57450  0.88350  0.48290  Biso   1.000  C
  H86      1.0000 0.51050  0.85680  0.46730  Biso   1.000  H
  C172     1.0000 0.73330  0.91290  0.46923  Biso   1.000  C
  C173     1.0000 0.81810  0.90360  0.43091  Biso   1.000  C
  C174     1.0000 0.96810  0.93280  0.41859  Biso   1.000  C
  C175     1.0000 0.04960  0.92760  0.37663  Biso   1.000  C
  H87      1.0000 0.01320  0.90370  0.35470  Biso   1.000  H
  C176     1.0000 0.18600  0.96340  0.37556  Biso   1.000  C
  H88      1.0000 0.26220  0.96890  0.35270  Biso   1.000  H
  C177     1.0000 0.19460  0.99230  0.41613  Biso   1.000  C
  C178     1.0000 0.68010  0.96830  0.57346  Biso   1.000  C
  C179     1.0000 0.73830  0.86150  0.39999  Biso   1.000  C
  C180     1.0000 0.56580  0.86820  0.37990  Biso   1.000  C
  H89      1.0000 0.49660  0.89840  0.38590  Biso   1.000  H
  C181     1.0000 0.49230  0.83000  0.35030  Biso   1.000  C
  H90      1.0000 0.37550  0.83570  0.33690  Biso   1.000  H
  C182     1.0000 0.58580  0.78600  0.34100  Biso   1.000  C
  C183     1.0000 0.76400  0.77780  0.36190  Biso   1.000  C
  H91      1.0000 0.83150  0.74730  0.35590  Biso   1.000  H
  C184     1.0000 0.83800  0.81560  0.39140  Biso   1.000  C
  H92      1.0000 0.95380  0.81000  0.40530  Biso   1.000  H
  C185     1.0000 0.50800  0.74340  0.30700  Biso   1.000  C
  O29      1.0000 0.61770  0.70970  0.29397  Biso   1.000  O
  O30      1.0000 0.33330  0.75120  0.29590  Biso   1.000  O
  C186     1.0000 0.55020  0.95140  0.60803  Biso   1.000  C
  C187     1.0000 0.62240  0.92170  0.64339  Biso   1.000  C
  H93      1.0000 0.74840  0.91400  0.64600  Biso   1.000  H
  C188     1.0000 0.50560  0.90360  0.67470  Biso   1.000  C
  H94      1.0000 0.55500  0.88430  0.69830  Biso   1.000  H
  C189     1.0000 0.31860  0.91382  0.67111  Biso   1.000  C
  C190     1.0000 0.24300  0.94390  0.63614  Biso   1.000  C
  H95      1.0000 0.11710  0.95180  0.63390  Biso   1.000  H
  C191     1.0000 0.35960  0.96160  0.60476  Biso   1.000  C
  H96      1.0000 0.30960  0.98080  0.58110  Biso   1.000  H
  C192     1.0000 0.19030  0.89054  0.70304  Biso   1.000  C
  O31      1.0000 0.25990  0.85978  0.73347  Biso   1.000  O
  O32      1.0000 0.01830  0.89692  0.70055  Biso   1.000  O
  Ni1      1.0000 0.50000  0.50000  0.00000  Biso   1.000  Ni
  Ni2      1.0000 0.00000  0.00000  0.00000  Biso   1.000  Ni
  Ni3      1.0000 0.50000  0.50000  0.50000  Biso   1.000  Ni
  Ni4      1.0000 0.00000  0.00000  0.50000  Biso   1.000  Ni
  Fe1      1.0000 0.50000  0.33618  0.75000  Biso   1.000  Fe
  Fe2      1.0000 0.00000  0.83618  0.75000  Biso   1.000  Fe
  Fe3      1.0000 0.50000  0.66382  0.25000  Biso   1.000  Fe
  Fe4      1.0000 0.00000  0.16382  0.25000  Biso   1.000  Fe
  K1       1.0000 0.00000  0.26489  0.75000  Biso   1.000  K
  K2       1.0000 0.50000  0.76489  0.75000  Biso   1.000  K
  K3       1.0000 0.00000  0.73511  0.25000  Biso   1.000  K
  K4       1.0000 0.50000  0.23511  0.25000  Biso   1.000  K
