data_PARHEW_clean
_audit_creation_date              2014-07-02
_audit_creation_method            'Materials Studio'
_symmetry_space_group_name_H-M    'P1'
_symmetry_Int_Tables_number       1
_symmetry_cell_setting            triclinic
loop_
_symmetry_equiv_pos_as_xyz
  x,y,z
_cell_length_a                    7.7536
_cell_length_b                    15.0736
_cell_length_c                    16.8008
_cell_angle_alpha                 90.0000
_cell_angle_beta                  99.7990
_cell_angle_gamma                 90.0000
loop_
_atom_site_label
_atom_site_type_symbol
_atom_site_fract_x
_atom_site_fract_y
_atom_site_fract_z
_atom_site_U_iso_or_equiv
_atom_site_adp_type
_atom_site_occupancy
Ca1    Ca    0.50477   0.21911   0.24950   0.01267  Uiso   1.00
Ca2    Ca    0.99523   0.71911   0.75050   0.01267  Uiso   1.00
Ca3    Ca    0.49523   0.78089   0.75050   0.01267  Uiso   1.00
Ca4    Ca    0.00477   0.28089   0.24950   0.01267  Uiso   1.00
H1     H     0.61620   0.49280   0.13450   0.01267  Uiso   1.00
H2     H     0.73600   0.44010   0.08700   0.01267  Uiso   1.00
H3     H     0.62950   0.54340   0.96450   0.01267  Uiso   1.00
H4     H     0.51290   0.59230   0.01440   0.01267  Uiso   1.00
H5     H     0.37930   0.49370   0.36310   0.01267  Uiso   1.00
H6     H     0.27140   0.43810   0.41350   0.01267  Uiso   1.00
H7     H     0.63470   0.47310   0.45780   0.01267  Uiso   1.00
H8     H     0.54320   0.40980   0.50840   0.01267  Uiso   1.00
H9     H     0.88380   0.99280   0.86550   0.01267  Uiso   1.00
H10    H     0.76400   0.94010   0.91300   0.01267  Uiso   1.00
H11    H     0.87050   0.04340   0.03550   0.01267  Uiso   1.00
H12    H     0.98710   0.09230   0.98560   0.01267  Uiso   1.00
H13    H     0.12070   0.99370   0.63690   0.01267  Uiso   1.00
H14    H     0.22860   0.93810   0.58650   0.01267  Uiso   1.00
H15    H     0.86530   0.97310   0.54220   0.01267  Uiso   1.00
H16    H     0.95680   0.90980   0.49160   0.01267  Uiso   1.00
H17    H     0.38380   0.50720   0.86550   0.01267  Uiso   1.00
H18    H     0.26400   0.55990   0.91300   0.01267  Uiso   1.00
H19    H     0.37050   0.45660   0.03550   0.01267  Uiso   1.00
H20    H     0.48710   0.40770   0.98560   0.01267  Uiso   1.00
H21    H     0.62070   0.50630   0.63690   0.01267  Uiso   1.00
H22    H     0.72860   0.56190   0.58650   0.01267  Uiso   1.00
H23    H     0.36530   0.52690   0.54220   0.01267  Uiso   1.00
H24    H     0.45680   0.59020   0.49160   0.01267  Uiso   1.00
H25    H     0.11620   0.00720   0.13450   0.01267  Uiso   1.00
H26    H     0.23600   0.05990   0.08700   0.01267  Uiso   1.00
H27    H     0.12950   0.95660   0.96450   0.01267  Uiso   1.00
H28    H     0.01290   0.90770   0.01440   0.01267  Uiso   1.00
H29    H     0.87930   0.00630   0.36310   0.01267  Uiso   1.00
H30    H     0.77140   0.06190   0.41350   0.01267  Uiso   1.00
H31    H     0.13470   0.02690   0.45780   0.01267  Uiso   1.00
H32    H     0.04320   0.09020   0.50840   0.01267  Uiso   1.00
C1     C     0.58984   0.36197   0.14754   0.01267  Uiso   1.00
C2     C     0.61902   0.44353   0.09851   0.01267  Uiso   1.00
C3     C     0.48571   0.45694   0.02175   0.01267  Uiso   1.00
C4     C     0.41810   0.36326   0.35059   0.01267  Uiso   1.00
C5     C     0.38609   0.44455   0.39990   0.01267  Uiso   1.00
C6     C     0.52449   0.46147   0.47455   0.01267  Uiso   1.00
C7     C     0.91016   0.86197   0.85246   0.01267  Uiso   1.00
C8     C     0.88098   0.94353   0.90149   0.01267  Uiso   1.00
C9     C     0.01429   0.95694   0.97825   0.01267  Uiso   1.00
C10    C     0.08190   0.86326   0.64941   0.01267  Uiso   1.00
C11    C     0.11391   0.94455   0.60010   0.01267  Uiso   1.00
C12    C     0.97551   0.96147   0.52545   0.01267  Uiso   1.00
C13    C     0.41016   0.63803   0.85246   0.01267  Uiso   1.00
C14    C     0.38098   0.55647   0.90149   0.01267  Uiso   1.00
C15    C     0.51429   0.54306   0.97825   0.01267  Uiso   1.00
C16    C     0.58190   0.63674   0.64941   0.01267  Uiso   1.00
C17    C     0.61391   0.55545   0.60010   0.01267  Uiso   1.00
C18    C     0.47551   0.53853   0.52545   0.01267  Uiso   1.00
C19    C     0.08984   0.13803   0.14754   0.01267  Uiso   1.00
C20    C     0.11902   0.05647   0.09851   0.01267  Uiso   1.00
C21    C     0.98571   0.04306   0.02175   0.01267  Uiso   1.00
C22    C     0.91810   0.13674   0.35059   0.01267  Uiso   1.00
C23    C     0.88609   0.05545   0.39990   0.01267  Uiso   1.00
C24    C     0.02449   0.03853   0.47455   0.01267  Uiso   1.00
O1     O     0.43701   0.33237   0.14428   0.01267  Uiso   1.00
O2     O     0.71919   0.32674   0.19169   0.01267  Uiso   1.00
O3     O     0.28984   0.32718   0.30662   0.01267  Uiso   1.00
O4     O     0.57193   0.33461   0.35421   0.01267  Uiso   1.00
O5     O     0.06299   0.83237   0.85572   0.01267  Uiso   1.00
O6     O     0.78081   0.82674   0.80831   0.01267  Uiso   1.00
O7     O     0.21016   0.82718   0.69338   0.01267  Uiso   1.00
O8     O     0.92807   0.83461   0.64579   0.01267  Uiso   1.00
O9     O     0.56299   0.66763   0.85572   0.01267  Uiso   1.00
O10    O     0.28081   0.67326   0.80831   0.01267  Uiso   1.00
O11    O     0.71016   0.67282   0.69338   0.01267  Uiso   1.00
O12    O     0.42807   0.66539   0.64579   0.01267  Uiso   1.00
O13    O     0.93701   0.16763   0.14428   0.01267  Uiso   1.00
O14    O     0.21919   0.17326   0.19169   0.01267  Uiso   1.00
O15    O     0.78984   0.17282   0.30662   0.01267  Uiso   1.00
O16    O     0.07193   0.16539   0.35421   0.01267  Uiso   1.00
