data_PARMIG_clean
_audit_creation_date              2014-07-02
_audit_creation_method            'Materials Studio'
_symmetry_space_group_name_H-M    'P1'
_symmetry_Int_Tables_number       1
_symmetry_cell_setting            triclinic
loop_
_symmetry_equiv_pos_as_xyz
  x,y,z
_cell_length_a                    8.3862
_cell_length_b                    15.0363
_cell_length_c                    15.0363
_cell_angle_alpha                 90.0000
_cell_angle_beta                  90.0000
_cell_angle_gamma                 90.0000
loop_
_atom_site_label
_atom_site_type_symbol
_atom_site_fract_x
_atom_site_fract_y
_atom_site_fract_z
_atom_site_U_iso_or_equiv
_atom_site_adp_type
_atom_site_occupancy
Ni1    Ni    0.00000   0.25580   0.25580   0.01267  Uiso   1.00
Ni2    Ni    0.50000   0.74420   0.74420   0.01267  Uiso   1.00
Ni3    Ni    0.25000   0.24420   0.75580   0.01267  Uiso   1.00
Ni4    Ni    0.75000   0.75580   0.24420   0.01267  Uiso   1.00
H1     H     0.17540   0.27420   0.07710   0.01267  Uiso   1.00
H2     H     0.06850   0.27380   0.93150   0.01267  Uiso   1.00
H3     H     0.75700   0.25800   0.86100   0.01267  Uiso   1.00
H4     H     0.43700   0.22100   0.05100   0.01267  Uiso   1.00
H5     H     0.63400   0.23100   0.16300   0.01267  Uiso   1.00
H6     H     0.67540   0.72580   0.92290   0.01267  Uiso   1.00
H7     H     0.56850   0.72620   0.06850   0.01267  Uiso   1.00
H8     H     0.25700   0.74200   0.13900   0.01267  Uiso   1.00
H9     H     0.93700   0.77900   0.94900   0.01267  Uiso   1.00
H10    H     0.13400   0.76900   0.83700   0.01267  Uiso   1.00
H11    H     0.42540   0.42290   0.77420   0.01267  Uiso   1.00
H12    H     0.31850   0.56850   0.77380   0.01267  Uiso   1.00
H13    H     0.00700   0.63900   0.75800   0.01267  Uiso   1.00
H14    H     0.68700   0.44900   0.72100   0.01267  Uiso   1.00
H15    H     0.88400   0.33700   0.73100   0.01267  Uiso   1.00
H16    H     0.92540   0.57710   0.22580   0.01267  Uiso   1.00
H17    H     0.81850   0.43150   0.22620   0.01267  Uiso   1.00
H18    H     0.50700   0.36100   0.24200   0.01267  Uiso   1.00
H19    H     0.18700   0.55100   0.27900   0.01267  Uiso   1.00
H20    H     0.38400   0.66300   0.26900   0.01267  Uiso   1.00
H21    H     0.07460   0.22580   0.57710   0.01267  Uiso   1.00
H22    H     0.18150   0.22620   0.43150   0.01267  Uiso   1.00
H23    H     0.49300   0.24200   0.36100   0.01267  Uiso   1.00
H24    H     0.81300   0.27900   0.55100   0.01267  Uiso   1.00
H25    H     0.61600   0.26900   0.66300   0.01267  Uiso   1.00
H26    H     0.57460   0.77420   0.42290   0.01267  Uiso   1.00
H27    H     0.68150   0.77380   0.56850   0.01267  Uiso   1.00
H28    H     0.99300   0.75800   0.63900   0.01267  Uiso   1.00
H29    H     0.31300   0.72100   0.44900   0.01267  Uiso   1.00
H30    H     0.11600   0.73100   0.33700   0.01267  Uiso   1.00
H31    H     0.82460   0.07710   0.27420   0.01267  Uiso   1.00
H32    H     0.93150   0.93150   0.27380   0.01267  Uiso   1.00
H33    H     0.24300   0.86100   0.25800   0.01267  Uiso   1.00
H34    H     0.56300   0.05100   0.22100   0.01267  Uiso   1.00
H35    H     0.36600   0.16300   0.23100   0.01267  Uiso   1.00
H36    H     0.32460   0.92290   0.72580   0.01267  Uiso   1.00
H37    H     0.43150   0.06850   0.72620   0.01267  Uiso   1.00
H38    H     0.74300   0.13900   0.74200   0.01267  Uiso   1.00
H39    H     0.06300   0.94900   0.77900   0.01267  Uiso   1.00
H40    H     0.86600   0.83700   0.76900   0.01267  Uiso   1.00
C1     C     0.44810   0.24100   0.87770   0.01267  Uiso   1.00
C2     C     0.57900   0.24220   0.94480   0.01267  Uiso   1.00
C3     C     0.54250   0.23300   0.03600   0.01267  Uiso   1.00
C4     C     0.65780   0.23730   0.10110   0.01267  Uiso   1.00
C5     C     0.81570   0.25130   0.07420   0.01267  Uiso   1.00
C6     C     0.84980   0.25680   0.98350   0.01267  Uiso   1.00
C7     C     0.73390   0.25300   0.91820   0.01267  Uiso   1.00
C8     C     0.06790   0.26860   0.06290   0.01267  Uiso   1.00
C9     C     0.94810   0.75900   0.12230   0.01267  Uiso   1.00
C10    C     0.07900   0.75780   0.05520   0.01267  Uiso   1.00
C11    C     0.04250   0.76700   0.96400   0.01267  Uiso   1.00
C12    C     0.15780   0.76270   0.89890   0.01267  Uiso   1.00
C13    C     0.31570   0.74870   0.92580   0.01267  Uiso   1.00
C14    C     0.34980   0.74320   0.01650   0.01267  Uiso   1.00
C15    C     0.23390   0.74700   0.08180   0.01267  Uiso   1.00
C16    C     0.56790   0.73140   0.93710   0.01267  Uiso   1.00
C17    C     0.69810   0.62230   0.74100   0.01267  Uiso   1.00
C18    C     0.82900   0.55520   0.74220   0.01267  Uiso   1.00
C19    C     0.79250   0.46400   0.73300   0.01267  Uiso   1.00
C20    C     0.90780   0.39890   0.73730   0.01267  Uiso   1.00
C21    C     0.06570   0.42580   0.75130   0.01267  Uiso   1.00
C22    C     0.09980   0.51650   0.75680   0.01267  Uiso   1.00
C23    C     0.98390   0.58180   0.75300   0.01267  Uiso   1.00
C24    C     0.31790   0.43710   0.76860   0.01267  Uiso   1.00
C25    C     0.19810   0.37770   0.25900   0.01267  Uiso   1.00
C26    C     0.32900   0.44480   0.25780   0.01267  Uiso   1.00
C27    C     0.29250   0.53600   0.26700   0.01267  Uiso   1.00
C28    C     0.40780   0.60110   0.26270   0.01267  Uiso   1.00
C29    C     0.56570   0.57420   0.24870   0.01267  Uiso   1.00
C30    C     0.59980   0.48350   0.24320   0.01267  Uiso   1.00
C31    C     0.48390   0.41820   0.24700   0.01267  Uiso   1.00
C32    C     0.81790   0.56290   0.23140   0.01267  Uiso   1.00
C33    C     0.80190   0.25900   0.37770   0.01267  Uiso   1.00
C34    C     0.67100   0.25780   0.44480   0.01267  Uiso   1.00
C35    C     0.70750   0.26700   0.53600   0.01267  Uiso   1.00
C36    C     0.59220   0.26270   0.60110   0.01267  Uiso   1.00
C37    C     0.43430   0.24870   0.57420   0.01267  Uiso   1.00
C38    C     0.40020   0.24320   0.48350   0.01267  Uiso   1.00
C39    C     0.51610   0.24700   0.41820   0.01267  Uiso   1.00
C40    C     0.18210   0.23140   0.56290   0.01267  Uiso   1.00
C41    C     0.30190   0.74100   0.62230   0.01267  Uiso   1.00
C42    C     0.17100   0.74220   0.55520   0.01267  Uiso   1.00
C43    C     0.20750   0.73300   0.46400   0.01267  Uiso   1.00
C44    C     0.09220   0.73730   0.39890   0.01267  Uiso   1.00
C45    C     0.93430   0.75130   0.42580   0.01267  Uiso   1.00
C46    C     0.90020   0.75680   0.51650   0.01267  Uiso   1.00
C47    C     0.01610   0.75300   0.58180   0.01267  Uiso   1.00
C48    C     0.68210   0.76860   0.43710   0.01267  Uiso   1.00
C49    C     0.55190   0.87770   0.24100   0.01267  Uiso   1.00
C50    C     0.42100   0.94480   0.24220   0.01267  Uiso   1.00
C51    C     0.45750   0.03600   0.23300   0.01267  Uiso   1.00
C52    C     0.34220   0.10110   0.23730   0.01267  Uiso   1.00
C53    C     0.18430   0.07420   0.25130   0.01267  Uiso   1.00
C54    C     0.15020   0.98350   0.25680   0.01267  Uiso   1.00
C55    C     0.26610   0.91820   0.25300   0.01267  Uiso   1.00
C56    C     0.93210   0.06290   0.26860   0.01267  Uiso   1.00
C57    C     0.05190   0.12230   0.75900   0.01267  Uiso   1.00
C58    C     0.92100   0.05520   0.75780   0.01267  Uiso   1.00
C59    C     0.95750   0.96400   0.76700   0.01267  Uiso   1.00
C60    C     0.84220   0.89890   0.76270   0.01267  Uiso   1.00
C61    C     0.68430   0.92580   0.74870   0.01267  Uiso   1.00
C62    C     0.65020   0.01650   0.74320   0.01267  Uiso   1.00
C63    C     0.76610   0.08180   0.74700   0.01267  Uiso   1.00
C64    C     0.43210   0.93710   0.73140   0.01267  Uiso   1.00
N1     N     0.95540   0.26020   0.12252   0.01267  Uiso   1.00
N2     N     0.01260   0.26810   0.97910   0.01267  Uiso   1.00
N3     N     0.45540   0.73980   0.87748   0.01267  Uiso   1.00
N4     N     0.51260   0.73190   0.02090   0.01267  Uiso   1.00
N5     N     0.20540   0.37748   0.76020   0.01267  Uiso   1.00
N6     N     0.26260   0.52090   0.76810   0.01267  Uiso   1.00
N7     N     0.70540   0.62252   0.23980   0.01267  Uiso   1.00
N8     N     0.76260   0.47910   0.23190   0.01267  Uiso   1.00
N9     N     0.29460   0.23980   0.62252   0.01267  Uiso   1.00
N10    N     0.23740   0.23190   0.47910   0.01267  Uiso   1.00
N11    N     0.79460   0.76020   0.37748   0.01267  Uiso   1.00
N12    N     0.73740   0.76810   0.52090   0.01267  Uiso   1.00
N13    N     0.04460   0.12252   0.26020   0.01267  Uiso   1.00
N14    N     0.98740   0.97910   0.26810   0.01267  Uiso   1.00
N15    N     0.54460   0.87748   0.73980   0.01267  Uiso   1.00
N16    N     0.48740   0.02090   0.73190   0.01267  Uiso   1.00
O1     O     0.30480   0.23930   0.90034   0.01267  Uiso   1.00
O2     O     0.48470   0.24495   0.79588   0.01267  Uiso   1.00
O3     O     0.80480   0.76070   0.09966   0.01267  Uiso   1.00
O4     O     0.98470   0.75505   0.20412   0.01267  Uiso   1.00
O5     O     0.55480   0.59966   0.73930   0.01267  Uiso   1.00
O6     O     0.73470   0.70412   0.74495   0.01267  Uiso   1.00
O7     O     0.05480   0.40034   0.26070   0.01267  Uiso   1.00
O8     O     0.23470   0.29588   0.25505   0.01267  Uiso   1.00
O9     O     0.94520   0.26070   0.40034   0.01267  Uiso   1.00
O10    O     0.76530   0.25505   0.29588   0.01267  Uiso   1.00
O11    O     0.44520   0.73930   0.59966   0.01267  Uiso   1.00
O12    O     0.26530   0.74495   0.70412   0.01267  Uiso   1.00
O13    O     0.69520   0.90034   0.23930   0.01267  Uiso   1.00
O14    O     0.51530   0.79588   0.24495   0.01267  Uiso   1.00
O15    O     0.19520   0.09966   0.76070   0.01267  Uiso   1.00
O16    O     0.01530   0.20412   0.75505   0.01267  Uiso   1.00
