data_PARNON_clean
_audit_creation_date              2014-07-02
_audit_creation_method            'Materials Studio'
_symmetry_space_group_name_H-M    'P1'
_symmetry_Int_Tables_number       1
_symmetry_cell_setting            triclinic
loop_
_symmetry_equiv_pos_as_xyz
  x,y,z
_cell_length_a                    15.3862
_cell_length_b                    15.3862
_cell_length_c                    20.8080
_cell_angle_alpha                 85.3516
_cell_angle_beta                  85.3516
_cell_angle_gamma                 62.8625
loop_
_atom_site_label
_atom_site_type_symbol
_atom_site_fract_x
_atom_site_fract_y
_atom_site_fract_z
_atom_site_U_iso_or_equiv
_atom_site_adp_type
_atom_site_occupancy
Cu1    Cu    0.98967   0.99215   0.31369   0.01267  Uiso   1.00
Cu2    Cu    0.04121   0.55865   0.49695   0.01267  Uiso   1.00
Cu3    Cu    0.00785   0.01033   0.18631   0.01267  Uiso   1.00
Cu4    Cu    0.44135   0.95879   0.00305   0.01267  Uiso   1.00
Cu5    Cu    0.01033   0.00785   0.68631   0.01267  Uiso   1.00
Cu6    Cu    0.95879   0.44135   0.50305   0.01267  Uiso   1.00
Cu7    Cu    0.99215   0.98967   0.81369   0.01267  Uiso   1.00
Cu8    Cu    0.55865   0.04121   0.99695   0.01267  Uiso   1.00
H1     H     0.30730   0.97090   0.17890   0.01267  Uiso   1.00
H2     H     0.46550   0.94870   0.19070   0.01267  Uiso   1.00
H3     H     0.27720   0.92060   0.36900   0.01267  Uiso   1.00
H4     H     0.43530   0.89750   0.38250   0.01267  Uiso   1.00
H5     H     0.57350   0.74490   0.34530   0.01267  Uiso   1.00
H6     H     0.84440   0.79580   0.36790   0.01267  Uiso   1.00
H7     H     0.27620   0.13360   0.29540   0.01267  Uiso   1.00
H8     H     0.54290   0.10530   0.14960   0.01267  Uiso   1.00
H9     H     0.14750   0.23890   0.36070   0.01267  Uiso   1.00
H10    H     0.68140   0.11380   0.33670   0.01267  Uiso   1.00
H11    H     0.70810   0.05850   0.14900   0.01267  Uiso   1.00
H12    H     0.71180   0.91360   0.31520   0.01267  Uiso   1.00
H13    H     0.39060   0.32220   0.28120   0.01267  Uiso   1.00
H14    H     0.70760   0.62740   0.39780   0.01267  Uiso   1.00
H15    H     0.26570   0.42450   0.34810   0.01267  Uiso   1.00
H16    H     0.51660   0.15960   0.33810   0.01267  Uiso   1.00
H17    H     0.02910   0.69270   0.32110   0.01267  Uiso   1.00
H18    H     0.05130   0.53450   0.30930   0.01267  Uiso   1.00
H19    H     0.07940   0.72280   0.13100   0.01267  Uiso   1.00
H20    H     0.10250   0.56470   0.11750   0.01267  Uiso   1.00
H21    H     0.25510   0.42650   0.15470   0.01267  Uiso   1.00
H22    H     0.20420   0.15560   0.13210   0.01267  Uiso   1.00
H23    H     0.86640   0.72380   0.20460   0.01267  Uiso   1.00
H24    H     0.89470   0.45710   0.35040   0.01267  Uiso   1.00
H25    H     0.76110   0.85250   0.13930   0.01267  Uiso   1.00
H26    H     0.88620   0.31860   0.16330   0.01267  Uiso   1.00
H27    H     0.94150   0.29190   0.35100   0.01267  Uiso   1.00
H28    H     0.08640   0.28820   0.18480   0.01267  Uiso   1.00
H29    H     0.67780   0.60940   0.21880   0.01267  Uiso   1.00
H30    H     0.37260   0.29240   0.10220   0.01267  Uiso   1.00
H31    H     0.57550   0.73430   0.15190   0.01267  Uiso   1.00
H32    H     0.84040   0.48340   0.16190   0.01267  Uiso   1.00
H33    H     0.69270   0.02910   0.82110   0.01267  Uiso   1.00
H34    H     0.53450   0.05130   0.80930   0.01267  Uiso   1.00
H35    H     0.72280   0.07940   0.63100   0.01267  Uiso   1.00
H36    H     0.56470   0.10250   0.61750   0.01267  Uiso   1.00
H37    H     0.42650   0.25510   0.65470   0.01267  Uiso   1.00
H38    H     0.15560   0.20420   0.63210   0.01267  Uiso   1.00
H39    H     0.72380   0.86640   0.70460   0.01267  Uiso   1.00
H40    H     0.45710   0.89470   0.85040   0.01267  Uiso   1.00
H41    H     0.85250   0.76110   0.63930   0.01267  Uiso   1.00
H42    H     0.31860   0.88620   0.66330   0.01267  Uiso   1.00
H43    H     0.29190   0.94150   0.85100   0.01267  Uiso   1.00
H44    H     0.28820   0.08640   0.68480   0.01267  Uiso   1.00
H45    H     0.60940   0.67780   0.71880   0.01267  Uiso   1.00
H46    H     0.29240   0.37260   0.60220   0.01267  Uiso   1.00
H47    H     0.73430   0.57550   0.65190   0.01267  Uiso   1.00
H48    H     0.48340   0.84040   0.66190   0.01267  Uiso   1.00
H49    H     0.97090   0.30730   0.67890   0.01267  Uiso   1.00
H50    H     0.94870   0.46550   0.69070   0.01267  Uiso   1.00
H51    H     0.92060   0.27720   0.86900   0.01267  Uiso   1.00
H52    H     0.89750   0.43530   0.88250   0.01267  Uiso   1.00
H53    H     0.74490   0.57350   0.84530   0.01267  Uiso   1.00
H54    H     0.79580   0.84440   0.86790   0.01267  Uiso   1.00
H55    H     0.13360   0.27620   0.79540   0.01267  Uiso   1.00
H56    H     0.10530   0.54290   0.64960   0.01267  Uiso   1.00
H57    H     0.23890   0.14750   0.86070   0.01267  Uiso   1.00
H58    H     0.11380   0.68140   0.83670   0.01267  Uiso   1.00
H59    H     0.05850   0.70810   0.64900   0.01267  Uiso   1.00
H60    H     0.91360   0.71180   0.81520   0.01267  Uiso   1.00
H61    H     0.32220   0.39060   0.78120   0.01267  Uiso   1.00
H62    H     0.62740   0.70760   0.89780   0.01267  Uiso   1.00
H63    H     0.42450   0.26570   0.84810   0.01267  Uiso   1.00
H64    H     0.15960   0.51660   0.83810   0.01267  Uiso   1.00
C1     C     0.17440   0.96220   0.26520   0.01267  Uiso   1.00
C2     C     0.27630   0.94670   0.27350   0.01267  Uiso   1.00
C3     C     0.33310   0.95590   0.21960   0.01267  Uiso   1.00
C4     C     0.42790   0.94250   0.22650   0.01267  Uiso   1.00
C5     C     0.31510   0.92570   0.33320   0.01267  Uiso   1.00
C6     C     0.40980   0.91180   0.34170   0.01267  Uiso   1.00
C7     C     0.46530   0.92010   0.28710   0.01267  Uiso   1.00
C8     C     0.62940   0.84100   0.32590   0.01267  Uiso   1.00
C9     C     0.62760   0.75540   0.35010   0.01267  Uiso   1.00
C10    C     0.81910   0.04930   0.24340   0.01267  Uiso   1.00
C11    C     0.79010   0.78570   0.36380   0.01267  Uiso   1.00
C12    C     0.87340   0.62520   0.42580   0.01267  Uiso   1.00
C13    C     0.11700   0.40520   0.41030   0.01267  Uiso   1.00
C14    C     0.71200   0.08100   0.24280   0.01267  Uiso   1.00
C15    C     0.27380   0.19220   0.30620   0.01267  Uiso   1.00
C16    C     0.57130   0.10610   0.18720   0.01267  Uiso   1.00
C17    C     0.34640   0.21740   0.28320   0.01267  Uiso   1.00
C18    C     0.19720   0.25500   0.34570   0.01267  Uiso   1.00
C19    C     0.19450   0.34130   0.36280   0.01267  Uiso   1.00
C20    C     0.78940   0.69940   0.38960   0.01267  Uiso   1.00
C21    C     0.65330   0.11170   0.29930   0.01267  Uiso   1.00
C22    C     0.66970   0.07870   0.18690   0.01267  Uiso   1.00
C23    C     0.71080   0.85620   0.33220   0.01267  Uiso   1.00
C24    C     0.34250   0.30470   0.29810   0.01267  Uiso   1.00
C25    C     0.70810   0.68530   0.38160   0.01267  Uiso   1.00
C26    C     0.26770   0.36590   0.33780   0.01267  Uiso   1.00
C27    C     0.51430   0.13510   0.24440   0.01267  Uiso   1.00
C28    C     0.55520   0.13880   0.30030   0.01267  Uiso   1.00
C29    C     0.03780   0.82560   0.23480   0.01267  Uiso   1.00
C30    C     0.05330   0.72370   0.22650   0.01267  Uiso   1.00
C31    C     0.04410   0.66690   0.28040   0.01267  Uiso   1.00
C32    C     0.05750   0.57210   0.27350   0.01267  Uiso   1.00
C33    C     0.07430   0.68490   0.16680   0.01267  Uiso   1.00
C34    C     0.08820   0.59020   0.15830   0.01267  Uiso   1.00
C35    C     0.07990   0.53470   0.21290   0.01267  Uiso   1.00
C36    C     0.15900   0.37060   0.17410   0.01267  Uiso   1.00
C37    C     0.24460   0.37240   0.14990   0.01267  Uiso   1.00
C38    C     0.95070   0.18090   0.25660   0.01267  Uiso   1.00
C39    C     0.21430   0.20990   0.13620   0.01267  Uiso   1.00
C40    C     0.37480   0.12660   0.07420   0.01267  Uiso   1.00
C41    C     0.59480   0.88300   0.08970   0.01267  Uiso   1.00
C42    C     0.91900   0.28800   0.25720   0.01267  Uiso   1.00
C43    C     0.80780   0.72620   0.19380   0.01267  Uiso   1.00
C44    C     0.89390   0.42870   0.31280   0.01267  Uiso   1.00
C45    C     0.78260   0.65360   0.21680   0.01267  Uiso   1.00
C46    C     0.74500   0.80280   0.15430   0.01267  Uiso   1.00
C47    C     0.65870   0.80550   0.13720   0.01267  Uiso   1.00
C48    C     0.30060   0.21060   0.11040   0.01267  Uiso   1.00
C49    C     0.88830   0.34670   0.20070   0.01267  Uiso   1.00
C50    C     0.92130   0.33030   0.31310   0.01267  Uiso   1.00
C51    C     0.14380   0.28920   0.16780   0.01267  Uiso   1.00
C52    C     0.69530   0.65750   0.20190   0.01267  Uiso   1.00
C53    C     0.31470   0.29190   0.11840   0.01267  Uiso   1.00
C54    C     0.63410   0.73230   0.16220   0.01267  Uiso   1.00
C55    C     0.86490   0.48570   0.25560   0.01267  Uiso   1.00
C56    C     0.86120   0.44480   0.19970   0.01267  Uiso   1.00
C57    C     0.82560   0.03780   0.73480   0.01267  Uiso   1.00
C58    C     0.72370   0.05330   0.72650   0.01267  Uiso   1.00
C59    C     0.66690   0.04410   0.78040   0.01267  Uiso   1.00
C60    C     0.57210   0.05750   0.77350   0.01267  Uiso   1.00
C61    C     0.68490   0.07430   0.66680   0.01267  Uiso   1.00
C62    C     0.59020   0.08820   0.65830   0.01267  Uiso   1.00
C63    C     0.53470   0.07990   0.71290   0.01267  Uiso   1.00
C64    C     0.37060   0.15900   0.67410   0.01267  Uiso   1.00
C65    C     0.37240   0.24460   0.64990   0.01267  Uiso   1.00
C66    C     0.18090   0.95070   0.75660   0.01267  Uiso   1.00
C67    C     0.20990   0.21430   0.63620   0.01267  Uiso   1.00
C68    C     0.12660   0.37480   0.57420   0.01267  Uiso   1.00
C69    C     0.88300   0.59480   0.58970   0.01267  Uiso   1.00
C70    C     0.28800   0.91900   0.75720   0.01267  Uiso   1.00
C71    C     0.72620   0.80780   0.69380   0.01267  Uiso   1.00
C72    C     0.42870   0.89390   0.81280   0.01267  Uiso   1.00
C73    C     0.65360   0.78260   0.71680   0.01267  Uiso   1.00
C74    C     0.80280   0.74500   0.65430   0.01267  Uiso   1.00
C75    C     0.80550   0.65870   0.63720   0.01267  Uiso   1.00
C76    C     0.21060   0.30060   0.61040   0.01267  Uiso   1.00
C77    C     0.34670   0.88830   0.70070   0.01267  Uiso   1.00
C78    C     0.33030   0.92130   0.81310   0.01267  Uiso   1.00
C79    C     0.28920   0.14380   0.66780   0.01267  Uiso   1.00
C80    C     0.65750   0.69530   0.70190   0.01267  Uiso   1.00
C81    C     0.29190   0.31470   0.61840   0.01267  Uiso   1.00
C82    C     0.73230   0.63410   0.66220   0.01267  Uiso   1.00
C83    C     0.48570   0.86490   0.75560   0.01267  Uiso   1.00
C84    C     0.44480   0.86120   0.69970   0.01267  Uiso   1.00
C85    C     0.96220   0.17440   0.76520   0.01267  Uiso   1.00
C86    C     0.94670   0.27630   0.77350   0.01267  Uiso   1.00
C87    C     0.95590   0.33310   0.71960   0.01267  Uiso   1.00
C88    C     0.94250   0.42790   0.72650   0.01267  Uiso   1.00
C89    C     0.92570   0.31510   0.83320   0.01267  Uiso   1.00
C90    C     0.91180   0.40980   0.84170   0.01267  Uiso   1.00
C91    C     0.92010   0.46530   0.78710   0.01267  Uiso   1.00
C92    C     0.84100   0.62940   0.82590   0.01267  Uiso   1.00
C93    C     0.75540   0.62760   0.85010   0.01267  Uiso   1.00
C94    C     0.04930   0.81910   0.74340   0.01267  Uiso   1.00
C95    C     0.78570   0.79010   0.86380   0.01267  Uiso   1.00
C96    C     0.62520   0.87340   0.92580   0.01267  Uiso   1.00
C97    C     0.40520   0.11700   0.91030   0.01267  Uiso   1.00
C98    C     0.08100   0.71200   0.74280   0.01267  Uiso   1.00
C99    C     0.19220   0.27380   0.80620   0.01267  Uiso   1.00
C100   C     0.10610   0.57130   0.68720   0.01267  Uiso   1.00
C101   C     0.21740   0.34640   0.78320   0.01267  Uiso   1.00
C102   C     0.25500   0.19720   0.84570   0.01267  Uiso   1.00
C103   C     0.34130   0.19450   0.86280   0.01267  Uiso   1.00
C104   C     0.69940   0.78940   0.88960   0.01267  Uiso   1.00
C105   C     0.11170   0.65330   0.79930   0.01267  Uiso   1.00
C106   C     0.07870   0.66970   0.68690   0.01267  Uiso   1.00
C107   C     0.85620   0.71080   0.83220   0.01267  Uiso   1.00
C108   C     0.30470   0.34250   0.79810   0.01267  Uiso   1.00
C109   C     0.68530   0.70810   0.88160   0.01267  Uiso   1.00
C110   C     0.36590   0.26770   0.83780   0.01267  Uiso   1.00
C111   C     0.13510   0.51430   0.74440   0.01267  Uiso   1.00
C112   C     0.13880   0.55520   0.80030   0.01267  Uiso   1.00
O1     O     0.12773   0.95273   0.31613   0.01267  Uiso   1.00
O2     O     0.14200   0.98360   0.20944   0.01267  Uiso   1.00
O3     O     0.55641   0.91561   0.29080   0.01267  Uiso   1.00
O4     O     0.12222   0.48022   0.42540   0.01267  Uiso   1.00
O5     O     0.86983   0.54623   0.44453   0.01267  Uiso   1.00
O6     O     0.85292   0.03892   0.29871   0.01267  Uiso   1.00
O7     O     0.86883   0.03403   0.19063   0.01267  Uiso   1.00
O8     O     0.94143   0.64583   0.43667   0.01267  Uiso   1.00
O9     O     0.05364   0.37784   0.43186   0.01267  Uiso   1.00
O10    O     0.41799   0.15319   0.24190   0.01267  Uiso   1.00
O11    O     0.04727   0.87227   0.18387   0.01267  Uiso   1.00
O12    O     0.01640   0.85800   0.29056   0.01267  Uiso   1.00
O13    O     0.08439   0.44359   0.20920   0.01267  Uiso   1.00
O14    O     0.51978   0.87778   0.07460   0.01267  Uiso   1.00
O15    O     0.45377   0.13017   0.05547   0.01267  Uiso   1.00
O16    O     0.96108   0.14708   0.20129   0.01267  Uiso   1.00
O17    O     0.96597   0.13117   0.30937   0.01267  Uiso   1.00
O18    O     0.35417   0.05857   0.06333   0.01267  Uiso   1.00
O19    O     0.62216   0.94636   0.06814   0.01267  Uiso   1.00
O20    O     0.84681   0.58201   0.25810   0.01267  Uiso   1.00
O21    O     0.87227   0.04727   0.68387   0.01267  Uiso   1.00
O22    O     0.85800   0.01640   0.79056   0.01267  Uiso   1.00
O23    O     0.44359   0.08439   0.70920   0.01267  Uiso   1.00
O24    O     0.87778   0.51978   0.57460   0.01267  Uiso   1.00
O25    O     0.13017   0.45377   0.55547   0.01267  Uiso   1.00
O26    O     0.14708   0.96108   0.70129   0.01267  Uiso   1.00
O27    O     0.13117   0.96597   0.80937   0.01267  Uiso   1.00
O28    O     0.05857   0.35417   0.56333   0.01267  Uiso   1.00
O29    O     0.94636   0.62216   0.56814   0.01267  Uiso   1.00
O30    O     0.58201   0.84681   0.75810   0.01267  Uiso   1.00
O31    O     0.95273   0.12773   0.81613   0.01267  Uiso   1.00
O32    O     0.98360   0.14200   0.70944   0.01267  Uiso   1.00
O33    O     0.91561   0.55641   0.79080   0.01267  Uiso   1.00
O34    O     0.48022   0.12222   0.92540   0.01267  Uiso   1.00
O35    O     0.54623   0.86983   0.94453   0.01267  Uiso   1.00
O36    O     0.03892   0.85292   0.79871   0.01267  Uiso   1.00
O37    O     0.03403   0.86883   0.69063   0.01267  Uiso   1.00
O38    O     0.64583   0.94143   0.93667   0.01267  Uiso   1.00
O39    O     0.37784   0.05364   0.93186   0.01267  Uiso   1.00
O40    O     0.15319   0.41799   0.74190   0.01267  Uiso   1.00
