data_PARNIH_clean
_audit_creation_date              2014-07-02
_audit_creation_method            'Materials Studio'
_symmetry_space_group_name_H-M    'P1'
_symmetry_Int_Tables_number       1
_symmetry_cell_setting            triclinic
loop_
_symmetry_equiv_pos_as_xyz
  x,y,z
_cell_length_a                    16.1544
_cell_length_b                    16.1544
_cell_length_c                    21.8200
_cell_angle_alpha                 84.6006
_cell_angle_beta                  84.6006
_cell_angle_gamma                 60.4822
loop_
_atom_site_label
_atom_site_type_symbol
_atom_site_fract_x
_atom_site_fract_y
_atom_site_fract_z
_atom_site_U_iso_or_equiv
_atom_site_adp_type
_atom_site_occupancy
Cu1    Cu    0.49445   0.98977   0.81322   0.01267  Uiso   1.00
Cu2    Cu    0.46042   0.44122   0.50512   0.01267  Uiso   1.00
Cu3    Cu    0.51023   0.00555   0.68678   0.01267  Uiso   1.00
Cu4    Cu    0.05878   0.03958   0.99488   0.01267  Uiso   1.00
Cu5    Cu    0.50555   0.01023   0.18678   0.01267  Uiso   1.00
Cu6    Cu    0.53958   0.55878   0.49488   0.01267  Uiso   1.00
Cu7    Cu    0.48977   0.99445   0.31322   0.01267  Uiso   1.00
Cu8    Cu    0.94122   0.96042   0.00512   0.01267  Uiso   1.00
H1     H     0.73410   0.14810   0.86650   0.01267  Uiso   1.00
H2     H     0.65950   0.21410   0.63280   0.01267  Uiso   1.00
H3     H     0.80480   0.39660   0.78880   0.01267  Uiso   1.00
H4     H     0.19520   0.03640   0.82150   0.01267  Uiso   1.00
H5     H     0.03870   0.06310   0.81400   0.01267  Uiso   1.00
H6     H     0.54990   0.70830   0.65460   0.01267  Uiso   1.00
H7     H     0.59570   0.68670   0.83940   0.01267  Uiso   1.00
H8     H     0.21910   0.08490   0.63380   0.01267  Uiso   1.00
H9     H     0.91640   0.26320   0.85050   0.01267  Uiso   1.00
H10    H     0.79670   0.09350   0.68690   0.01267  Uiso   1.00
H11    H     0.06160   0.11780   0.62520   0.01267  Uiso   1.00
H12    H     0.60270   0.54130   0.65860   0.01267  Uiso   1.00
H13    H     0.78830   0.38310   0.60540   0.01267  Uiso   1.00
H14    H     0.91740   0.26920   0.66640   0.01267  Uiso   1.00
H15    H     0.65160   0.52020   0.84190   0.01267  Uiso   1.00
H16    H     0.35190   0.76590   0.63350   0.01267  Uiso   1.00
H17    H     0.28590   0.84050   0.86720   0.01267  Uiso   1.00
H18    H     0.10340   0.69520   0.71120   0.01267  Uiso   1.00
H19    H     0.46360   0.30480   0.67850   0.01267  Uiso   1.00
H20    H     0.43690   0.46130   0.68600   0.01267  Uiso   1.00
H21    H     0.79170   0.95010   0.84540   0.01267  Uiso   1.00
H22    H     0.81330   0.90430   0.66060   0.01267  Uiso   1.00
H23    H     0.41510   0.28090   0.86620   0.01267  Uiso   1.00
H24    H     0.23680   0.58360   0.64950   0.01267  Uiso   1.00
H25    H     0.40650   0.70330   0.81310   0.01267  Uiso   1.00
H26    H     0.38220   0.43840   0.87480   0.01267  Uiso   1.00
H27    H     0.95870   0.89730   0.84140   0.01267  Uiso   1.00
H28    H     0.11690   0.71170   0.89460   0.01267  Uiso   1.00
H29    H     0.23080   0.58260   0.83360   0.01267  Uiso   1.00
H30    H     0.97980   0.84840   0.65810   0.01267  Uiso   1.00
H31    H     0.26590   0.85190   0.13350   0.01267  Uiso   1.00
H32    H     0.34050   0.78590   0.36720   0.01267  Uiso   1.00
H33    H     0.19520   0.60340   0.21120   0.01267  Uiso   1.00
H34    H     0.80480   0.96360   0.17850   0.01267  Uiso   1.00
H35    H     0.96130   0.93690   0.18600   0.01267  Uiso   1.00
H36    H     0.45010   0.29170   0.34540   0.01267  Uiso   1.00
H37    H     0.40430   0.31330   0.16060   0.01267  Uiso   1.00
H38    H     0.78090   0.91510   0.36620   0.01267  Uiso   1.00
H39    H     0.08360   0.73680   0.14950   0.01267  Uiso   1.00
H40    H     0.20330   0.90650   0.31310   0.01267  Uiso   1.00
H41    H     0.93840   0.88220   0.37480   0.01267  Uiso   1.00
H42    H     0.39730   0.45870   0.34140   0.01267  Uiso   1.00
H43    H     0.21170   0.61690   0.39460   0.01267  Uiso   1.00
H44    H     0.08260   0.73080   0.33360   0.01267  Uiso   1.00
H45    H     0.34840   0.47980   0.15810   0.01267  Uiso   1.00
H46    H     0.64810   0.23410   0.36650   0.01267  Uiso   1.00
H47    H     0.71410   0.15950   0.13280   0.01267  Uiso   1.00
H48    H     0.89660   0.30480   0.28880   0.01267  Uiso   1.00
H49    H     0.53640   0.69520   0.32150   0.01267  Uiso   1.00
H50    H     0.56310   0.53870   0.31400   0.01267  Uiso   1.00
H51    H     0.20830   0.04990   0.15460   0.01267  Uiso   1.00
H52    H     0.18670   0.09570   0.33940   0.01267  Uiso   1.00
H53    H     0.58490   0.71910   0.13380   0.01267  Uiso   1.00
H54    H     0.76320   0.41640   0.35050   0.01267  Uiso   1.00
H55    H     0.59350   0.29670   0.18690   0.01267  Uiso   1.00
H56    H     0.61780   0.56160   0.12520   0.01267  Uiso   1.00
H57    H     0.04130   0.10270   0.15860   0.01267  Uiso   1.00
H58    H     0.88310   0.28830   0.10540   0.01267  Uiso   1.00
H59    H     0.76920   0.41740   0.16640   0.01267  Uiso   1.00
H60    H     0.02020   0.15160   0.34190   0.01267  Uiso   1.00
C1     C     0.57560   0.71380   0.74720   0.01267  Uiso   1.00
C2     C     0.54900   0.81880   0.74650   0.01267  Uiso   1.00
C3     C     0.22290   0.05970   0.72750   0.01267  Uiso   1.00
C4     C     0.74700   0.19880   0.85110   0.01267  Uiso   1.00
C5     C     0.62860   0.38260   0.57370   0.01267  Uiso   1.00
C6     C     0.68240   0.27660   0.81120   0.01267  Uiso   1.00
C7     C     0.71230   0.22410   0.63760   0.01267  Uiso   1.00
C8     C     0.62320   0.51820   0.74860   0.01267  Uiso   1.00
C9     C     0.83080   0.19580   0.86840   0.01267  Uiso   1.00
C10    C     0.79220   0.34560   0.80420   0.01267  Uiso   1.00
C11    C     0.70640   0.34900   0.78960   0.01267  Uiso   1.00
C12    C     0.70980   0.31180   0.61260   0.01267  Uiso   1.00
C13    C     0.16770   0.05270   0.78190   0.01267  Uiso   1.00
C14    C     0.07470   0.06870   0.77800   0.01267  Uiso   1.00
C15    C     0.57150   0.66990   0.69240   0.01267  Uiso   1.00
C16    C     0.03440   0.09400   0.71720   0.01267  Uiso   1.00
C17    C     0.59930   0.65730   0.80230   0.01267  Uiso   1.00
C18    C     0.32760   0.04060   0.73110   0.01267  Uiso   1.00
C19    C     0.18260   0.08160   0.67020   0.01267  Uiso   1.00
C20    C     0.85670   0.26910   0.84210   0.01267  Uiso   1.00
C21    C     0.79380   0.15280   0.67090   0.01267  Uiso   1.00
C22    C     0.87380   0.16920   0.67900   0.01267  Uiso   1.00
C23    C     0.89820   0.11720   0.91490   0.01267  Uiso   1.00
C24    C     0.08890   0.10010   0.66490   0.01267  Uiso   1.00
C25    C     0.60020   0.57120   0.69520   0.01267  Uiso   1.00
C26    C     0.78880   0.32560   0.62280   0.01267  Uiso   1.00
C27    C     0.86810   0.25610   0.65770   0.01267  Uiso   1.00
C28    C     0.62840   0.55980   0.80470   0.01267  Uiso   1.00
C29    C     0.78620   0.92440   0.75280   0.01267  Uiso   1.00
C30    C     0.68120   0.95100   0.75350   0.01267  Uiso   1.00
C31    C     0.44030   0.27710   0.77250   0.01267  Uiso   1.00
C32    C     0.30120   0.75300   0.64890   0.01267  Uiso   1.00
C33    C     0.11740   0.87140   0.92630   0.01267  Uiso   1.00
C34    C     0.22340   0.81760   0.68880   0.01267  Uiso   1.00
C35    C     0.27590   0.78770   0.86240   0.01267  Uiso   1.00
C36    C     0.98180   0.87680   0.75140   0.01267  Uiso   1.00
C37    C     0.30420   0.66920   0.63160   0.01267  Uiso   1.00
C38    C     0.15440   0.70780   0.69580   0.01267  Uiso   1.00
C39    C     0.15100   0.79360   0.71040   0.01267  Uiso   1.00
C40    C     0.18820   0.79020   0.88740   0.01267  Uiso   1.00
C41    C     0.44730   0.33230   0.71810   0.01267  Uiso   1.00
C42    C     0.43130   0.42530   0.72200   0.01267  Uiso   1.00
C43    C     0.83010   0.92850   0.80760   0.01267  Uiso   1.00
C44    C     0.40600   0.46560   0.78280   0.01267  Uiso   1.00
C45    C     0.84270   0.90070   0.69770   0.01267  Uiso   1.00
C46    C     0.45940   0.17240   0.76890   0.01267  Uiso   1.00
C47    C     0.41840   0.31740   0.82980   0.01267  Uiso   1.00
C48    C     0.23090   0.64330   0.65790   0.01267  Uiso   1.00
C49    C     0.34720   0.70620   0.82910   0.01267  Uiso   1.00
C50    C     0.33080   0.62620   0.82100   0.01267  Uiso   1.00
C51    C     0.38280   0.60180   0.58510   0.01267  Uiso   1.00
C52    C     0.39990   0.41110   0.83510   0.01267  Uiso   1.00
C53    C     0.92880   0.89980   0.80480   0.01267  Uiso   1.00
C54    C     0.17440   0.71120   0.87720   0.01267  Uiso   1.00
C55    C     0.24390   0.63190   0.84230   0.01267  Uiso   1.00
C56    C     0.94020   0.87160   0.69530   0.01267  Uiso   1.00
C57    C     0.42440   0.28620   0.25280   0.01267  Uiso   1.00
C58    C     0.45100   0.18120   0.25350   0.01267  Uiso   1.00
C59    C     0.77710   0.94030   0.27250   0.01267  Uiso   1.00
C60    C     0.25300   0.80120   0.14890   0.01267  Uiso   1.00
C61    C     0.37140   0.61740   0.42630   0.01267  Uiso   1.00
C62    C     0.31760   0.72340   0.18880   0.01267  Uiso   1.00
C63    C     0.28770   0.77590   0.36240   0.01267  Uiso   1.00
C64    C     0.37680   0.48180   0.25140   0.01267  Uiso   1.00
C65    C     0.16920   0.80420   0.13160   0.01267  Uiso   1.00
C66    C     0.20780   0.65440   0.19580   0.01267  Uiso   1.00
C67    C     0.29360   0.65100   0.21040   0.01267  Uiso   1.00
C68    C     0.29020   0.68820   0.38740   0.01267  Uiso   1.00
C69    C     0.83230   0.94730   0.21810   0.01267  Uiso   1.00
C70    C     0.92530   0.93130   0.22200   0.01267  Uiso   1.00
C71    C     0.42850   0.33010   0.30760   0.01267  Uiso   1.00
C72    C     0.96560   0.90600   0.28280   0.01267  Uiso   1.00
C73    C     0.40070   0.34270   0.19770   0.01267  Uiso   1.00
C74    C     0.67240   0.95940   0.26890   0.01267  Uiso   1.00
C75    C     0.81740   0.91840   0.32980   0.01267  Uiso   1.00
C76    C     0.14330   0.73090   0.15790   0.01267  Uiso   1.00
C77    C     0.20620   0.84720   0.32910   0.01267  Uiso   1.00
C78    C     0.12620   0.83080   0.32100   0.01267  Uiso   1.00
C79    C     0.10180   0.88280   0.08510   0.01267  Uiso   1.00
C80    C     0.91110   0.89990   0.33510   0.01267  Uiso   1.00
C81    C     0.39980   0.42880   0.30480   0.01267  Uiso   1.00
C82    C     0.21120   0.67440   0.37720   0.01267  Uiso   1.00
C83    C     0.13190   0.74390   0.34230   0.01267  Uiso   1.00
C84    C     0.37160   0.44020   0.19530   0.01267  Uiso   1.00
C85    C     0.21380   0.07560   0.24720   0.01267  Uiso   1.00
C86    C     0.31880   0.04900   0.24650   0.01267  Uiso   1.00
C87    C     0.55970   0.72290   0.22750   0.01267  Uiso   1.00
C88    C     0.69880   0.24700   0.35110   0.01267  Uiso   1.00
C89    C     0.88260   0.12860   0.07370   0.01267  Uiso   1.00
C90    C     0.77660   0.18240   0.31120   0.01267  Uiso   1.00
C91    C     0.72410   0.21230   0.13760   0.01267  Uiso   1.00
C92    C     0.01820   0.12320   0.24860   0.01267  Uiso   1.00
C93    C     0.69580   0.33080   0.36840   0.01267  Uiso   1.00
C94    C     0.84560   0.29220   0.30420   0.01267  Uiso   1.00
C95    C     0.84900   0.20640   0.28960   0.01267  Uiso   1.00
C96    C     0.81180   0.20980   0.11260   0.01267  Uiso   1.00
C97    C     0.55270   0.66770   0.28190   0.01267  Uiso   1.00
C98    C     0.56870   0.57470   0.27800   0.01267  Uiso   1.00
C99    C     0.16990   0.07150   0.19240   0.01267  Uiso   1.00
C100   C     0.59400   0.53440   0.21720   0.01267  Uiso   1.00
C101   C     0.15730   0.09930   0.30230   0.01267  Uiso   1.00
C102   C     0.54060   0.82760   0.23110   0.01267  Uiso   1.00
C103   C     0.58160   0.68260   0.17020   0.01267  Uiso   1.00
C104   C     0.76910   0.35670   0.34210   0.01267  Uiso   1.00
C105   C     0.65280   0.29380   0.17090   0.01267  Uiso   1.00
C106   C     0.66920   0.37380   0.17900   0.01267  Uiso   1.00
C107   C     0.61720   0.39820   0.41490   0.01267  Uiso   1.00
C108   C     0.60010   0.58890   0.16490   0.01267  Uiso   1.00
C109   C     0.07120   0.10020   0.19520   0.01267  Uiso   1.00
C110   C     0.82560   0.28880   0.12280   0.01267  Uiso   1.00
C111   C     0.75610   0.36810   0.15770   0.01267  Uiso   1.00
C112   C     0.05980   0.12840   0.30470   0.01267  Uiso   1.00
O1     O     0.56300   0.36100   0.56480   0.01267  Uiso   1.00
O2     O     0.63020   0.46140   0.55560   0.01267  Uiso   1.00
O3     O     0.54080   0.85200   0.80010   0.01267  Uiso   1.00
O4     O     0.53390   0.86690   0.69310   0.01267  Uiso   1.00
O5     O     0.64130   0.42330   0.74940   0.01267  Uiso   1.00
O6     O     0.87210   0.05410   0.93530   0.01267  Uiso   1.00
O7     O     0.97180   0.12140   0.92710   0.01267  Uiso   1.00
O8     O     0.36120   0.01660   0.78850   0.01267  Uiso   1.00
O9     O     0.37250   0.04890   0.68550   0.01267  Uiso   1.00
O10    O     0.94200   0.09900   0.71550   0.01267  Uiso   1.00
O11    O     0.13900   0.93700   0.93520   0.01267  Uiso   1.00
O12    O     0.03860   0.86980   0.94440   0.01267  Uiso   1.00
O13    O     0.64800   0.95920   0.69990   0.01267  Uiso   1.00
O14    O     0.63310   0.96610   0.80690   0.01267  Uiso   1.00
O15    O     0.07670   0.85870   0.75060   0.01267  Uiso   1.00
O16    O     0.44590   0.62790   0.56470   0.01267  Uiso   1.00
O17    O     0.37860   0.52820   0.57290   0.01267  Uiso   1.00
O18    O     0.48340   0.13880   0.71150   0.01267  Uiso   1.00
O19    O     0.45110   0.12750   0.81450   0.01267  Uiso   1.00
O20    O     0.40100   0.55800   0.78450   0.01267  Uiso   1.00
O21    O     0.43700   0.63900   0.43520   0.01267  Uiso   1.00
O22    O     0.36980   0.53860   0.44440   0.01267  Uiso   1.00
O23    O     0.45920   0.14800   0.19990   0.01267  Uiso   1.00
O24    O     0.46610   0.13310   0.30690   0.01267  Uiso   1.00
O25    O     0.35870   0.57670   0.25060   0.01267  Uiso   1.00
O26    O     0.12790   0.94590   0.06470   0.01267  Uiso   1.00
O27    O     0.02820   0.87860   0.07290   0.01267  Uiso   1.00
O28    O     0.63880   0.98340   0.21150   0.01267  Uiso   1.00
O29    O     0.62750   0.95110   0.31450   0.01267  Uiso   1.00
O30    O     0.05800   0.90100   0.28450   0.01267  Uiso   1.00
O31    O     0.86100   0.06300   0.06480   0.01267  Uiso   1.00
O32    O     0.96140   0.13020   0.05560   0.01267  Uiso   1.00
O33    O     0.35200   0.04080   0.30010   0.01267  Uiso   1.00
O34    O     0.36690   0.03390   0.19310   0.01267  Uiso   1.00
O35    O     0.92330   0.14130   0.24940   0.01267  Uiso   1.00
O36    O     0.55410   0.37210   0.43530   0.01267  Uiso   1.00
O37    O     0.62140   0.47180   0.42710   0.01267  Uiso   1.00
O38    O     0.51660   0.86120   0.28850   0.01267  Uiso   1.00
O39    O     0.54890   0.87250   0.18550   0.01267  Uiso   1.00
O40    O     0.59900   0.44200   0.21550   0.01267  Uiso   1.00
