data_image0
_cell_length_a       24.598
_cell_length_b       7.5305
_cell_length_c       6.5472
_cell_angle_alpha    90
_cell_angle_beta     106.863
_cell_angle_gamma    90

_symmetry_space_group_name_H-M    "P 1"
_symmetry_int_tables_number       1

loop_
  _symmetry_equiv_pos_as_xyz
  'x, y, z'

loop_
  _atom_site_label
  _atom_site_occupancy
  _atom_site_fract_x
  _atom_site_fract_y
  _atom_site_fract_z
  _atom_site_thermal_displace_type
  _atom_site_B_iso_or_equiv
  _atom_site_type_symbol
  O1       1.0000 0.95350  0.17500  0.84600  Biso   1.000  O
  O2       1.0000 0.93220  0.13820  0.51600  Biso   1.000  O
  C1       1.0000 0.85580  0.23100  0.64300  Biso   1.000  C
  C2       1.0000 0.81650  0.18800  0.43200  Biso   1.000  C
  C3       1.0000 0.71970  0.18200  0.21000  Biso   1.000  C
  C4       1.0000 0.91300  0.17600  0.67200  Biso   1.000  C
  C5       1.0000 0.75800  0.20300  0.42000  Biso   1.000  C
  C6       1.0000 0.83900  0.29400  0.80700  Biso   1.000  C
  O3       1.0000 0.45350  0.67500  0.84600  Biso   1.000  O
  O4       1.0000 0.43220  0.63820  0.51600  Biso   1.000  O
  C7       1.0000 0.35580  0.73100  0.64300  Biso   1.000  C
  C8       1.0000 0.31650  0.68800  0.43200  Biso   1.000  C
  C9       1.0000 0.21970  0.68200  0.21000  Biso   1.000  C
  C10      1.0000 0.41300  0.67600  0.67200  Biso   1.000  C
  C11      1.0000 0.25800  0.70300  0.42000  Biso   1.000  C
  C12      1.0000 0.33900  0.79400  0.80700  Biso   1.000  C
  O5       1.0000 0.04650  0.17500  0.65400  Biso   1.000  O
  O6       1.0000 0.06780  0.13820  0.98400  Biso   1.000  O
  C13      1.0000 0.14420  0.23100  0.85700  Biso   1.000  C
  C14      1.0000 0.18350  0.18800  0.06800  Biso   1.000  C
  C15      1.0000 0.28030  0.18200  0.29000  Biso   1.000  C
  C16      1.0000 0.08700  0.17600  0.82800  Biso   1.000  C
  C17      1.0000 0.24200  0.20300  0.08000  Biso   1.000  C
  C18      1.0000 0.16100  0.29400  0.69300  Biso   1.000  C
  O7       1.0000 0.54650  0.67500  0.65400  Biso   1.000  O
  O8       1.0000 0.56780  0.63820  0.98400  Biso   1.000  O
  C19      1.0000 0.64420  0.73100  0.85700  Biso   1.000  C
  C20      1.0000 0.68350  0.68800  0.06800  Biso   1.000  C
  C21      1.0000 0.78030  0.68200  0.29000  Biso   1.000  C
  C22      1.0000 0.58700  0.67600  0.82800  Biso   1.000  C
  C23      1.0000 0.74200  0.70300  0.08000  Biso   1.000  C
  C24      1.0000 0.66100  0.79400  0.69300  Biso   1.000  C
  O9       1.0000 0.04650  0.82500  0.15400  Biso   1.000  O
  O10      1.0000 0.06780  0.86180  0.48400  Biso   1.000  O
  C25      1.0000 0.14420  0.76900  0.35700  Biso   1.000  C
  C26      1.0000 0.18350  0.81200  0.56800  Biso   1.000  C
  C27      1.0000 0.28030  0.81800  0.79000  Biso   1.000  C
  C28      1.0000 0.08700  0.82400  0.32800  Biso   1.000  C
  C29      1.0000 0.24200  0.79700  0.58000  Biso   1.000  C
  C30      1.0000 0.16100  0.70600  0.19300  Biso   1.000  C
  O11      1.0000 0.54650  0.32500  0.15400  Biso   1.000  O
  O12      1.0000 0.56780  0.36180  0.48400  Biso   1.000  O
  C31      1.0000 0.64420  0.26900  0.35700  Biso   1.000  C
  C32      1.0000 0.68350  0.31200  0.56800  Biso   1.000  C
  C33      1.0000 0.78030  0.31800  0.79000  Biso   1.000  C
  C34      1.0000 0.58700  0.32400  0.32800  Biso   1.000  C
  C35      1.0000 0.74200  0.29700  0.58000  Biso   1.000  C
  C36      1.0000 0.66100  0.20600  0.19300  Biso   1.000  C
  O13      1.0000 0.95350  0.82500  0.34600  Biso   1.000  O
  O14      1.0000 0.93220  0.86180  0.01600  Biso   1.000  O
  C37      1.0000 0.85580  0.76900  0.14300  Biso   1.000  C
  C38      1.0000 0.81650  0.81200  0.93200  Biso   1.000  C
  C39      1.0000 0.71970  0.81800  0.71000  Biso   1.000  C
  C40      1.0000 0.91300  0.82400  0.17200  Biso   1.000  C
  C41      1.0000 0.75800  0.79700  0.92000  Biso   1.000  C
  C42      1.0000 0.83900  0.70600  0.30700  Biso   1.000  C
  O15      1.0000 0.45350  0.32500  0.34600  Biso   1.000  O
  O16      1.0000 0.43220  0.36180  0.01600  Biso   1.000  O
  C43      1.0000 0.35580  0.26900  0.14300  Biso   1.000  C
  C44      1.0000 0.31650  0.31200  0.93200  Biso   1.000  C
  C45      1.0000 0.21970  0.31800  0.71000  Biso   1.000  C
  C46      1.0000 0.41300  0.32400  0.17200  Biso   1.000  C
  C47      1.0000 0.25800  0.29700  0.92000  Biso   1.000  C
  C48      1.0000 0.33900  0.20600  0.30700  Biso   1.000  C
  Al1      1.0000 0.00000  0.00000  0.00000  Biso   1.000  Al
  Al2      1.0000 0.50000  0.50000  0.00000  Biso   1.000  Al
  Al3      1.0000 0.00000  0.00000  0.50000  Biso   1.000  Al
  Al4      1.0000 0.50000  0.50000  0.50000  Biso   1.000  Al
  O17      1.0000 0.00000  0.90100  0.75000  Biso   1.000  O
  O18      1.0000 0.50000  0.40100  0.75000  Biso   1.000  O
  O19      1.0000 0.00000  0.09900  0.25000  Biso   1.000  O
  O20      1.0000 0.50000  0.59900  0.25000  Biso   1.000  O
