data_PARVUB_clean
_audit_creation_date              2014-07-02
_audit_creation_method            'Materials Studio'
_symmetry_space_group_name_H-M    'P1'
_symmetry_Int_Tables_number       1
_symmetry_cell_setting            triclinic
loop_
_symmetry_equiv_pos_as_xyz
  x,y,z
_cell_length_a                    10.5235
_cell_length_b                    19.0900
_cell_length_c                    23.3491
_cell_angle_alpha                 99.7101
_cell_angle_beta                  103.0240
_cell_angle_gamma                 90.0000
loop_
_atom_site_label
_atom_site_type_symbol
_atom_site_fract_x
_atom_site_fract_y
_atom_site_fract_z
_atom_site_U_iso_or_equiv
_atom_site_adp_type
_atom_site_occupancy
Co1    Co    0.55832   0.07267   0.72174   0.01267  Uiso   1.00
Co2    Co    0.83658   0.42733   0.27826   0.01267  Uiso   1.00
Co3    Co    0.44168   0.92733   0.27826   0.01267  Uiso   1.00
Co4    Co    0.16342   0.57267   0.72174   0.01267  Uiso   1.00
Co5    Co    0.98234   0.25000  -0.00000   0.01267  Uiso   1.00
Co6    Co    0.01766   0.75000   1.00000   0.01267  Uiso   1.00
H1     H     0.08140   0.05810   0.49780   0.01267  Uiso   1.00
H2     H     0.05670   0.03920   0.55720   0.01267  Uiso   1.00
H3     H     0.68780   0.94400   0.66140   0.01267  Uiso   1.00
H4     H     0.69970   0.75910   0.66140   0.01267  Uiso   1.00
H5     H     0.75770   0.81800   0.63420   0.01267  Uiso   1.00
H6     H     0.86450   0.78690   0.74880   0.01267  Uiso   1.00
H7     H     0.92350   0.76180   0.69320   0.01267  Uiso   1.00
H8     H     0.35180   0.64950   0.64340   0.01267  Uiso   1.00
H9     H     0.41600   0.73130   0.59160   0.01267  Uiso   1.00
H10    H     0.35730   0.84760   0.60700   0.01267  Uiso   1.00
H11    H     0.24470   0.88930   0.67920   0.01267  Uiso   1.00
H12    H     0.10710   0.72420   0.78980   0.01267  Uiso   1.00
H13    H     0.07740   0.85780   0.80860   0.01267  Uiso   1.00
H14    H     0.14610   0.90430   0.77420   0.01267  Uiso   1.00
H15    H     0.46180   0.97300   0.81940   0.01267  Uiso   1.00
H16    H     0.43080   0.87690   0.86380   0.01267  Uiso   1.00
H17    H     0.50710   0.76720   0.83380   0.01267  Uiso   1.00
H18    H     0.62190   0.74940   0.75960   0.01267  Uiso   1.00
H19    H     0.63160   0.14950   0.60700   0.01267  Uiso   1.00
H20    H     0.60750   0.18460   0.51540   0.01267  Uiso   1.00
H21    H     0.44130   0.13720   0.43600   0.01267  Uiso   1.00
H22    H     0.28960   0.05510   0.44500   0.01267  Uiso   1.00
H23    H     0.32720   0.98200   0.63520   0.01267  Uiso   1.00
H24    H     0.15950   0.93080   0.54000   0.01267  Uiso   1.00
H25    H     0.18370   0.94940   0.48020   0.01267  Uiso   1.00
H26    H     0.13960   0.05940   0.70300   0.01267  Uiso   1.00
H27    H     0.22850   0.15320   0.87540   0.01267  Uiso   1.00
H28    H     0.85910   0.14220   0.78140   0.01267  Uiso   1.00
H29    H     0.04390   0.34180   0.90360   0.01267  Uiso   1.00
H30    H     0.05540   0.43620   0.85440   0.01267  Uiso   1.00
H31    H     0.93550   0.53520   0.87040   0.01267  Uiso   1.00
H32    H     0.79980   0.54410   0.93580   0.01267  Uiso   1.00
H33    H     0.77110   0.35110   0.04200   0.01267  Uiso   1.00
H34    H     0.71570   0.53090   0.03300   0.01267  Uiso   1.00
H35    H     0.67660   0.47020   0.06420   0.01267  Uiso   1.00
H36    H     0.51500   0.42730   0.97720   0.01267  Uiso   1.00
H37    H     0.55210   0.49050   0.94820   0.01267  Uiso   1.00
H38    H     0.91750   0.90610   0.74520   0.01267  Uiso   1.00
H39    H     0.98020   0.87970   0.69100   0.01267  Uiso   1.00
H40    H     0.58360   0.44190   0.50220   0.01267  Uiso   1.00
H41    H     0.49950   0.46080   0.44280   0.01267  Uiso   1.00
H42    H     0.02640   0.55600   0.33860   0.01267  Uiso   1.00
H43    H     0.03830   0.74090   0.33860   0.01267  Uiso   1.00
H44    H     0.12350   0.68200   0.36580   0.01267  Uiso   1.00
H45    H     0.11570   0.71310   0.25120   0.01267  Uiso   1.00
H46    H     0.23030   0.73820   0.30680   0.01267  Uiso   1.00
H47    H     0.70840   0.85050   0.35660   0.01267  Uiso   1.00
H48    H     0.82440   0.76870   0.40840   0.01267  Uiso   1.00
H49    H     0.75030   0.65240   0.39300   0.01267  Uiso   1.00
H50    H     0.56550   0.61070   0.32080   0.01267  Uiso   1.00
H51    H     0.31730   0.77580   0.21020   0.01267  Uiso   1.00
H52    H     0.26880   0.64220   0.19140   0.01267  Uiso   1.00
H53    H     0.37190   0.59570   0.22580   0.01267  Uiso   1.00
H54    H     0.64240   0.52700   0.18060   0.01267  Uiso   1.00
H55    H     0.56700   0.62310   0.13620   0.01267  Uiso   1.00
H56    H     0.67330   0.73280   0.16620   0.01267  Uiso   1.00
H57    H     0.86230   0.75060   0.24040   0.01267  Uiso   1.00
H58    H     0.02460   0.35050   0.39300   0.01267  Uiso   1.00
H59    H     0.09210   0.31540   0.48460   0.01267  Uiso   1.00
H60    H     0.00530   0.36280   0.56400   0.01267  Uiso   1.00
H61    H     0.84460   0.44490   0.55500   0.01267  Uiso   1.00
H62    H     0.69200   0.51800   0.36480   0.01267  Uiso   1.00
H63    H     0.61950   0.56920   0.46000   0.01267  Uiso   1.00
H64    H     0.70350   0.55060   0.51980   0.01267  Uiso   1.00
H65    H     0.43660   0.44060   0.29700   0.01267  Uiso   1.00
H66    H     0.35310   0.34680   0.12460   0.01267  Uiso   1.00
H67    H     0.07770   0.35780   0.21860   0.01267  Uiso   1.00
H68    H     0.14030   0.15820   0.09640   0.01267  Uiso   1.00
H69    H     0.20100   0.06380   0.14560   0.01267  Uiso   1.00
H70    H     0.06510   0.96480   0.12960   0.01267  Uiso   1.00
H71    H     0.86400   0.95590   0.06420   0.01267  Uiso   1.00
H72    H     0.72910   0.14890   0.95800   0.01267  Uiso   1.00
H73    H     0.68270   0.96910   0.96700   0.01267  Uiso   1.00
H74    H     0.61240   0.02980   0.93580   0.01267  Uiso   1.00
H75    H     0.53780   0.07270   0.02280   0.01267  Uiso   1.00
H76    H     0.60390   0.00950   0.05180   0.01267  Uiso   1.00
H77    H     0.17230   0.59390   0.25480   0.01267  Uiso   1.00
H78    H     0.28920   0.62030   0.30900   0.01267  Uiso   1.00
H79    H     0.91860   0.94190   0.50220   0.01267  Uiso   1.00
H80    H     0.94330   0.96080   0.44280   0.01267  Uiso   1.00
H81    H     0.31220   0.05600   0.33860   0.01267  Uiso   1.00
H82    H     0.30030   0.24090   0.33860   0.01267  Uiso   1.00
H83    H     0.24230   0.18200   0.36580   0.01267  Uiso   1.00
H84    H     0.13550   0.21310   0.25120   0.01267  Uiso   1.00
H85    H     0.07650   0.23820   0.30680   0.01267  Uiso   1.00
H86    H     0.64820   0.35050   0.35660   0.01267  Uiso   1.00
H87    H     0.58400   0.26870   0.40840   0.01267  Uiso   1.00
H88    H     0.64270   0.15240   0.39300   0.01267  Uiso   1.00
H89    H     0.75530   0.11070   0.32080   0.01267  Uiso   1.00
H90    H     0.89290   0.27580   0.21020   0.01267  Uiso   1.00
H91    H     0.92260   0.14220   0.19140   0.01267  Uiso   1.00
H92    H     0.85390   0.09570   0.22580   0.01267  Uiso   1.00
H93    H     0.53820   0.02700   0.18060   0.01267  Uiso   1.00
H94    H     0.56920   0.12310   0.13620   0.01267  Uiso   1.00
H95    H     0.49290   0.23280   0.16620   0.01267  Uiso   1.00
H96    H     0.37810   0.25060   0.24040   0.01267  Uiso   1.00
H97    H     0.36840   0.85050   0.39300   0.01267  Uiso   1.00
H98    H     0.39250   0.81540   0.48460   0.01267  Uiso   1.00
H99    H     0.55870   0.86280   0.56400   0.01267  Uiso   1.00
H100   H     0.71040   0.94490   0.55500   0.01267  Uiso   1.00
H101   H     0.67280   0.01800   0.36480   0.01267  Uiso   1.00
H102   H     0.84050   0.06920   0.46000   0.01267  Uiso   1.00
H103   H     0.81630   0.05060   0.51980   0.01267  Uiso   1.00
H104   H     0.86040   0.94060   0.29700   0.01267  Uiso   1.00
H105   H     0.77150   0.84680   0.12460   0.01267  Uiso   1.00
H106   H     0.14090   0.85780   0.21860   0.01267  Uiso   1.00
H107   H     0.95610   0.65820   0.09640   0.01267  Uiso   1.00
H108   H     0.94460   0.56380   0.14560   0.01267  Uiso   1.00
H109   H     0.06450   0.46480   0.12960   0.01267  Uiso   1.00
H110   H     0.20020   0.45590   0.06420   0.01267  Uiso   1.00
H111   H     0.22890   0.64890   0.95800   0.01267  Uiso   1.00
H112   H     0.28430   0.46910   0.96700   0.01267  Uiso   1.00
H113   H     0.32340   0.52980   0.93580   0.01267  Uiso   1.00
H114   H     0.48500   0.57270   0.02280   0.01267  Uiso   1.00
H115   H     0.44790   0.50950   0.05180   0.01267  Uiso   1.00
H116   H     0.08250   0.09390   0.25480   0.01267  Uiso   1.00
H117   H     0.01980   0.12030   0.30900   0.01267  Uiso   1.00
H118   H     0.41640   0.55810   0.49780   0.01267  Uiso   1.00
H119   H     0.50050   0.53920   0.55720   0.01267  Uiso   1.00
H120   H     0.97360   0.44400   0.66140   0.01267  Uiso   1.00
H121   H     0.96170   0.25910   0.66140   0.01267  Uiso   1.00
H122   H     0.87650   0.31800   0.63420   0.01267  Uiso   1.00
H123   H     0.88430   0.28690   0.74880   0.01267  Uiso   1.00
H124   H     0.76970   0.26180   0.69320   0.01267  Uiso   1.00
H125   H     0.29160   0.14950   0.64340   0.01267  Uiso   1.00
H126   H     0.17560   0.23130   0.59160   0.01267  Uiso   1.00
H127   H     0.24970   0.34760   0.60700   0.01267  Uiso   1.00
H128   H     0.43450   0.38930   0.67920   0.01267  Uiso   1.00
H129   H     0.68270   0.22420   0.78980   0.01267  Uiso   1.00
H130   H     0.73120   0.35780   0.80860   0.01267  Uiso   1.00
H131   H     0.62810   0.40430   0.77420   0.01267  Uiso   1.00
H132   H     0.35760   0.47300   0.81940   0.01267  Uiso   1.00
H133   H     0.43300   0.37690   0.86380   0.01267  Uiso   1.00
H134   H     0.32670   0.26720   0.83380   0.01267  Uiso   1.00
H135   H     0.13770   0.24940   0.75960   0.01267  Uiso   1.00
H136   H     0.97540   0.64950   0.60700   0.01267  Uiso   1.00
H137   H     0.90790   0.68460   0.51540   0.01267  Uiso   1.00
H138   H     0.99470   0.63720   0.43600   0.01267  Uiso   1.00
H139   H     0.15540   0.55510   0.44500   0.01267  Uiso   1.00
H140   H     0.30800   0.48200   0.63520   0.01267  Uiso   1.00
H141   H     0.38050   0.43080   0.54000   0.01267  Uiso   1.00
H142   H     0.29650   0.44940   0.48020   0.01267  Uiso   1.00
H143   H     0.56340   0.55940   0.70300   0.01267  Uiso   1.00
H144   H     0.64690   0.65320   0.87540   0.01267  Uiso   1.00
H145   H     0.92230   0.64220   0.78140   0.01267  Uiso   1.00
H146   H     0.85970   0.84180   0.90360   0.01267  Uiso   1.00
H147   H     0.79900   0.93620   0.85440   0.01267  Uiso   1.00
H148   H     0.93490   0.03520   0.87040   0.01267  Uiso   1.00
H149   H     0.13600   0.04410   0.93580   0.01267  Uiso   1.00
H150   H     0.27090   0.85110   0.04200   0.01267  Uiso   1.00
H151   H     0.31730   0.03090   0.03300   0.01267  Uiso   1.00
H152   H     0.38760   0.97020   0.06420   0.01267  Uiso   1.00
H153   H     0.46220   0.92730   0.97720   0.01267  Uiso   1.00
H154   H     0.39610   0.99050   0.94820   0.01267  Uiso   1.00
H155   H     0.82770   0.40610   0.74520   0.01267  Uiso   1.00
H156   H     0.71080   0.37970   0.69100   0.01267  Uiso   1.00
C1     C     0.06407   0.01919   0.51714   0.01267  Uiso   1.00
C2     C     0.65458   0.92608   0.68996   0.01267  Uiso   1.00
C3     C     0.74574   0.80512   0.67108   0.01267  Uiso   1.00
C4     C     0.87770   0.79986   0.71200   0.01267  Uiso   1.00
C5     C     0.22759   0.79236   0.70298   0.01267  Uiso   1.00
C6     C     0.25512   0.72040   0.69164   0.01267  Uiso   1.00
C7     C     0.32883   0.69674   0.65026   0.01267  Uiso   1.00
C8     C     0.36677   0.74586   0.61954   0.01267  Uiso   1.00
C9     C     0.33293   0.81650   0.62966   0.01267  Uiso   1.00
C10    C     0.26493   0.84171   0.67186   0.01267  Uiso   1.00
C11    C     0.14899   0.73359   0.76078   0.01267  Uiso   1.00
C12    C     0.09238   0.86157   0.76976   0.01267  Uiso   1.00
C13    C     0.60710   0.85128   0.74440   0.01267  Uiso   1.00
C14    C     0.55908   0.91820   0.76116   0.01267  Uiso   1.00
C15    C     0.49296   0.92873   0.80692   0.01267  Uiso   1.00
C16    C     0.47522   0.87122   0.83324   0.01267  Uiso   1.00
C17    C     0.52211   0.80483   0.81522   0.01267  Uiso   1.00
C18    C     0.58946   0.79355   0.77112   0.01267  Uiso   1.00
C19    C     0.37365   0.05311   0.53270   0.01267  Uiso   1.00
C20    C     0.47564   0.08038   0.58108   0.01267  Uiso   1.00
C21    C     0.56392   0.13037   0.57504   0.01267  Uiso   1.00
C22    C     0.54892   0.15098   0.52044   0.01267  Uiso   1.00
C23    C     0.44761   0.12240   0.47242   0.01267  Uiso   1.00
C24    C     0.35765   0.07360   0.47710   0.01267  Uiso   1.00
C25    C     0.35879   0.00838   0.61098   0.01267  Uiso   1.00
C26    C     0.17668   0.96957   0.52036   0.01267  Uiso   1.00
C27    C     0.11427   0.08322   0.73654   0.01267  Uiso   1.00
C28    C     0.20773   0.10509   0.78986   0.01267  Uiso   1.00
C29    C     0.16733   0.13961   0.83966   0.01267  Uiso   1.00
C30    C     0.03753   0.15409   0.83686   0.01267  Uiso   1.00
C31    C     0.94647   0.13255   0.78354   0.01267  Uiso   1.00
C32    C     0.98387   0.09717   0.73394   0.01267  Uiso   1.00
C33    C     0.35028   0.09286   0.79256   0.01267  Uiso   1.00
C34    C     0.98990   0.19040   0.88940   0.01267  Uiso   1.00
C35    C     0.83983   0.44713   0.95826   0.01267  Uiso   1.00
C36    C     0.91225   0.38627   0.94890   0.01267  Uiso   1.00
C37    C     0.99477   0.38165   0.90994   0.01267  Uiso   1.00
C38    C     0.00124   0.43808   0.88108   0.01267  Uiso   1.00
C39    C     0.92866   0.49810   0.89072   0.01267  Uiso   1.00
C40    C     0.84766   0.50377   0.92932   0.01267  Uiso   1.00
C41    C     0.80436   0.37093   0.01432   0.01267  Uiso   1.00
C42    C     0.68200   0.48220   0.02600   0.01267  Uiso   1.00
C43    C     0.54744   0.47640   0.98568   0.01267  Uiso   1.00
C44    C     0.96396   0.86758   0.72752   0.01267  Uiso   1.00
C45    C     0.54693   0.48081   0.48286   0.01267  Uiso   1.00
C46    C     0.96462   0.57392   0.31004   0.01267  Uiso   1.00
C47    C     0.07466   0.69488   0.32892   0.01267  Uiso   1.00
C48    C     0.16570   0.70014   0.28800   0.01267  Uiso   1.00
C49    C     0.52461   0.70764   0.29702   0.01267  Uiso   1.00
C50    C     0.56348   0.77960   0.30836   0.01267  Uiso   1.00
C51    C     0.67857   0.80326   0.34974   0.01267  Uiso   1.00
C52    C     0.74723   0.75414   0.38046   0.01267  Uiso   1.00
C53    C     0.70327   0.68350   0.37034   0.01267  Uiso   1.00
C54    C     0.59307   0.65829   0.32814   0.01267  Uiso   1.00
C55    C     0.38821   0.76641   0.23922   0.01267  Uiso   1.00
C56    C     0.32262   0.63843   0.23024   0.01267  Uiso   1.00
C57    C     0.86270   0.64872   0.25560   0.01267  Uiso   1.00
C58    C     0.79792   0.58180   0.23884   0.01267  Uiso   1.00
C59    C     0.68604   0.57127   0.19308   0.01267  Uiso   1.00
C60    C     0.64198   0.62878   0.16676   0.01267  Uiso   1.00
C61    C     0.70689   0.69517   0.18478   0.01267  Uiso   1.00
C62    C     0.81834   0.70645   0.22888   0.01267  Uiso   1.00
C63    C     0.84095   0.44689   0.46730   0.01267  Uiso   1.00
C64    C     0.89456   0.41962   0.41892   0.01267  Uiso   1.00
C65    C     0.98888   0.36963   0.42496   0.01267  Uiso   1.00
C66    C     0.02848   0.34902   0.47956   0.01267  Uiso   1.00
C67    C     0.97519   0.37760   0.52758   0.01267  Uiso   1.00
C68    C     0.88055   0.42640   0.52290   0.01267  Uiso   1.00
C69    C     0.74781   0.49162   0.38902   0.01267  Uiso   1.00
C70    C     0.65632   0.53043   0.47964   0.01267  Uiso   1.00
C71    C     0.37773   0.41678   0.26346   0.01267  Uiso   1.00
C72    C     0.41787   0.39491   0.21014   0.01267  Uiso   1.00
C73    C     0.32767   0.36039   0.16034   0.01267  Uiso   1.00
C74    C     0.20067   0.34591   0.16314   0.01267  Uiso   1.00
C75    C     0.16293   0.36745   0.21646   0.01267  Uiso   1.00
C76    C     0.24993   0.40283   0.26606   0.01267  Uiso   1.00
C77    C     0.55772   0.40714   0.20744   0.01267  Uiso   1.00
C78    C     0.10050   0.30960   0.11060   0.01267  Uiso   1.00
C79    C     0.88157   0.05287   0.04174   0.01267  Uiso   1.00
C80    C     0.96335   0.11373   0.05110   0.01267  Uiso   1.00
C81    C     0.08483   0.11835   0.09006   0.01267  Uiso   1.00
C82    C     0.12016   0.06192   0.11892   0.01267  Uiso   1.00
C83    C     0.03794   0.00190   0.10928   0.01267  Uiso   1.00
C84    C     0.91834   0.99623   0.07068   0.01267  Uiso   1.00
C85    C     0.79004   0.12907   0.98568   0.01267  Uiso   1.00
C86    C     0.65600   0.01780   0.97400   0.01267  Uiso   1.00
C87    C     0.56176   0.02360   0.01432   0.01267  Uiso   1.00
C88    C     0.23644   0.63242   0.27248   0.01267  Uiso   1.00
C89    C     0.93593   0.98081   0.48286   0.01267  Uiso   1.00
C90    C     0.34542   0.07392   0.31004   0.01267  Uiso   1.00
C91    C     0.25426   0.19488   0.32892   0.01267  Uiso   1.00
C92    C     0.12230   0.20014   0.28800   0.01267  Uiso   1.00
C93    C     0.77241   0.20764   0.29702   0.01267  Uiso   1.00
C94    C     0.74488   0.27960   0.30836   0.01267  Uiso   1.00
C95    C     0.67117   0.30326   0.34974   0.01267  Uiso   1.00
C96    C     0.63323   0.25414   0.38046   0.01267  Uiso   1.00
C97    C     0.66707   0.18350   0.37034   0.01267  Uiso   1.00
C98    C     0.73507   0.15829   0.32814   0.01267  Uiso   1.00
C99    C     0.85101   0.26641   0.23922   0.01267  Uiso   1.00
C100   C     0.90762   0.13843   0.23024   0.01267  Uiso   1.00
C101   C     0.39290   0.14872   0.25560   0.01267  Uiso   1.00
C102   C     0.44092   0.08180   0.23884   0.01267  Uiso   1.00
C103   C     0.50704   0.07127   0.19308   0.01267  Uiso   1.00
C104   C     0.52478   0.12878   0.16676   0.01267  Uiso   1.00
C105   C     0.47789   0.19517   0.18478   0.01267  Uiso   1.00
C106   C     0.41054   0.20645   0.22888   0.01267  Uiso   1.00
C107   C     0.62635   0.94689   0.46730   0.01267  Uiso   1.00
C108   C     0.52436   0.91962   0.41892   0.01267  Uiso   1.00
C109   C     0.43608   0.86963   0.42496   0.01267  Uiso   1.00
C110   C     0.45108   0.84902   0.47956   0.01267  Uiso   1.00
C111   C     0.55239   0.87760   0.52758   0.01267  Uiso   1.00
C112   C     0.64235   0.92640   0.52290   0.01267  Uiso   1.00
C113   C     0.64121   0.99162   0.38902   0.01267  Uiso   1.00
C114   C     0.82332   0.03043   0.47964   0.01267  Uiso   1.00
C115   C     0.88573   0.91678   0.26346   0.01267  Uiso   1.00
C116   C     0.79227   0.89491   0.21014   0.01267  Uiso   1.00
C117   C     0.83267   0.86039   0.16034   0.01267  Uiso   1.00
C118   C     0.96247   0.84591   0.16314   0.01267  Uiso   1.00
C119   C     0.05353   0.86745   0.21646   0.01267  Uiso   1.00
C120   C     0.01613   0.90283   0.26606   0.01267  Uiso   1.00
C121   C     0.64972   0.90714   0.20744   0.01267  Uiso   1.00
C122   C     0.01010   0.80960   0.11060   0.01267  Uiso   1.00
C123   C     0.16017   0.55287   0.04174   0.01267  Uiso   1.00
C124   C     0.08775   0.61373   0.05110   0.01267  Uiso   1.00
C125   C     0.00523   0.61835   0.09006   0.01267  Uiso   1.00
C126   C     0.99876   0.56192   0.11892   0.01267  Uiso   1.00
C127   C     0.07134   0.50190   0.10928   0.01267  Uiso   1.00
C128   C     0.15234   0.49623   0.07068   0.01267  Uiso   1.00
C129   C     0.19564   0.62907   0.98568   0.01267  Uiso   1.00
C130   C     0.31800   0.51780   0.97400   0.01267  Uiso   1.00
C131   C     0.45256   0.52360   0.01432   0.01267  Uiso   1.00
C132   C     0.03604   0.13242   0.27248   0.01267  Uiso   1.00
C133   C     0.45307   0.51919   0.51714   0.01267  Uiso   1.00
C134   C     0.03538   0.42608   0.68996   0.01267  Uiso   1.00
C135   C     0.92534   0.30512   0.67108   0.01267  Uiso   1.00
C136   C     0.83430   0.29986   0.71200   0.01267  Uiso   1.00
C137   C     0.47539   0.29236   0.70298   0.01267  Uiso   1.00
C138   C     0.43652   0.22040   0.69164   0.01267  Uiso   1.00
C139   C     0.32143   0.19674   0.65026   0.01267  Uiso   1.00
C140   C     0.25277   0.24586   0.61954   0.01267  Uiso   1.00
C141   C     0.29673   0.31650   0.62966   0.01267  Uiso   1.00
C142   C     0.40693   0.34171   0.67186   0.01267  Uiso   1.00
C143   C     0.61179   0.23359   0.76078   0.01267  Uiso   1.00
C144   C     0.67738   0.36157   0.76976   0.01267  Uiso   1.00
C145   C     0.13730   0.35128   0.74440   0.01267  Uiso   1.00
C146   C     0.20208   0.41820   0.76116   0.01267  Uiso   1.00
C147   C     0.31396   0.42873   0.80692   0.01267  Uiso   1.00
C148   C     0.35802   0.37122   0.83324   0.01267  Uiso   1.00
C149   C     0.29311   0.30483   0.81522   0.01267  Uiso   1.00
C150   C     0.18166   0.29355   0.77112   0.01267  Uiso   1.00
C151   C     0.15905   0.55311   0.53270   0.01267  Uiso   1.00
C152   C     0.10544   0.58038   0.58108   0.01267  Uiso   1.00
C153   C     0.01112   0.63037   0.57504   0.01267  Uiso   1.00
C154   C     0.97152   0.65098   0.52044   0.01267  Uiso   1.00
C155   C     0.02481   0.62240   0.47242   0.01267  Uiso   1.00
C156   C     0.11945   0.57360   0.47710   0.01267  Uiso   1.00
C157   C     0.25219   0.50838   0.61098   0.01267  Uiso   1.00
C158   C     0.34368   0.46957   0.52036   0.01267  Uiso   1.00
C159   C     0.62227   0.58322   0.73654   0.01267  Uiso   1.00
C160   C     0.58213   0.60509   0.78986   0.01267  Uiso   1.00
C161   C     0.67233   0.63961   0.83966   0.01267  Uiso   1.00
C162   C     0.79933   0.65409   0.83686   0.01267  Uiso   1.00
C163   C     0.83707   0.63255   0.78354   0.01267  Uiso   1.00
C164   C     0.75007   0.59717   0.73394   0.01267  Uiso   1.00
C165   C     0.44228   0.59286   0.79256   0.01267  Uiso   1.00
C166   C     0.89950   0.69040   0.88940   0.01267  Uiso   1.00
C167   C     0.11843   0.94713   0.95826   0.01267  Uiso   1.00
C168   C     0.03665   0.88627   0.94890   0.01267  Uiso   1.00
C169   C     0.91517   0.88165   0.90994   0.01267  Uiso   1.00
C170   C     0.87984   0.93808   0.88108   0.01267  Uiso   1.00
C171   C     0.96206   0.99810   0.89072   0.01267  Uiso   1.00
C172   C     0.08166   0.00377   0.92932   0.01267  Uiso   1.00
C173   C     0.20996   0.87093   0.01432   0.01267  Uiso   1.00
C174   C     0.34400   0.98220   0.02600   0.01267  Uiso   1.00
C175   C     0.43824   0.97640   0.98568   0.01267  Uiso   1.00
C176   C     0.76356   0.36758   0.72752   0.01267  Uiso   1.00
S1     S     0.86209   0.07412   0.66720   0.01267  Uiso   1.00
S2     S     0.19489   0.42588   0.33280   0.01267  Uiso   1.00
S3     S     0.13791   0.92588   0.33280   0.01267  Uiso   1.00
S4     S     0.80511   0.57412   0.66720   0.01267  Uiso   1.00
N1     N     0.59079   0.96475   0.72558   0.01267  Uiso   1.00
N2     N     0.66724   0.85807   0.69868   0.01267  Uiso   1.00
N3     N     0.20080   0.68412   0.72820   0.01267  Uiso   1.00
N4     N     0.16175   0.79940   0.74850   0.01267  Uiso   1.00
N5     N     0.46348   0.05024   0.63036   0.01267  Uiso   1.00
N6     N     0.30050   0.00662   0.55320   0.01267  Uiso   1.00
N7     N     0.88758   0.33879   0.98496   0.01267  Uiso   1.00
N8     N     0.77243   0.43501   0.00046   0.01267  Uiso   1.00
N9     N     0.86521   0.53525   0.27442   0.01267  Uiso   1.00
N10    N     0.96856   0.64193   0.30132   0.01267  Uiso   1.00
N11    N     0.47260   0.81588   0.27180   0.01267  Uiso   1.00
N12    N     0.41325   0.70060   0.25150   0.01267  Uiso   1.00
N13    N     0.83312   0.44976   0.36964   0.01267  Uiso   1.00
N14    N     0.74730   0.49338   0.44680   0.01267  Uiso   1.00
N15    N     0.90262   0.16121   0.01504   0.01267  Uiso   1.00
N16    N     0.77197   0.06499   0.99954   0.01267  Uiso   1.00
N17    N     0.40921   0.03525   0.27442   0.01267  Uiso   1.00
N18    N     0.33276   0.14193   0.30132   0.01267  Uiso   1.00
N19    N     0.79920   0.31588   0.27180   0.01267  Uiso   1.00
N20    N     0.83825   0.20060   0.25150   0.01267  Uiso   1.00
N21    N     0.53652   0.94976   0.36964   0.01267  Uiso   1.00
N22    N     0.69950   0.99338   0.44680   0.01267  Uiso   1.00
N23    N     0.11242   0.66121   0.01504   0.01267  Uiso   1.00
N24    N     0.22757   0.56499   0.99954   0.01267  Uiso   1.00
N25    N     0.13479   0.46475   0.72558   0.01267  Uiso   1.00
N26    N     0.03144   0.35807   0.69868   0.01267  Uiso   1.00
N27    N     0.52740   0.18412   0.72820   0.01267  Uiso   1.00
N28    N     0.58675   0.29940   0.74850   0.01267  Uiso   1.00
N29    N     0.16688   0.55024   0.63036   0.01267  Uiso   1.00
N30    N     0.25270   0.50662   0.55320   0.01267  Uiso   1.00
N31    N     0.09738   0.83879   0.98496   0.01267  Uiso   1.00
N32    N     0.22803   0.93501   0.00046   0.01267  Uiso   1.00
O1     O     0.37954   0.06288   0.74530   0.01267  Uiso   1.00
O2     O     0.42931   0.11354   0.84096   0.01267  Uiso   1.00
O3     O     0.87130   0.19560   0.88660   0.01267  Uiso   1.00
O4     O     0.07640   0.21489   0.93660   0.01267  Uiso   1.00
O5     O     0.74023   0.08079   0.68746   0.01267  Uiso   1.00
O6     O     0.87844   0.12541   0.63068   0.01267  Uiso   1.00
O7     O     0.88356   0.00198   0.64212   0.01267  Uiso   1.00
O8     O     0.63424   0.43712   0.25470   0.01267  Uiso   1.00
O9     O     0.58835   0.38646   0.15904   0.01267  Uiso   1.00
O10    O     0.98470   0.30440   0.11340   0.01267  Uiso   1.00
O11    O     0.13980   0.28511   0.06340   0.01267  Uiso   1.00
O12    O     0.05277   0.41921   0.31254   0.01267  Uiso   1.00
O13    O     0.24776   0.37459   0.36932   0.01267  Uiso   1.00
O14    O     0.24144   0.49802   0.35788   0.01267  Uiso   1.00
O15    O     0.62046   0.93712   0.25470   0.01267  Uiso   1.00
O16    O     0.57069   0.88646   0.15904   0.01267  Uiso   1.00
O17    O     0.12870   0.80440   0.11340   0.01267  Uiso   1.00
O18    O     0.92360   0.78511   0.06340   0.01267  Uiso   1.00
O19    O     0.25977   0.91921   0.31254   0.01267  Uiso   1.00
O20    O     0.12156   0.87459   0.36932   0.01267  Uiso   1.00
O21    O     0.11644   0.99802   0.35788   0.01267  Uiso   1.00
O22    O     0.36576   0.56288   0.74530   0.01267  Uiso   1.00
O23    O     0.41165   0.61354   0.84096   0.01267  Uiso   1.00
O24    O     0.01530   0.69560   0.88660   0.01267  Uiso   1.00
O25    O     0.86020   0.71489   0.93660   0.01267  Uiso   1.00
O26    O     0.94723   0.58079   0.68746   0.01267  Uiso   1.00
O27    O     0.75224   0.62541   0.63068   0.01267  Uiso   1.00
O28    O     0.75856   0.50198   0.64212   0.01267  Uiso   1.00
