data_PASKAX_clean
_audit_creation_date              2014-07-02
_audit_creation_method            'Materials Studio'
_symmetry_space_group_name_H-M    'P1'
_symmetry_Int_Tables_number       1
_symmetry_cell_setting            triclinic
loop_
_symmetry_equiv_pos_as_xyz
  x,y,z
_cell_length_a                    9.3610
_cell_length_b                    12.7130
_cell_length_c                    12.7550
_cell_angle_alpha                 111.8430
_cell_angle_beta                  105.9380
_cell_angle_gamma                 97.1040
loop_
_atom_site_label
_atom_site_type_symbol
_atom_site_fract_x
_atom_site_fract_y
_atom_site_fract_z
_atom_site_U_iso_or_equiv
_atom_site_adp_type
_atom_site_occupancy
Cd1    Cd    0.01485   0.39669   0.57774   0.01267  Uiso   1.00
Cd2    Cd    0.98515   0.60331   0.42226   0.01267  Uiso   1.00
H1     H     0.62520   0.35260   0.44710   0.01267  Uiso   1.00
H2     H     0.44400   0.17650   0.28020   0.01267  Uiso   1.00
H3     H     0.86490   0.13490   0.33960   0.01267  Uiso   1.00
H4     H     0.38810   0.95640   0.20260   0.01267  Uiso   1.00
H5     H     0.29090   0.77320   0.04050   0.01267  Uiso   1.00
H6     H     0.66520   0.82910   0.95290   0.01267  Uiso   1.00
H7     H     0.75950   0.01090   0.11480   0.01267  Uiso   1.00
H8     H     0.18190   0.65750   0.82380   0.01267  Uiso   1.00
H9     H     0.59510   0.60480   0.85370   0.01267  Uiso   1.00
H10    H     0.40670   0.43940   0.67920   0.01267  Uiso   1.00
H11    H     0.06400   0.06110   0.63390   0.01267  Uiso   1.00
H12    H     0.22940   0.14120   0.71410   0.01267  Uiso   1.00
H13    H     0.41790   0.23860   0.68860   0.01267  Uiso   1.00
H14    H     0.22520   0.85340   0.40710   0.01267  Uiso   1.00
H15    H     0.67500   0.28360   0.70610   0.01267  Uiso   1.00
H16    H     0.69840   0.67120   0.64030   0.01267  Uiso   1.00
H17    H     0.84940   0.73780   0.63770   0.01267  Uiso   1.00
H18    H     0.83520   0.90270   0.69410   0.01267  Uiso   1.00
H19    H     0.91580   0.10550   0.78600   0.01267  Uiso   1.00
H20    H     0.02900   0.20420   0.99030   0.01267  Uiso   1.00
H21    H     0.37480   0.64740   0.55290   0.01267  Uiso   1.00
H22    H     0.55600   0.82350   0.71980   0.01267  Uiso   1.00
H23    H     0.13510   0.86510   0.66040   0.01267  Uiso   1.00
H24    H     0.61190   0.04360   0.79740   0.01267  Uiso   1.00
H25    H     0.70910   0.22680   0.95950   0.01267  Uiso   1.00
H26    H     0.33480   0.17090   0.04710   0.01267  Uiso   1.00
H27    H     0.24050   0.98910   0.88520   0.01267  Uiso   1.00
H28    H     0.81810   0.34250   0.17620   0.01267  Uiso   1.00
H29    H     0.40490   0.39520   0.14630   0.01267  Uiso   1.00
H30    H     0.59330   0.56060   0.32080   0.01267  Uiso   1.00
H31    H     0.93600   0.93890   0.36610   0.01267  Uiso   1.00
H32    H     0.77060   0.85880   0.28590   0.01267  Uiso   1.00
H33    H     0.58210   0.76140   0.31140   0.01267  Uiso   1.00
H34    H     0.77480   0.14660   0.59290   0.01267  Uiso   1.00
H35    H     0.32500   0.71640   0.29390   0.01267  Uiso   1.00
H36    H     0.30160   0.32880   0.35970   0.01267  Uiso   1.00
H37    H     0.15060   0.26220   0.36230   0.01267  Uiso   1.00
H38    H     0.16480   0.09730   0.30590   0.01267  Uiso   1.00
H39    H     0.08420   0.89450   0.21400   0.01267  Uiso   1.00
H40    H     0.97100   0.79580   0.00970   0.01267  Uiso   1.00
C1     C     0.65080   0.28520   0.40440   0.01267  Uiso   1.00
C2     C     0.55000   0.18930   0.31140   0.01267  Uiso   1.00
C3     C     0.78250   0.16780   0.34620   0.01267  Uiso   1.00
C4     C     0.57910   0.00150   0.17170   0.01267  Uiso   1.00
C5     C     0.44260   0.93060   0.15110   0.01267  Uiso   1.00
C6     C     0.38430   0.82100   0.05470   0.01267  Uiso   1.00
C7     C     0.46910   0.78410   0.97980   0.01267  Uiso   1.00
C8     C     0.60870   0.85500   0.00280   0.01267  Uiso   1.00
C9     C     0.66500   0.96360   0.09900   0.01267  Uiso   1.00
C10    C     0.26070   0.62320   0.80920   0.01267  Uiso   1.00
C11    C     0.48940   0.59560   0.82680   0.01267  Uiso   1.00
C12    C     0.38470   0.50420   0.73060   0.01267  Uiso   1.00
C13    C     0.10690   0.20920   0.60720   0.01267  Uiso   1.00
C14    C     0.15330   0.10850   0.63370   0.01267  Uiso   1.00
C15    C     0.36710   0.07290   0.56860   0.01267  Uiso   1.00
C16    C     0.45780   0.18190   0.64360   0.01267  Uiso   1.00
C17    C     0.42140   0.98550   0.49370   0.01267  Uiso   1.00
C18    C     0.32760   0.87260   0.41400   0.01267  Uiso   1.00
C19    C     0.61250   0.20910   0.65330   0.01267  Uiso   1.00
C20    C     0.86680   0.58350   0.64890   0.01267  Uiso   1.00
C21    C     0.80960   0.69240   0.67470   0.01267  Uiso   1.00
C22    C     0.90500   0.88150   0.84630   0.01267  Uiso   1.00
C23    C     0.88230   0.94220   0.77730   0.01267  Uiso   1.00
C24    C     0.93050   0.06370   0.83280   0.01267  Uiso   1.00
C25    C     0.99900   0.12280   0.95490   0.01267  Uiso   1.00
C26    C     0.97510   0.93820   0.97220   0.01267  Uiso   1.00
C27    C     0.34920   0.71480   0.59560   0.01267  Uiso   1.00
C28    C     0.45000   0.81070   0.68860   0.01267  Uiso   1.00
C29    C     0.21750   0.83220   0.65380   0.01267  Uiso   1.00
C30    C     0.42090   0.99850   0.82830   0.01267  Uiso   1.00
C31    C     0.55740   0.06940   0.84890   0.01267  Uiso   1.00
C32    C     0.61570   0.17900   0.94530   0.01267  Uiso   1.00
C33    C     0.53090   0.21590   0.02020   0.01267  Uiso   1.00
C34    C     0.39130   0.14500   0.99720   0.01267  Uiso   1.00
C35    C     0.33500   0.03640   0.90100   0.01267  Uiso   1.00
C36    C     0.73930   0.37680   0.19080   0.01267  Uiso   1.00
C37    C     0.51060   0.40440   0.17320   0.01267  Uiso   1.00
C38    C     0.61530   0.49580   0.26940   0.01267  Uiso   1.00
C39    C     0.89310   0.79080   0.39280   0.01267  Uiso   1.00
C40    C     0.84670   0.89150   0.36630   0.01267  Uiso   1.00
C41    C     0.63290   0.92710   0.43140   0.01267  Uiso   1.00
C42    C     0.54220   0.81810   0.35640   0.01267  Uiso   1.00
C43    C     0.57860   0.01450   0.50630   0.01267  Uiso   1.00
C44    C     0.67240   0.12740   0.58600   0.01267  Uiso   1.00
C45    C     0.38750   0.79090   0.34670   0.01267  Uiso   1.00
C46    C     0.13320   0.41650   0.35110   0.01267  Uiso   1.00
C47    C     0.19040   0.30760   0.32530   0.01267  Uiso   1.00
C48    C     0.09500   0.11850   0.15370   0.01267  Uiso   1.00
C49    C     0.11770   0.05780   0.22270   0.01267  Uiso   1.00
C50    C     0.06950   0.93630   0.16720   0.01267  Uiso   1.00
C51    C     0.00100   0.87720   0.04510   0.01267  Uiso   1.00
C52    C     0.02490   0.06180   0.02780   0.01267  Uiso   1.00
N1     N     0.79570   0.26970   0.42720   0.01267  Uiso   1.00
N2     N     0.63740   0.11430   0.27240   0.01267  Uiso   1.00
N3     N     0.41060   0.67280   0.87780   0.01267  Uiso   1.00
N4     N     0.23830   0.52170   0.72000   0.01267  Uiso   1.00
N5     N     0.20430   0.73030   0.57280   0.01267  Uiso   1.00
N6     N     0.36260   0.88570   0.72760   0.01267  Uiso   1.00
N7     N     0.58940   0.32720   0.12220   0.01267  Uiso   1.00
N8     N     0.76170   0.47830   0.28000   0.01267  Uiso   1.00
O1     O     0.12290   0.22200   0.51950   0.01267  Uiso   1.00
O2     O     0.05100   0.27440   0.67760   0.01267  Uiso   1.00
O3     O     0.89570   0.54540   0.55380   0.01267  Uiso   1.00
O4     O     0.88730   0.53480   0.71700   0.01267  Uiso   1.00
O5     O     0.85760   0.76120   0.80140   0.01267  Uiso   1.00
O6     O     0.21370   0.03460   0.55300   0.01267  Uiso   1.00
O7     O     0.87710   0.77800   0.48050   0.01267  Uiso   1.00
O8     O     0.94900   0.72560   0.32240   0.01267  Uiso   1.00
O9     O     0.10430   0.45460   0.44620   0.01267  Uiso   1.00
O10    O     0.11270   0.46520   0.28300   0.01267  Uiso   1.00
O11    O     0.14240   0.23880   0.19860   0.01267  Uiso   1.00
O12    O     0.78630   0.96540   0.44700   0.01267  Uiso   1.00
