data_PASTOU_clean
_audit_creation_date              2014-07-02
_audit_creation_method            'Materials Studio'
_symmetry_space_group_name_H-M    'P1'
_symmetry_Int_Tables_number       1
_symmetry_cell_setting            triclinic
loop_
_symmetry_equiv_pos_as_xyz
  x,y,z
_cell_length_a                    13.9017
_cell_length_b                    13.9017
_cell_length_c                    13.9017
_cell_angle_alpha                 108.0170
_cell_angle_beta                  108.0170
_cell_angle_gamma                 108.0170
loop_
_atom_site_label
_atom_site_type_symbol
_atom_site_fract_x
_atom_site_fract_y
_atom_site_fract_z
_atom_site_U_iso_or_equiv
_atom_site_adp_type
_atom_site_occupancy
Cd1    Cd    0.96475   0.47813   0.61612   0.01267  Uiso   1.00
Cd2    Cd    0.61612   0.96475   0.47813   0.01267  Uiso   1.00
Cd3    Cd    0.47813   0.61612   0.96475   0.01267  Uiso   1.00
Cd4    Cd    0.03525   0.52187   0.38388   0.01267  Uiso   1.00
Cd5    Cd    0.38388   0.03525   0.52187   0.01267  Uiso   1.00
Cd6    Cd    0.52187   0.38388   0.03525   0.01267  Uiso   1.00
H1     H     0.71140   0.46930   0.41420   0.01267  Uiso   1.00
H2     H     0.57400   0.14360   0.25960   0.01267  Uiso   1.00
H3     H     0.72520   0.10820   0.38500   0.01267  Uiso   1.00
H4     H     0.84280   0.20350   0.41780   0.01267  Uiso   1.00
H5     H     0.02310   0.45560   0.86920   0.01267  Uiso   1.00
H6     H     0.00510   0.39880   0.00490   0.01267  Uiso   1.00
H7     H     0.87700   0.21900   0.95400   0.01267  Uiso   1.00
H8     H     0.76020   0.09130   0.76680   0.01267  Uiso   1.00
H9     H     0.41420   0.71140   0.46930   0.01267  Uiso   1.00
H10    H     0.25960   0.57400   0.14360   0.01267  Uiso   1.00
H11    H     0.38500   0.72520   0.10820   0.01267  Uiso   1.00
H12    H     0.41780   0.84280   0.20350   0.01267  Uiso   1.00
H13    H     0.86920   0.02310   0.45560   0.01267  Uiso   1.00
H14    H     0.00490   0.00510   0.39880   0.01267  Uiso   1.00
H15    H     0.95400   0.87700   0.21900   0.01267  Uiso   1.00
H16    H     0.76680   0.76020   0.09130   0.01267  Uiso   1.00
H17    H     0.46930   0.41420   0.71140   0.01267  Uiso   1.00
H18    H     0.14360   0.25960   0.57400   0.01267  Uiso   1.00
H19    H     0.10820   0.38500   0.72520   0.01267  Uiso   1.00
H20    H     0.20350   0.41780   0.84280   0.01267  Uiso   1.00
H21    H     0.45560   0.86920   0.02310   0.01267  Uiso   1.00
H22    H     0.39880   0.00490   0.00510   0.01267  Uiso   1.00
H23    H     0.21900   0.95400   0.87700   0.01267  Uiso   1.00
H24    H     0.09130   0.76680   0.76020   0.01267  Uiso   1.00
H25    H     0.28860   0.53070   0.58580   0.01267  Uiso   1.00
H26    H     0.42600   0.85640   0.74040   0.01267  Uiso   1.00
H27    H     0.27480   0.89180   0.61500   0.01267  Uiso   1.00
H28    H     0.15720   0.79650   0.58220   0.01267  Uiso   1.00
H29    H     0.97690   0.54440   0.13080   0.01267  Uiso   1.00
H30    H     0.99490   0.60120   0.99510   0.01267  Uiso   1.00
H31    H     0.12300   0.78100   0.04600   0.01267  Uiso   1.00
H32    H     0.23980   0.90870   0.23320   0.01267  Uiso   1.00
H33    H     0.58580   0.28860   0.53070   0.01267  Uiso   1.00
H34    H     0.74040   0.42600   0.85640   0.01267  Uiso   1.00
H35    H     0.61500   0.27480   0.89180   0.01267  Uiso   1.00
H36    H     0.58220   0.15720   0.79650   0.01267  Uiso   1.00
H37    H     0.13080   0.97690   0.54440   0.01267  Uiso   1.00
H38    H     0.99510   0.99490   0.60120   0.01267  Uiso   1.00
H39    H     0.04600   0.12300   0.78100   0.01267  Uiso   1.00
H40    H     0.23320   0.23980   0.90870   0.01267  Uiso   1.00
H41    H     0.53070   0.58580   0.28860   0.01267  Uiso   1.00
H42    H     0.85640   0.74040   0.42600   0.01267  Uiso   1.00
H43    H     0.89180   0.61500   0.27480   0.01267  Uiso   1.00
H44    H     0.79650   0.58220   0.15720   0.01267  Uiso   1.00
H45    H     0.54440   0.13080   0.97690   0.01267  Uiso   1.00
H46    H     0.60120   0.99510   0.99490   0.01267  Uiso   1.00
H47    H     0.78100   0.04600   0.12300   0.01267  Uiso   1.00
H48    H     0.90870   0.23320   0.23980   0.01267  Uiso   1.00
C1     C     0.69930   0.39500   0.39530   0.01267  Uiso   1.00
C2     C     0.62330   0.21890   0.31050   0.01267  Uiso   1.00
C3     C     0.77650   0.18820   0.43130   0.01267  Uiso   1.00
C4     C     0.81140   0.21540   0.55370   0.01267  Uiso   1.00
C5     C     0.90070   0.30570   0.73500   0.01267  Uiso   1.00
C6     C     0.97070   0.38310   0.84860   0.01267  Uiso   1.00
C7     C     0.95970   0.34860   0.92860   0.01267  Uiso   1.00
C8     C     0.88190   0.24010   0.89770   0.01267  Uiso   1.00
C9     C     0.81250   0.16360   0.78680   0.01267  Uiso   1.00
C10    C     0.82280   0.19740   0.70520   0.01267  Uiso   1.00
C11    C     0.39530   0.69930   0.39500   0.01267  Uiso   1.00
C12    C     0.31050   0.62330   0.21890   0.01267  Uiso   1.00
C13    C     0.43130   0.77650   0.18820   0.01267  Uiso   1.00
C14    C     0.55370   0.81140   0.21540   0.01267  Uiso   1.00
C15    C     0.73500   0.90070   0.30570   0.01267  Uiso   1.00
C16    C     0.84860   0.97070   0.38310   0.01267  Uiso   1.00
C17    C     0.92860   0.95970   0.34860   0.01267  Uiso   1.00
C18    C     0.89770   0.88190   0.24010   0.01267  Uiso   1.00
C19    C     0.78680   0.81250   0.16360   0.01267  Uiso   1.00
C20    C     0.70520   0.82280   0.19740   0.01267  Uiso   1.00
C21    C     0.39500   0.39530   0.69930   0.01267  Uiso   1.00
C22    C     0.21890   0.31050   0.62330   0.01267  Uiso   1.00
C23    C     0.18820   0.43130   0.77650   0.01267  Uiso   1.00
C24    C     0.21540   0.55370   0.81140   0.01267  Uiso   1.00
C25    C     0.30570   0.73500   0.90070   0.01267  Uiso   1.00
C26    C     0.38310   0.84860   0.97070   0.01267  Uiso   1.00
C27    C     0.34860   0.92860   0.95970   0.01267  Uiso   1.00
C28    C     0.24010   0.89770   0.88190   0.01267  Uiso   1.00
C29    C     0.16360   0.78680   0.81250   0.01267  Uiso   1.00
C30    C     0.19740   0.70520   0.82280   0.01267  Uiso   1.00
C31    C     0.30070   0.60500   0.60470   0.01267  Uiso   1.00
C32    C     0.37670   0.78110   0.68950   0.01267  Uiso   1.00
C33    C     0.22350   0.81180   0.56870   0.01267  Uiso   1.00
C34    C     0.18860   0.78460   0.44630   0.01267  Uiso   1.00
C35    C     0.09930   0.69430   0.26500   0.01267  Uiso   1.00
C36    C     0.02930   0.61690   0.15140   0.01267  Uiso   1.00
C37    C     0.04030   0.65140   0.07140   0.01267  Uiso   1.00
C38    C     0.11810   0.75990   0.10230   0.01267  Uiso   1.00
C39    C     0.18750   0.83640   0.21320   0.01267  Uiso   1.00
C40    C     0.17720   0.80260   0.29480   0.01267  Uiso   1.00
C41    C     0.60470   0.30070   0.60500   0.01267  Uiso   1.00
C42    C     0.68950   0.37670   0.78110   0.01267  Uiso   1.00
C43    C     0.56870   0.22350   0.81180   0.01267  Uiso   1.00
C44    C     0.44630   0.18860   0.78460   0.01267  Uiso   1.00
C45    C     0.26500   0.09930   0.69430   0.01267  Uiso   1.00
C46    C     0.15140   0.02930   0.61690   0.01267  Uiso   1.00
C47    C     0.07140   0.04030   0.65140   0.01267  Uiso   1.00
C48    C     0.10230   0.11810   0.75990   0.01267  Uiso   1.00
C49    C     0.21320   0.18750   0.83640   0.01267  Uiso   1.00
C50    C     0.29480   0.17720   0.80260   0.01267  Uiso   1.00
C51    C     0.60500   0.60470   0.30070   0.01267  Uiso   1.00
C52    C     0.78110   0.68950   0.37670   0.01267  Uiso   1.00
C53    C     0.81180   0.56870   0.22350   0.01267  Uiso   1.00
C54    C     0.78460   0.44630   0.18860   0.01267  Uiso   1.00
C55    C     0.69430   0.26500   0.09930   0.01267  Uiso   1.00
C56    C     0.61690   0.15140   0.02930   0.01267  Uiso   1.00
C57    C     0.65140   0.07140   0.04030   0.01267  Uiso   1.00
C58    C     0.75990   0.10230   0.11810   0.01267  Uiso   1.00
C59    C     0.83640   0.21320   0.18750   0.01267  Uiso   1.00
C60    C     0.80260   0.29480   0.17720   0.01267  Uiso   1.00
N1     N     0.60560   0.30670   0.30640   0.01267  Uiso   1.00
N2     N     0.77280   0.36900   0.45370   0.01267  Uiso   1.00
N3     N     0.72100   0.25400   0.39730   0.01267  Uiso   1.00
N4     N     0.89290   0.31680   0.63720   0.01267  Uiso   1.00
N5     N     0.76510   0.13950   0.58680   0.01267  Uiso   1.00
N6     N     0.30640   0.60560   0.30670   0.01267  Uiso   1.00
N7     N     0.45370   0.77280   0.36900   0.01267  Uiso   1.00
N8     N     0.39730   0.72100   0.25400   0.01267  Uiso   1.00
N9     N     0.63720   0.89290   0.31680   0.01267  Uiso   1.00
N10    N     0.58680   0.76510   0.13950   0.01267  Uiso   1.00
N11    N     0.30670   0.30640   0.60560   0.01267  Uiso   1.00
N12    N     0.36900   0.45370   0.77280   0.01267  Uiso   1.00
N13    N     0.25400   0.39730   0.72100   0.01267  Uiso   1.00
N14    N     0.31680   0.63720   0.89290   0.01267  Uiso   1.00
N15    N     0.13950   0.58680   0.76510   0.01267  Uiso   1.00
N16    N     0.39440   0.69330   0.69360   0.01267  Uiso   1.00
N17    N     0.22720   0.63100   0.54630   0.01267  Uiso   1.00
N18    N     0.27900   0.74600   0.60270   0.01267  Uiso   1.00
N19    N     0.10710   0.68320   0.36280   0.01267  Uiso   1.00
N20    N     0.23490   0.86050   0.41320   0.01267  Uiso   1.00
N21    N     0.69360   0.39440   0.69330   0.01267  Uiso   1.00
N22    N     0.54630   0.22720   0.63100   0.01267  Uiso   1.00
N23    N     0.60270   0.27900   0.74600   0.01267  Uiso   1.00
N24    N     0.36280   0.10710   0.68320   0.01267  Uiso   1.00
N25    N     0.41320   0.23490   0.86050   0.01267  Uiso   1.00
N26    N     0.69330   0.69360   0.39440   0.01267  Uiso   1.00
N27    N     0.63100   0.54630   0.22720   0.01267  Uiso   1.00
N28    N     0.74600   0.60270   0.27900   0.01267  Uiso   1.00
N29    N     0.68320   0.36280   0.10710   0.01267  Uiso   1.00
N30    N     0.86050   0.41320   0.23490   0.01267  Uiso   1.00
Cl1    Cl    0.96415   0.61849   0.52538   0.01267  Uiso   1.00
Cl2    Cl    0.52538   0.96415   0.61849   0.01267  Uiso   1.00
Cl3    Cl    0.61849   0.52538   0.96415   0.01267  Uiso   1.00
Cl4    Cl    0.03585   0.38151   0.47462   0.01267  Uiso   1.00
Cl5    Cl    0.47462   0.03585   0.38151   0.01267  Uiso   1.00
Cl6    Cl    0.38151   0.47462   0.03585   0.01267  Uiso   1.00
