data_image0
_cell_length_a       9.939
_cell_length_b       14.021
_cell_length_c       20.341
_cell_angle_alpha    90
_cell_angle_beta     107.325
_cell_angle_gamma    90

_symmetry_space_group_name_H-M    "P 1"
_symmetry_int_tables_number       1

loop_
  _symmetry_equiv_pos_as_xyz
  'x, y, z'

loop_
  _atom_site_label
  _atom_site_occupancy
  _atom_site_fract_x
  _atom_site_fract_y
  _atom_site_fract_z
  _atom_site_thermal_displace_type
  _atom_site_B_iso_or_equiv
  _atom_site_type_symbol
  Ag1      1.0000 0.32829  0.15419  0.71823  Biso   1.000  Ag
  Ag2      1.0000 0.84294  0.97224  0.45241  Biso   1.000  Ag
  Ag3      1.0000 0.70060  0.87044  0.63515  Biso   1.000  Ag
  S1       1.0000 0.77680  0.98247  0.55917  Biso   1.000  S
  N1       1.0000 0.08670  0.13290  0.66830  Biso   1.000  N
  C1       1.0000 0.56210  0.41290  0.81120  Biso   1.000  C
  N2       1.0000 0.03020  0.07040  0.61590  Biso   1.000  N
  N3       1.0000 0.46900  0.28060  0.76510  Biso   1.000  N
  N4       1.0000 0.87280  0.11640  0.66240  Biso   1.000  N
  N5       1.0000 0.45460  0.35440  0.80710  Biso   1.000  N
  N6       1.0000 0.63800  0.37480  0.77320  Biso   1.000  N
  N7       1.0000 0.99270  0.16100  0.69550  Biso   1.000  N
  C2       1.0000 0.74600  0.13370  0.68190  Biso   1.000  C
  H1       1.0000 0.76620  0.17820  0.71940  Biso   1.000  H
  H2       1.0000 0.71360  0.07480  0.69590  Biso   1.000  H
  H3       1.0000 0.67430  0.15950  0.64330  Biso   1.000  H
  C3       1.0000 0.76780  0.40820  0.76130  Biso   1.000  C
  H4       1.0000 0.79530  0.46780  0.78460  Biso   1.000  H
  H5       1.0000 0.75240  0.41680  0.71280  Biso   1.000  H
  H6       1.0000 0.84100  0.36200  0.77860  Biso   1.000  H
  C4       1.0000 0.89730  0.05880  0.61340  Biso   1.000  C
  N8       1.0000 0.57850  0.29170  0.74520  Biso   1.000  N
  S2       1.0000 0.59070  0.52089  0.85390  Biso   1.000  S
  Ag4      1.0000 0.67171  0.65419  0.78177  Biso   1.000  Ag
  Ag5      1.0000 0.15706  0.47224  0.04759  Biso   1.000  Ag
  Ag6      1.0000 0.29940  0.37044  0.86485  Biso   1.000  Ag
  S3       1.0000 0.22320  0.48247  0.94083  Biso   1.000  S
  N9       1.0000 0.91330  0.63290  0.83170  Biso   1.000  N
  C5       1.0000 0.43790  0.91290  0.68880  Biso   1.000  C
  N10      1.0000 0.96980  0.57040  0.88410  Biso   1.000  N
  N11      1.0000 0.53100  0.78060  0.73490  Biso   1.000  N
  N12      1.0000 0.12720  0.61640  0.83760  Biso   1.000  N
  N13      1.0000 0.54540  0.85440  0.69290  Biso   1.000  N
  N14      1.0000 0.36200  0.87480  0.72680  Biso   1.000  N
  N15      1.0000 0.00730  0.66100  0.80450  Biso   1.000  N
  C6       1.0000 0.25400  0.63370  0.81810  Biso   1.000  C
  H7       1.0000 0.23380  0.67820  0.78060  Biso   1.000  H
  H8       1.0000 0.28640  0.57480  0.80410  Biso   1.000  H
  H9       1.0000 0.32570  0.65950  0.85670  Biso   1.000  H
  C7       1.0000 0.23220  0.90820  0.73870  Biso   1.000  C
  H10      1.0000 0.20470  0.96780  0.71540  Biso   1.000  H
  H11      1.0000 0.24760  0.91680  0.78720  Biso   1.000  H
  H12      1.0000 0.15900  0.86200  0.72140  Biso   1.000  H
  C8       1.0000 0.10270  0.55880  0.88660  Biso   1.000  C
  N16      1.0000 0.42150  0.79170  0.75480  Biso   1.000  N
  S4       1.0000 0.40930  0.02089  0.64610  Biso   1.000  S
  Ag7      1.0000 0.67171  0.84581  0.28177  Biso   1.000  Ag
  Ag8      1.0000 0.15706  0.02776  0.54759  Biso   1.000  Ag
  Ag9      1.0000 0.29940  0.12956  0.36485  Biso   1.000  Ag
  S5       1.0000 0.22320  0.01753  0.44083  Biso   1.000  S
  N17      1.0000 0.91330  0.86710  0.33170  Biso   1.000  N
  C9       1.0000 0.43790  0.58710  0.18880  Biso   1.000  C
  N18      1.0000 0.96980  0.92960  0.38410  Biso   1.000  N
  N19      1.0000 0.53100  0.71940  0.23490  Biso   1.000  N
  N20      1.0000 0.12720  0.88360  0.33760  Biso   1.000  N
  N21      1.0000 0.54540  0.64560  0.19290  Biso   1.000  N
  N22      1.0000 0.36200  0.62520  0.22680  Biso   1.000  N
  N23      1.0000 0.00730  0.83900  0.30450  Biso   1.000  N
  C10      1.0000 0.25400  0.86630  0.31810  Biso   1.000  C
  H13      1.0000 0.23380  0.82180  0.28060  Biso   1.000  H
  H14      1.0000 0.28640  0.92520  0.30410  Biso   1.000  H
  H15      1.0000 0.32570  0.84050  0.35670  Biso   1.000  H
  C11      1.0000 0.23220  0.59180  0.23870  Biso   1.000  C
  H16      1.0000 0.20470  0.53220  0.21540  Biso   1.000  H
  H17      1.0000 0.24760  0.58320  0.28720  Biso   1.000  H
  H18      1.0000 0.15900  0.63800  0.22140  Biso   1.000  H
  C12      1.0000 0.10270  0.94120  0.38660  Biso   1.000  C
  N24      1.0000 0.42150  0.70830  0.25480  Biso   1.000  N
  S6       1.0000 0.40930  0.47911  0.14610  Biso   1.000  S
  Ag10     1.0000 0.32829  0.34581  0.21823  Biso   1.000  Ag
  Ag11     1.0000 0.84294  0.52776  0.95241  Biso   1.000  Ag
  Ag12     1.0000 0.70060  0.62956  0.13515  Biso   1.000  Ag
  S7       1.0000 0.77680  0.51753  0.05917  Biso   1.000  S
  N25      1.0000 0.08670  0.36710  0.16830  Biso   1.000  N
  C13      1.0000 0.56210  0.08710  0.31120  Biso   1.000  C
  N26      1.0000 0.03020  0.42960  0.11590  Biso   1.000  N
  N27      1.0000 0.46900  0.21940  0.26510  Biso   1.000  N
  N28      1.0000 0.87280  0.38360  0.16240  Biso   1.000  N
  N29      1.0000 0.45460  0.14560  0.30710  Biso   1.000  N
  N30      1.0000 0.63800  0.12520  0.27320  Biso   1.000  N
  N31      1.0000 0.99270  0.33900  0.19550  Biso   1.000  N
  C14      1.0000 0.74600  0.36630  0.18190  Biso   1.000  C
  H19      1.0000 0.76620  0.32180  0.21940  Biso   1.000  H
  H20      1.0000 0.71360  0.42520  0.19590  Biso   1.000  H
  H21      1.0000 0.67430  0.34050  0.14330  Biso   1.000  H
  C15      1.0000 0.76780  0.09180  0.26130  Biso   1.000  C
  H22      1.0000 0.79530  0.03220  0.28460  Biso   1.000  H
  H23      1.0000 0.75240  0.08320  0.21280  Biso   1.000  H
  H24      1.0000 0.84100  0.13800  0.27860  Biso   1.000  H
  C16      1.0000 0.89730  0.44120  0.11340  Biso   1.000  C
  N32      1.0000 0.57850  0.20830  0.24520  Biso   1.000  N
  S8       1.0000 0.59070  0.97911  0.35390  Biso   1.000  S
