data_image0
_cell_length_a       9.471
_cell_length_b       17.3579
_cell_length_c       19.6831
_cell_angle_alpha    76.227
_cell_angle_beta     83.232
_cell_angle_gamma    88.407

_symmetry_space_group_name_H-M    "P 1"
_symmetry_int_tables_number       1

loop_
  _symmetry_equiv_pos_as_xyz
  'x, y, z'

loop_
  _atom_site_label
  _atom_site_occupancy
  _atom_site_fract_x
  _atom_site_fract_y
  _atom_site_fract_z
  _atom_site_thermal_displace_type
  _atom_site_B_iso_or_equiv
  _atom_site_type_symbol
  Zn1      1.0000 0.13134  0.95381  0.01047  Biso   1.000  Zn
  O1       1.0000 0.81330  0.40570  0.91056  Biso   1.000  O
  O2       1.0000 0.97420  0.88535  0.07429  Biso   1.000  O
  O3       1.0000 0.94790  0.07520  0.07305  Biso   1.000  O
  O4       1.0000 0.15290  0.01141  0.08719  Biso   1.000  O
  C1       1.0000 0.20490  0.08850  0.19090  Biso   1.000  C
  H1       1.0000 0.26390  0.04600  0.18560  Biso   1.000  H
  O5       1.0000 0.77120  0.95222  0.06010  Biso   1.000  O
  O6       1.0000 0.96080  0.50764  0.89818  Biso   1.000  O
  N1       1.0000 0.32690  0.41573  0.39502  Biso   1.000  N
  N2       1.0000 0.15780  0.40890  0.99084  Biso   1.000  N
  N3       1.0000 0.70480  0.12438  0.98473  Biso   1.000  N
  C2       1.0000 0.24730  0.22680  0.34940  Biso   1.000  C
  H2       1.0000 0.25600  0.17260  0.36760  Biso   1.000  H
  C3       1.0000 0.23350  0.13460  0.23620  Biso   1.000  C
  H3       1.0000 0.31010  0.12180  0.26240  Biso   1.000  H
  C4       1.0000 0.29230  0.27960  0.38490  Biso   1.000  C
  H4       1.0000 0.33240  0.26060  0.42670  Biso   1.000  H
  C5       1.0000 0.90270  0.45410  0.87590  Biso   1.000  C
  C6       1.0000 0.61780  0.83120  0.15930  Biso   1.000  C
  H5       1.0000 0.57090  0.87920  0.14540  Biso   1.000  H
  C7       1.0000 0.05000  0.40580  0.54690  Biso   1.000  C
  H6       1.0000 0.95370  0.39410  0.55860  Biso   1.000  H
  C8       1.0000 0.02920  0.21450  0.20790  Biso   1.000  C
  H7       1.0000 0.96830  0.25590  0.21420  Biso   1.000  H
  C9       1.0000 0.08720  0.10590  0.15310  Biso   1.000  C
  C10      1.0000 0.54510  0.76770  0.20290  Biso   1.000  C
  H8       1.0000 0.44980  0.77360  0.21870  Biso   1.000  H
  C11      1.0000 0.82880  0.75220  0.15770  Biso   1.000  C
  H9       1.0000 0.92500  0.74690  0.14340  Biso   1.000  H
  C12      1.0000 0.21780  0.38930  0.29730  Biso   1.000  C
  H10      1.0000 0.20660  0.44360  0.28010  Biso   1.000  H
  C13      1.0000 0.89710  0.39580  0.77100  Biso   1.000  C
  H11      1.0000 0.82420  0.36230  0.79630  Biso   1.000  H
  C14      1.0000 0.18870  0.25500  0.28590  Biso   1.000  C
  C15      1.0000 0.75590  0.68840  0.20040  Biso   1.000  C
  H12      1.0000 0.80310  0.64040  0.21390  Biso   1.000  H
  C16      1.0000 0.99880  0.16800  0.16310  Biso   1.000  C
  H13      1.0000 0.91820  0.17870  0.13960  Biso   1.000  H
  C17      1.0000 0.17360  0.33600  0.26060  Biso   1.000  C
  H14      1.0000 0.13380  0.35520  0.21880  Biso   1.000  H
  C18      1.0000 0.76230  0.82470  0.13540  Biso   1.000  C
  C19      1.0000 0.43110  0.62770  0.32450  Biso   1.000  C
  H15      1.0000 0.40780  0.67690  0.33380  Biso   1.000  H
  C20      1.0000 0.25820  0.41590  0.46300  Biso   1.000  C
  C21      1.0000 0.33680  0.43510  0.51260  Biso   1.000  C
  H16      1.0000 0.43450  0.44250  0.50190  Biso   1.000  H
  C22      1.0000 0.06020  0.05930  0.10070  Biso   1.000  C
  C23      1.0000 0.94940  0.38970  0.70380  Biso   1.000  C
  H17      1.0000 0.91140  0.35210  0.68440  Biso   1.000  H
  C24      1.0000 0.45950  0.15410  0.01320  Biso   1.000  C
  H18      1.0000 0.36800  0.13600  0.03150  Biso   1.000  H
  C25      1.0000 0.26810  0.42000  0.94080  Biso   1.000  C
  H19      1.0000 0.27210  0.46710  0.90620  Biso   1.000  H
  C26      1.0000 0.37500  0.36670  0.93710  Biso   1.000  C
  H20      1.0000 0.45010  0.37800  0.90130  Biso   1.000  H
  C27      1.0000 0.49770  0.48130  0.29760  Biso   1.000  C
  H21      1.0000 0.52000  0.43220  0.28790  Biso   1.000  H
  C28      1.0000 0.48630  0.23520  0.98690  Biso   1.000  C
  C29      1.0000 0.25710  0.28290  0.04040  Biso   1.000  C
  H22      1.0000 0.25040  0.23670  0.07610  Biso   1.000  H
  C30      1.0000 0.62370  0.25840  0.95920  Biso   1.000  C
  H23      1.0000 0.64490  0.31180  0.94070  Biso   1.000  H
  C31      1.0000 0.14850  0.20060  0.24340  Biso   1.000  C
  C32      1.0000 0.61120  0.69380  0.22410  Biso   1.000  C
  C33      1.0000 0.39490  0.48590  0.35430  Biso   1.000  C
  C34      1.0000 0.53390  0.62270  0.26890  Biso   1.000  C
  C35      1.0000 0.11440  0.39990  0.48190  Biso   1.000  C
  H24      1.0000 0.06100  0.38500  0.45040  Biso   1.000  H
  C36      1.0000 0.10770  0.49790  0.69440  Biso   1.000  C
  H25      1.0000 0.17600  0.53390  0.66820  Biso   1.000  H
  C37      1.0000 0.12530  0.42910  0.59590  Biso   1.000  C
  C38      1.0000 0.27210  0.44310  0.57670  Biso   1.000  C
  H26      1.0000 0.32600  0.45810  0.60800  Biso   1.000  H
  C39      1.0000 0.05860  0.43940  0.66480  Biso   1.000  C
  C40      1.0000 0.95240  0.45110  0.80110  Biso   1.000  C
  C41      1.0000 0.57070  0.10120  0.01180  Biso   1.000  C
  H27      1.0000 0.55260  0.04740  0.03010  Biso   1.000  H
  C42      1.0000 0.37100  0.29540  0.98720  Biso   1.000  C
  C43      1.0000 0.27830  0.36070  0.35910  Biso   1.000  C
  C44      1.0000 0.56450  0.54710  0.25730  Biso   1.000  C
  H28      1.0000 0.63300  0.54210  0.22060  Biso   1.000  H
  C45      1.0000 0.84210  0.89240  0.08600  Biso   1.000  C
  C46      1.0000 0.05720  0.50320  0.76170  Biso   1.000  C
  H29      1.0000 0.09300  0.54170  0.78080  Biso   1.000  H
  C47      1.0000 0.36380  0.56060  0.36580  Biso   1.000  C
  H30      1.0000 0.29540  0.56550  0.40260  Biso   1.000  H
  C48      1.0000 0.72910  0.20220  0.95910  Biso   1.000  C
  H31      1.0000 0.82100  0.21890  0.94040  Biso   1.000  H
  C49      1.0000 0.15400  0.34160  0.03820  Biso   1.000  C
  H32      1.0000 0.07670  0.33240  0.07280  Biso   1.000  H
  Zn2      1.0000 0.86866  0.04619  0.98953  Biso   1.000  Zn
  O7       1.0000 0.18670  0.59430  0.08944  Biso   1.000  O
  O8       1.0000 0.02580  0.11465  0.92571  Biso   1.000  O
  O9       1.0000 0.05210  0.92480  0.92695  Biso   1.000  O
  O10      1.0000 0.84710  0.98859  0.91281  Biso   1.000  O
  C50      1.0000 0.79510  0.91150  0.80910  Biso   1.000  C
  H33      1.0000 0.73610  0.95400  0.81440  Biso   1.000  H
  O11      1.0000 0.22880  0.04778  0.93990  Biso   1.000  O
  O12      1.0000 0.03920  0.49236  0.10182  Biso   1.000  O
  N4       1.0000 0.67310  0.58427  0.60498  Biso   1.000  N
  N5       1.0000 0.84220  0.59110  0.00916  Biso   1.000  N
  N6       1.0000 0.29520  0.87562  0.01527  Biso   1.000  N
  C51      1.0000 0.75270  0.77320  0.65060  Biso   1.000  C
  H34      1.0000 0.74400  0.82740  0.63240  Biso   1.000  H
  C52      1.0000 0.76650  0.86540  0.76380  Biso   1.000  C
  H35      1.0000 0.68990  0.87820  0.73760  Biso   1.000  H
  C53      1.0000 0.70770  0.72040  0.61510  Biso   1.000  C
  H36      1.0000 0.66760  0.73940  0.57330  Biso   1.000  H
  C54      1.0000 0.09730  0.54590  0.12410  Biso   1.000  C
  C55      1.0000 0.38220  0.16880  0.84070  Biso   1.000  C
  H37      1.0000 0.42910  0.12080  0.85460  Biso   1.000  H
  C56      1.0000 0.95000  0.59420  0.45310  Biso   1.000  C
  H38      1.0000 0.04630  0.60590  0.44140  Biso   1.000  H
  C57      1.0000 0.97080  0.78550  0.79210  Biso   1.000  C
  H39      1.0000 0.03170  0.74410  0.78580  Biso   1.000  H
  C58      1.0000 0.91280  0.89410  0.84690  Biso   1.000  C
  C59      1.0000 0.45490  0.23230  0.79710  Biso   1.000  C
  H40      1.0000 0.55020  0.22640  0.78130  Biso   1.000  H
  C60      1.0000 0.17120  0.24780  0.84230  Biso   1.000  C
  H41      1.0000 0.07500  0.25310  0.85660  Biso   1.000  H
  C61      1.0000 0.78220  0.61070  0.70270  Biso   1.000  C
  H42      1.0000 0.79340  0.55640  0.71990  Biso   1.000  H
  C62      1.0000 0.10290  0.60420  0.22900  Biso   1.000  C
  H43      1.0000 0.17580  0.63770  0.20370  Biso   1.000  H
  C63      1.0000 0.81130  0.74500  0.71410  Biso   1.000  C
  C64      1.0000 0.24410  0.31160  0.79960  Biso   1.000  C
  H44      1.0000 0.19690  0.35960  0.78610  Biso   1.000  H
  C65      1.0000 0.00120  0.83200  0.83690  Biso   1.000  C
  H45      1.0000 0.08180  0.82130  0.86040  Biso   1.000  H
  C66      1.0000 0.82640  0.66400  0.73940  Biso   1.000  C
  H46      1.0000 0.86620  0.64480  0.78120  Biso   1.000  H
  C67      1.0000 0.23770  0.17530  0.86460  Biso   1.000  C
  C68      1.0000 0.56890  0.37230  0.67550  Biso   1.000  C
  H47      1.0000 0.59220  0.32310  0.66620  Biso   1.000  H
  C69      1.0000 0.74180  0.58410  0.53700  Biso   1.000  C
  C70      1.0000 0.66320  0.56490  0.48740  Biso   1.000  C
  H48      1.0000 0.56550  0.55750  0.49810  Biso   1.000  H
  C71      1.0000 0.93980  0.94070  0.89930  Biso   1.000  C
  C72      1.0000 0.05060  0.61030  0.29620  Biso   1.000  C
  H49      1.0000 0.08860  0.64790  0.31560  Biso   1.000  H
  C73      1.0000 0.54050  0.84590  0.98680  Biso   1.000  C
  H50      1.0000 0.63200  0.86400  0.96850  Biso   1.000  H
  C74      1.0000 0.73190  0.58000  0.05920  Biso   1.000  C
  H51      1.0000 0.72790  0.53290  0.09380  Biso   1.000  H
  C75      1.0000 0.62500  0.63330  0.06290  Biso   1.000  C
  H52      1.0000 0.54990  0.62200  0.09870  Biso   1.000  H
  C76      1.0000 0.50230  0.51870  0.70240  Biso   1.000  C
  H53      1.0000 0.48000  0.56780  0.71210  Biso   1.000  H
  C77      1.0000 0.51370  0.76480  0.01310  Biso   1.000  C
  C78      1.0000 0.74290  0.71710  0.95960  Biso   1.000  C
  H54      1.0000 0.74960  0.76330  0.92390  Biso   1.000  H
  C79      1.0000 0.37630  0.74160  0.04080  Biso   1.000  C
  H55      1.0000 0.35510  0.68820  0.05930  Biso   1.000  H
  C80      1.0000 0.85150  0.79940  0.75660  Biso   1.000  C
  C81      1.0000 0.38880  0.30620  0.77590  Biso   1.000  C
  C82      1.0000 0.60510  0.51410  0.64570  Biso   1.000  C
  C83      1.0000 0.46610  0.37730  0.73110  Biso   1.000  C
  C84      1.0000 0.88560  0.60010  0.51810  Biso   1.000  C
  H56      1.0000 0.93900  0.61500  0.54960  Biso   1.000  H
  C85      1.0000 0.89230  0.50210  0.30560  Biso   1.000  C
  H57      1.0000 0.82400  0.46610  0.33180  Biso   1.000  H
  C86      1.0000 0.87470  0.57090  0.40410  Biso   1.000  C
  C87      1.0000 0.72790  0.55690  0.42330  Biso   1.000  C
  H58      1.0000 0.67400  0.54190  0.39200  Biso   1.000  H
  C88      1.0000 0.94140  0.56060  0.33520  Biso   1.000  C
  C89      1.0000 0.04760  0.54890  0.19890  Biso   1.000  C
  C90      1.0000 0.42930  0.89880  0.98820  Biso   1.000  C
  H59      1.0000 0.44740  0.95260  0.96990  Biso   1.000  H
  C91      1.0000 0.62900  0.70460  0.01280  Biso   1.000  C
  C92      1.0000 0.72170  0.63930  0.64090  Biso   1.000  C
  C93      1.0000 0.43550  0.45290  0.74270  Biso   1.000  C
  H60      1.0000 0.36700  0.45790  0.77940  Biso   1.000  H
  C94      1.0000 0.15790  0.10760  0.91400  Biso   1.000  C
  C95      1.0000 0.94280  0.49680  0.23830  Biso   1.000  C
  H61      1.0000 0.90700  0.45830  0.21920  Biso   1.000  H
  C96      1.0000 0.63620  0.43940  0.63420  Biso   1.000  C
  H62      1.0000 0.70460  0.43450  0.59740  Biso   1.000  H
  C97      1.0000 0.27090  0.79780  0.04090  Biso   1.000  C
  H63      1.0000 0.17900  0.78110  0.05960  Biso   1.000  H
  C98      1.0000 0.84600  0.65840  0.96180  Biso   1.000  C
  H64      1.0000 0.92330  0.66760  0.92720  Biso   1.000  H
  Zn3      1.0000 0.00000  0.50000  0.00000  Biso   1.000  Zn
