data_image0
_cell_length_a       10.7675
_cell_length_b       10.7675
_cell_length_c       13.994
_cell_angle_alpha    90
_cell_angle_beta     90
_cell_angle_gamma    90

_symmetry_space_group_name_H-M    "P 1"
_symmetry_int_tables_number       1

loop_
  _symmetry_equiv_pos_as_xyz
  'x, y, z'

loop_
  _atom_site_label
  _atom_site_occupancy
  _atom_site_fract_x
  _atom_site_fract_y
  _atom_site_fract_z
  _atom_site_thermal_displace_type
  _atom_site_B_iso_or_equiv
  _atom_site_type_symbol
  Ag1      1.0000 0.50000  0.50000  0.18206  Biso   1.000  Ag
  Ag2      1.0000 0.50000  0.50000  0.81794  Biso   1.000  Ag
  N1       1.0000 0.11010  0.11010  0.54960  Biso   1.000  N
  N2       1.0000 0.35050  0.35050  0.77600  Biso   1.000  N
  N3       1.0000 0.16960  0.16960  0.74240  Biso   1.000  N
  C1       1.0000 0.19060  0.19060  0.57460  Biso   1.000  C
  C2       1.0000 0.22830  0.22830  0.67220  Biso   1.000  C
  C3       1.0000 0.31580  0.31580  0.68860  Biso   1.000  C
  H1       1.0000 0.35350  0.35350  0.63640  Biso   1.000  H
  C4       1.0000 0.29190  0.29190  0.84590  Biso   1.000  C
  H2       1.0000 0.31170  0.31170  0.90880  Biso   1.000  H
  C5       1.0000 0.20470  0.20470  0.82940  Biso   1.000  C
  H3       1.0000 0.16700  0.16700  0.88170  Biso   1.000  H
  N4       1.0000 0.88990  0.88990  0.54960  Biso   1.000  N
  N5       1.0000 0.64950  0.64950  0.77600  Biso   1.000  N
  N6       1.0000 0.83040  0.83040  0.74240  Biso   1.000  N
  C6       1.0000 0.80940  0.80940  0.57460  Biso   1.000  C
  C7       1.0000 0.77170  0.77170  0.67220  Biso   1.000  C
  C8       1.0000 0.68420  0.68420  0.68860  Biso   1.000  C
  H4       1.0000 0.64650  0.64650  0.63640  Biso   1.000  H
  C9       1.0000 0.70810  0.70810  0.84590  Biso   1.000  C
  H5       1.0000 0.68830  0.68830  0.90880  Biso   1.000  H
  C10      1.0000 0.79530  0.79530  0.82940  Biso   1.000  C
  H6       1.0000 0.83300  0.83300  0.88170  Biso   1.000  H
  N7       1.0000 0.88990  0.88990  0.45040  Biso   1.000  N
  N8       1.0000 0.64950  0.64950  0.22400  Biso   1.000  N
  N9       1.0000 0.83040  0.83040  0.25760  Biso   1.000  N
  C11      1.0000 0.80940  0.80940  0.42540  Biso   1.000  C
  C12      1.0000 0.77170  0.77170  0.32780  Biso   1.000  C
  C13      1.0000 0.68420  0.68420  0.31140  Biso   1.000  C
  H7       1.0000 0.64650  0.64650  0.36360  Biso   1.000  H
  C14      1.0000 0.70810  0.70810  0.15410  Biso   1.000  C
  H8       1.0000 0.68830  0.68830  0.09120  Biso   1.000  H
  C15      1.0000 0.79530  0.79530  0.17060  Biso   1.000  C
  H9       1.0000 0.83300  0.83300  0.11830  Biso   1.000  H
  N10      1.0000 0.11010  0.11010  0.45040  Biso   1.000  N
  N11      1.0000 0.35050  0.35050  0.22400  Biso   1.000  N
  N12      1.0000 0.16960  0.16960  0.25760  Biso   1.000  N
  C16      1.0000 0.19060  0.19060  0.42540  Biso   1.000  C
  C17      1.0000 0.22830  0.22830  0.32780  Biso   1.000  C
  C18      1.0000 0.31580  0.31580  0.31140  Biso   1.000  C
  H10      1.0000 0.35350  0.35350  0.36360  Biso   1.000  H
  C19      1.0000 0.29190  0.29190  0.15410  Biso   1.000  C
  H11      1.0000 0.31170  0.31170  0.09120  Biso   1.000  H
  C20      1.0000 0.20470  0.20470  0.17060  Biso   1.000  C
  H12      1.0000 0.16700  0.16700  0.11830  Biso   1.000  H
  O1       1.0000 0.24590  0.24590  0.50000  Biso   1.000  O
  O2       1.0000 0.75410  0.75410  0.50000  Biso   1.000  O
  Ag3      1.0000 0.00000  0.00000  0.68206  Biso   1.000  Ag
  Ag4      1.0000 0.00000  0.00000  0.31794  Biso   1.000  Ag
  N13      1.0000 0.61010  0.38990  0.04960  Biso   1.000  N
  N14      1.0000 0.85050  0.14950  0.27600  Biso   1.000  N
  N15      1.0000 0.66960  0.33040  0.24240  Biso   1.000  N
  C21      1.0000 0.69060  0.30940  0.07460  Biso   1.000  C
  C22      1.0000 0.72830  0.27170  0.17220  Biso   1.000  C
  C23      1.0000 0.81580  0.18420  0.18860  Biso   1.000  C
  H13      1.0000 0.85350  0.14650  0.13640  Biso   1.000  H
  C24      1.0000 0.79190  0.20810  0.34590  Biso   1.000  C
  H14      1.0000 0.81170  0.18830  0.40880  Biso   1.000  H
  C25      1.0000 0.70470  0.29530  0.32940  Biso   1.000  C
  H15      1.0000 0.66700  0.33300  0.38170  Biso   1.000  H
  N16      1.0000 0.38990  0.61010  0.04960  Biso   1.000  N
  N17      1.0000 0.14950  0.85050  0.27600  Biso   1.000  N
  N18      1.0000 0.33040  0.66960  0.24240  Biso   1.000  N
  C26      1.0000 0.30940  0.69060  0.07460  Biso   1.000  C
  C27      1.0000 0.27170  0.72830  0.17220  Biso   1.000  C
  C28      1.0000 0.18420  0.81580  0.18860  Biso   1.000  C
  H16      1.0000 0.14650  0.85350  0.13640  Biso   1.000  H
  C29      1.0000 0.20810  0.79190  0.34590  Biso   1.000  C
  H17      1.0000 0.18830  0.81170  0.40880  Biso   1.000  H
  C30      1.0000 0.29530  0.70470  0.32940  Biso   1.000  C
  H18      1.0000 0.33300  0.66700  0.38170  Biso   1.000  H
  N19      1.0000 0.38990  0.61010  0.95040  Biso   1.000  N
  N20      1.0000 0.14950  0.85050  0.72400  Biso   1.000  N
  N21      1.0000 0.33040  0.66960  0.75760  Biso   1.000  N
  C31      1.0000 0.30940  0.69060  0.92540  Biso   1.000  C
  C32      1.0000 0.27170  0.72830  0.82780  Biso   1.000  C
  C33      1.0000 0.18420  0.81580  0.81140  Biso   1.000  C
  H19      1.0000 0.14650  0.85350  0.86360  Biso   1.000  H
  C34      1.0000 0.20810  0.79190  0.65410  Biso   1.000  C
  H20      1.0000 0.18830  0.81170  0.59120  Biso   1.000  H
  C35      1.0000 0.29530  0.70470  0.67060  Biso   1.000  C
  H21      1.0000 0.33300  0.66700  0.61830  Biso   1.000  H
  N22      1.0000 0.61010  0.38990  0.95040  Biso   1.000  N
  N23      1.0000 0.85050  0.14950  0.72400  Biso   1.000  N
  N24      1.0000 0.66960  0.33040  0.75760  Biso   1.000  N
  C36      1.0000 0.69060  0.30940  0.92540  Biso   1.000  C
  C37      1.0000 0.72830  0.27170  0.82780  Biso   1.000  C
  C38      1.0000 0.81580  0.18420  0.81140  Biso   1.000  C
  H22      1.0000 0.85350  0.14650  0.86360  Biso   1.000  H
  C39      1.0000 0.79190  0.20810  0.65410  Biso   1.000  C
  H23      1.0000 0.81170  0.18830  0.59120  Biso   1.000  H
  C40      1.0000 0.70470  0.29530  0.67060  Biso   1.000  C
  H24      1.0000 0.66700  0.33300  0.61830  Biso   1.000  H
  O3       1.0000 0.74590  0.25410  0.00000  Biso   1.000  O
  O4       1.0000 0.25410  0.74590  0.00000  Biso   1.000  O
