data_image0
_cell_length_a       10.8706
_cell_length_b       10.8706
_cell_length_c       13.959
_cell_angle_alpha    90
_cell_angle_beta     90
_cell_angle_gamma    90

_symmetry_space_group_name_H-M    "P 1"
_symmetry_int_tables_number       1

loop_
  _symmetry_equiv_pos_as_xyz
  'x, y, z'

loop_
  _atom_site_label
  _atom_site_occupancy
  _atom_site_fract_x
  _atom_site_fract_y
  _atom_site_fract_z
  _atom_site_thermal_displace_type
  _atom_site_B_iso_or_equiv
  _atom_site_type_symbol
  Ag1      1.0000 0.50000  0.50000  0.18513  Biso   1.000  Ag
  Ag2      1.0000 0.50000  0.50000  0.81487  Biso   1.000  Ag
  N1       1.0000 0.10840  0.10840  0.54980  Biso   1.000  N
  N2       1.0000 0.35000  0.35000  0.77530  Biso   1.000  N
  N3       1.0000 0.16920  0.16920  0.74350  Biso   1.000  N
  C1       1.0000 0.18940  0.18940  0.57530  Biso   1.000  C
  C2       1.0000 0.22650  0.22650  0.67190  Biso   1.000  C
  C3       1.0000 0.31440  0.31440  0.68740  Biso   1.000  C
  H1       1.0000 0.35130  0.35130  0.63460  Biso   1.000  H
  C4       1.0000 0.29260  0.29260  0.84550  Biso   1.000  C
  H2       1.0000 0.31290  0.31290  0.90820  Biso   1.000  H
  C5       1.0000 0.20410  0.20410  0.83030  Biso   1.000  C
  H3       1.0000 0.16730  0.16730  0.88320  Biso   1.000  H
  N4       1.0000 0.89160  0.89160  0.54980  Biso   1.000  N
  N5       1.0000 0.65000  0.65000  0.77530  Biso   1.000  N
  N6       1.0000 0.83080  0.83080  0.74350  Biso   1.000  N
  C6       1.0000 0.81060  0.81060  0.57530  Biso   1.000  C
  C7       1.0000 0.77350  0.77350  0.67190  Biso   1.000  C
  C8       1.0000 0.68560  0.68560  0.68740  Biso   1.000  C
  H4       1.0000 0.64870  0.64870  0.63460  Biso   1.000  H
  C9       1.0000 0.70740  0.70740  0.84550  Biso   1.000  C
  H5       1.0000 0.68710  0.68710  0.90820  Biso   1.000  H
  C10      1.0000 0.79590  0.79590  0.83030  Biso   1.000  C
  H6       1.0000 0.83270  0.83270  0.88320  Biso   1.000  H
  N7       1.0000 0.89160  0.89160  0.45020  Biso   1.000  N
  N8       1.0000 0.65000  0.65000  0.22470  Biso   1.000  N
  N9       1.0000 0.83080  0.83080  0.25650  Biso   1.000  N
  C11      1.0000 0.81060  0.81060  0.42470  Biso   1.000  C
  C12      1.0000 0.77350  0.77350  0.32810  Biso   1.000  C
  C13      1.0000 0.68560  0.68560  0.31260  Biso   1.000  C
  H7       1.0000 0.64870  0.64870  0.36540  Biso   1.000  H
  C14      1.0000 0.70740  0.70740  0.15450  Biso   1.000  C
  H8       1.0000 0.68710  0.68710  0.09180  Biso   1.000  H
  C15      1.0000 0.79590  0.79590  0.16970  Biso   1.000  C
  H9       1.0000 0.83270  0.83270  0.11680  Biso   1.000  H
  N10      1.0000 0.10840  0.10840  0.45020  Biso   1.000  N
  N11      1.0000 0.35000  0.35000  0.22470  Biso   1.000  N
  N12      1.0000 0.16920  0.16920  0.25650  Biso   1.000  N
  C16      1.0000 0.18940  0.18940  0.42470  Biso   1.000  C
  C17      1.0000 0.22650  0.22650  0.32810  Biso   1.000  C
  C18      1.0000 0.31440  0.31440  0.31260  Biso   1.000  C
  H10      1.0000 0.35130  0.35130  0.36540  Biso   1.000  H
  C19      1.0000 0.29260  0.29260  0.15450  Biso   1.000  C
  H11      1.0000 0.31290  0.31290  0.09180  Biso   1.000  H
  C20      1.0000 0.20410  0.20410  0.16970  Biso   1.000  C
  H12      1.0000 0.16730  0.16730  0.11680  Biso   1.000  H
  O1       1.0000 0.24380  0.24380  0.50000  Biso   1.000  O
  O2       1.0000 0.75620  0.75620  0.50000  Biso   1.000  O
  Ag3      1.0000 0.00000  0.00000  0.68513  Biso   1.000  Ag
  Ag4      1.0000 0.00000  0.00000  0.31487  Biso   1.000  Ag
  N13      1.0000 0.60840  0.39160  0.04980  Biso   1.000  N
  N14      1.0000 0.85000  0.15000  0.27530  Biso   1.000  N
  N15      1.0000 0.66920  0.33080  0.24350  Biso   1.000  N
  C21      1.0000 0.68940  0.31060  0.07530  Biso   1.000  C
  C22      1.0000 0.72650  0.27350  0.17190  Biso   1.000  C
  C23      1.0000 0.81440  0.18560  0.18740  Biso   1.000  C
  H13      1.0000 0.85130  0.14870  0.13460  Biso   1.000  H
  C24      1.0000 0.79260  0.20740  0.34550  Biso   1.000  C
  H14      1.0000 0.81290  0.18710  0.40820  Biso   1.000  H
  C25      1.0000 0.70410  0.29590  0.33030  Biso   1.000  C
  H15      1.0000 0.66730  0.33270  0.38320  Biso   1.000  H
  N16      1.0000 0.39160  0.60840  0.04980  Biso   1.000  N
  N17      1.0000 0.15000  0.85000  0.27530  Biso   1.000  N
  N18      1.0000 0.33080  0.66920  0.24350  Biso   1.000  N
  C26      1.0000 0.31060  0.68940  0.07530  Biso   1.000  C
  C27      1.0000 0.27350  0.72650  0.17190  Biso   1.000  C
  C28      1.0000 0.18560  0.81440  0.18740  Biso   1.000  C
  H16      1.0000 0.14870  0.85130  0.13460  Biso   1.000  H
  C29      1.0000 0.20740  0.79260  0.34550  Biso   1.000  C
  H17      1.0000 0.18710  0.81290  0.40820  Biso   1.000  H
  C30      1.0000 0.29590  0.70410  0.33030  Biso   1.000  C
  H18      1.0000 0.33270  0.66730  0.38320  Biso   1.000  H
  N19      1.0000 0.39160  0.60840  0.95020  Biso   1.000  N
  N20      1.0000 0.15000  0.85000  0.72470  Biso   1.000  N
  N21      1.0000 0.33080  0.66920  0.75650  Biso   1.000  N
  C31      1.0000 0.31060  0.68940  0.92470  Biso   1.000  C
  C32      1.0000 0.27350  0.72650  0.82810  Biso   1.000  C
  C33      1.0000 0.18560  0.81440  0.81260  Biso   1.000  C
  H19      1.0000 0.14870  0.85130  0.86540  Biso   1.000  H
  C34      1.0000 0.20740  0.79260  0.65450  Biso   1.000  C
  H20      1.0000 0.18710  0.81290  0.59180  Biso   1.000  H
  C35      1.0000 0.29590  0.70410  0.66970  Biso   1.000  C
  H21      1.0000 0.33270  0.66730  0.61680  Biso   1.000  H
  N22      1.0000 0.60840  0.39160  0.95020  Biso   1.000  N
  N23      1.0000 0.85000  0.15000  0.72470  Biso   1.000  N
  N24      1.0000 0.66920  0.33080  0.75650  Biso   1.000  N
  C36      1.0000 0.68940  0.31060  0.92470  Biso   1.000  C
  C37      1.0000 0.72650  0.27350  0.82810  Biso   1.000  C
  C38      1.0000 0.81440  0.18560  0.81260  Biso   1.000  C
  H22      1.0000 0.85130  0.14870  0.86540  Biso   1.000  H
  C39      1.0000 0.79260  0.20740  0.65450  Biso   1.000  C
  H23      1.0000 0.81290  0.18710  0.59180  Biso   1.000  H
  C40      1.0000 0.70410  0.29590  0.66970  Biso   1.000  C
  H24      1.0000 0.66730  0.33270  0.61680  Biso   1.000  H
  O3       1.0000 0.74380  0.25620  0.00000  Biso   1.000  O
  O4       1.0000 0.25620  0.74380  0.00000  Biso   1.000  O
