data_image0
_cell_length_a       9.366
_cell_length_b       9.882
_cell_length_c       19.183
_cell_angle_alpha    85.406
_cell_angle_beta     85.029
_cell_angle_gamma    114.485

_symmetry_space_group_name_H-M    "P 1"
_symmetry_int_tables_number       1

loop_
  _symmetry_equiv_pos_as_xyz
  'x, y, z'

loop_
  _atom_site_label
  _atom_site_occupancy
  _atom_site_fract_x
  _atom_site_fract_y
  _atom_site_fract_z
  _atom_site_thermal_displace_type
  _atom_site_B_iso_or_equiv
  _atom_site_type_symbol
  Zn1      1.0000 0.74600  0.45930  0.66678  Biso   1.000  Zn
  Zn2      1.0000 0.36080  0.06030  0.81849  Biso   1.000  Zn
  Zn3      1.0000 0.11170  0.12550  0.56979  Biso   1.000  Zn
  Zn4      1.0000 0.66700  0.66490  0.94415  Biso   1.000  Zn
  Zn5      1.0000 0.79140  0.88620  0.73017  Biso   1.000  Zn
  P1       1.0000 0.39020  0.24110  0.67450  Biso   1.000  P
  P2       1.0000 0.43270  0.35090  0.89880  Biso   1.000  P
  P3       1.0000 0.00100  0.81600  0.84070  Biso   1.000  P
  P4       1.0000 0.85010  0.19150  0.65370  Biso   1.000  P
  P5       1.0000 0.47940  0.78930  0.84930  Biso   1.000  P
  P6       1.0000 0.85800  0.77840  0.58730  Biso   1.000  P
  O1       1.0000 0.86400  0.33980  0.67440  Biso   1.000  O
  O2       1.0000 0.88850  0.63580  0.60300  Biso   1.000  O
  O3       1.0000 0.53800  0.37600  0.63820  Biso   1.000  O
  O4       1.0000 0.13300  0.97000  0.84170  Biso   1.000  O
  O5       1.0000 0.44190  0.14100  0.72110  Biso   1.000  O
  O6       1.0000 0.45830  0.21060  0.88220  Biso   1.000  O
  O7       1.0000 0.42100  0.91000  0.85630  Biso   1.000  O
  O8       1.0000 0.29200  0.16200  0.62150  Biso   1.000  O
  O9       1.0000 0.95800  0.21000  0.58790  Biso   1.000  O
  O10      1.0000 0.77050  0.76090  0.52210  Biso   1.000  O
  O11      1.0000 0.01920  0.91210  0.57390  Biso   1.000  O
  O12      1.0000 0.58110  0.45890  0.92560  Biso   1.000  O
  O13      1.0000 0.29200  0.30400  0.95760  Biso   1.000  O
  O14      1.0000 0.54300  0.76900  0.91660  Biso   1.000  O
  O15      1.0000 0.89000  0.77300  0.90700  Biso   1.000  O
  O16      1.0000 0.74660  0.78400  0.64880  Biso   1.000  O
  O17      1.0000 0.87500  0.10000  0.71500  Biso   1.000  O
  O18      1.0000 0.91600  0.79800  0.77670  Biso   1.000  O
  O19      1.0000 0.58800  0.81500  0.78570  Biso   1.000  O
  O20      1.0000 0.28600  0.29800  0.72200  Biso   1.000  O
  O21      1.0000 0.39800  0.41900  0.83210  Biso   1.000  O
  O22      1.0000 0.06600  0.69300  0.83800  Biso   1.000  O
  O23      1.0000 0.67500  0.10400  0.63420  Biso   1.000  O
  O24      1.0000 0.32800  0.64300  0.84330  Biso   1.000  O
  H1       1.0000 0.32900  0.34500  0.76440  Biso   1.000  H
  H2       1.0000 0.16300  0.67500  0.84000  Biso   1.000  H
  H3       1.0000 0.59200  0.11700  0.66530  Biso   1.000  H
  H4       1.0000 0.35500  0.55600  0.83890  Biso   1.000  H
  Zn6      1.0000 0.25400  0.54070  0.33322  Biso   1.000  Zn
  Zn7      1.0000 0.63920  0.93970  0.18151  Biso   1.000  Zn
  Zn8      1.0000 0.88830  0.87450  0.43021  Biso   1.000  Zn
  Zn9      1.0000 0.33300  0.33510  0.05585  Biso   1.000  Zn
  Zn10     1.0000 0.20860  0.11380  0.26983  Biso   1.000  Zn
  P7       1.0000 0.60980  0.75890  0.32550  Biso   1.000  P
  P8       1.0000 0.56730  0.64910  0.10120  Biso   1.000  P
  P9       1.0000 0.99900  0.18400  0.15930  Biso   1.000  P
  P10      1.0000 0.14990  0.80850  0.34630  Biso   1.000  P
  P11      1.0000 0.52060  0.21070  0.15070  Biso   1.000  P
  P12      1.0000 0.14200  0.22160  0.41270  Biso   1.000  P
  O25      1.0000 0.13600  0.66020  0.32560  Biso   1.000  O
  O26      1.0000 0.11150  0.36420  0.39700  Biso   1.000  O
  O27      1.0000 0.46200  0.62400  0.36180  Biso   1.000  O
  O28      1.0000 0.86700  0.03000  0.15830  Biso   1.000  O
  O29      1.0000 0.55810  0.85900  0.27890  Biso   1.000  O
  O30      1.0000 0.54170  0.78940  0.11780  Biso   1.000  O
  O31      1.0000 0.57900  0.09000  0.14370  Biso   1.000  O
  O32      1.0000 0.70800  0.83800  0.37850  Biso   1.000  O
  O33      1.0000 0.04200  0.79000  0.41210  Biso   1.000  O
  O34      1.0000 0.22950  0.23910  0.47790  Biso   1.000  O
  O35      1.0000 0.98080  0.08790  0.42610  Biso   1.000  O
  O36      1.0000 0.41890  0.54110  0.07440  Biso   1.000  O
  O37      1.0000 0.70800  0.69600  0.04240  Biso   1.000  O
  O38      1.0000 0.45700  0.23100  0.08340  Biso   1.000  O
  O39      1.0000 0.11000  0.22700  0.09300  Biso   1.000  O
  O40      1.0000 0.25340  0.21600  0.35120  Biso   1.000  O
  O41      1.0000 0.12500  0.90000  0.28500  Biso   1.000  O
  O42      1.0000 0.08400  0.20200  0.22330  Biso   1.000  O
  O43      1.0000 0.41200  0.18500  0.21430  Biso   1.000  O
  O44      1.0000 0.71400  0.70200  0.27800  Biso   1.000  O
  O45      1.0000 0.60200  0.58100  0.16790  Biso   1.000  O
  O46      1.0000 0.93400  0.30700  0.16200  Biso   1.000  O
  O47      1.0000 0.32500  0.89600  0.36580  Biso   1.000  O
  O48      1.0000 0.67200  0.35700  0.15670  Biso   1.000  O
  H5       1.0000 0.67100  0.65500  0.23560  Biso   1.000  H
  H6       1.0000 0.83700  0.32500  0.16000  Biso   1.000  H
  H7       1.0000 0.40800  0.88300  0.33470  Biso   1.000  H
  H8       1.0000 0.64500  0.44400  0.16110  Biso   1.000  H
