data_PEBNEP_clean
_audit_creation_date              2014-07-02
_audit_creation_method            'Materials Studio'
_symmetry_space_group_name_H-M    'P1'
_symmetry_Int_Tables_number       1
_symmetry_cell_setting            triclinic
loop_
_symmetry_equiv_pos_as_xyz
  x,y,z
_cell_length_a                    7.4740
_cell_length_b                    11.6823
_cell_length_c                    28.1550
_cell_angle_alpha                 88.0170
_cell_angle_beta                  83.7900
_cell_angle_gamma                 71.3440
loop_
_atom_site_label
_atom_site_type_symbol
_atom_site_fract_x
_atom_site_fract_y
_atom_site_fract_z
_atom_site_U_iso_or_equiv
_atom_site_adp_type
_atom_site_occupancy
Co1    Co    0.11902   0.76196   0.25000   0.01267  Uiso   1.00
Co2    Co    0.88098   0.23804   0.75000   0.01267  Uiso   1.00
Cu1    Cu    0.41121   0.13316   0.03193   0.01267  Uiso   1.00
Cu2    Cu    0.45563   0.13316   0.46807   0.01267  Uiso   1.00
Cu3    Cu    0.58879   0.86684   0.96807   0.01267  Uiso   1.00
Cu4    Cu    0.54437   0.86684   0.53193   0.01267  Uiso   1.00
H1     H     0.44100   0.95000   0.11900   0.01267  Uiso   1.00
H2     H     0.66800   0.92800   0.18000   0.01267  Uiso   1.00
H3     H     0.89500   0.04200   0.15400   0.01267  Uiso   1.00
H4     H     0.78600   0.17200   0.03800   0.01267  Uiso   1.00
H5     H     0.92200   0.17000   0.07700   0.01267  Uiso   1.00
H6     H     0.78300   0.44600   0.05300   0.01267  Uiso   1.00
H7     H     0.50100   0.68400   0.02000   0.01267  Uiso   1.00
H8     H     0.66500   0.58600   0.99100   0.01267  Uiso   1.00
H9     H     0.05800   0.44200   0.92100   0.01267  Uiso   1.00
H10    H     0.07700   0.10600   0.97000   0.01267  Uiso   1.00
H11    H     0.56700   0.29200   0.15200   0.01267  Uiso   1.00
H12    H     0.43500   0.44800   0.21000   0.01267  Uiso   1.00
H13    H     0.41700   0.58200   0.19800   0.01267  Uiso   1.00
H14    H     0.15700   0.38400   0.16000   0.01267  Uiso   1.00
H15    H     0.79700   0.49200   0.17600   0.01267  Uiso   1.00
H16    H     0.76690   0.68800   0.20900   0.01267  Uiso   1.00
H17    H     0.60900   0.95000   0.38100   0.01267  Uiso   1.00
H18    H     0.40400   0.92800   0.32000   0.01267  Uiso   1.00
H19    H     0.06300   0.04200   0.34600   0.01267  Uiso   1.00
H20    H     0.04200   0.17200   0.46200   0.01267  Uiso   1.00
H21    H     0.90800   0.17000   0.42300   0.01267  Uiso   1.00
H22    H     0.77100   0.44600   0.44700   0.01267  Uiso   1.00
H23    H     0.81500   0.68400   0.48000   0.01267  Uiso   1.00
H24    H     0.74900   0.58600   0.50900   0.01267  Uiso   1.00
H25    H     0.50000   0.44200   0.57900   0.01267  Uiso   1.00
H26    H     0.81700   0.10600   0.53000   0.01267  Uiso   1.00
H27    H     0.14100   0.29200   0.34800   0.01267  Uiso   1.00
H28    H     0.11700   0.44800   0.29000   0.01267  Uiso   1.00
H29    H     0.00100   0.58200   0.30200   0.01267  Uiso   1.00
H30    H     0.45900   0.38400   0.34000   0.01267  Uiso   1.00
H31    H     0.71100   0.49200   0.32400   0.01267  Uiso   1.00
H32    H     0.54510   0.68800   0.29100   0.01267  Uiso   1.00
H33    H     0.55900   0.05000   0.88100   0.01267  Uiso   1.00
H34    H     0.33200   0.07200   0.82000   0.01267  Uiso   1.00
H35    H     0.10500   0.95800   0.84600   0.01267  Uiso   1.00
H36    H     0.21400   0.82800   0.96200   0.01267  Uiso   1.00
H37    H     0.07800   0.83000   0.92300   0.01267  Uiso   1.00
H38    H     0.21700   0.55400   0.94700   0.01267  Uiso   1.00
H39    H     0.49900   0.31600   0.98000   0.01267  Uiso   1.00
H40    H     0.33500   0.41400   0.00900   0.01267  Uiso   1.00
H41    H     0.94200   0.55800   0.07900   0.01267  Uiso   1.00
H42    H     0.92300   0.89400   0.03000   0.01267  Uiso   1.00
H43    H     0.43300   0.70800   0.84800   0.01267  Uiso   1.00
H44    H     0.56500   0.55200   0.79000   0.01267  Uiso   1.00
H45    H     0.58300   0.41800   0.80200   0.01267  Uiso   1.00
H46    H     0.84300   0.61600   0.84000   0.01267  Uiso   1.00
H47    H     0.20300   0.50800   0.82400   0.01267  Uiso   1.00
H48    H     0.23310   0.31200   0.79100   0.01267  Uiso   1.00
H49    H     0.39100   0.05000   0.61900   0.01267  Uiso   1.00
H50    H     0.59600   0.07200   0.68000   0.01267  Uiso   1.00
H51    H     0.93700   0.95800   0.65400   0.01267  Uiso   1.00
H52    H     0.95800   0.82800   0.53800   0.01267  Uiso   1.00
H53    H     0.09200   0.83000   0.57700   0.01267  Uiso   1.00
H54    H     0.22900   0.55400   0.55300   0.01267  Uiso   1.00
H55    H     0.18500   0.31600   0.52000   0.01267  Uiso   1.00
H56    H     0.25100   0.41400   0.49100   0.01267  Uiso   1.00
H57    H     0.50000   0.55800   0.42100   0.01267  Uiso   1.00
H58    H     0.18300   0.89400   0.47000   0.01267  Uiso   1.00
H59    H     0.85900   0.70800   0.65200   0.01267  Uiso   1.00
H60    H     0.88300   0.55200   0.71000   0.01267  Uiso   1.00
H61    H     0.99900   0.41800   0.69800   0.01267  Uiso   1.00
H62    H     0.54100   0.61600   0.66000   0.01267  Uiso   1.00
H63    H     0.28900   0.50800   0.67600   0.01267  Uiso   1.00
H64    H     0.45490   0.31200   0.70900   0.01267  Uiso   1.00
C1     C     0.53700   0.99140   0.11910   0.01267  Uiso   1.00
C2     C     0.66570   0.97220   0.15320   0.01267  Uiso   1.00
C3     C     0.77550   0.04100   0.14030   0.01267  Uiso   1.00
C4     C     0.78580   0.18660   0.07250   0.01267  Uiso   1.00
C5     C     0.68110   0.31760   0.08400   0.01267  Uiso   1.00
C6     C     0.69320   0.40200   0.05010   0.01267  Uiso   1.00
C7     C     0.60160   0.52900   0.06030   0.01267  Uiso   1.00
C8     C     0.62940   0.62100   0.02330   0.01267  Uiso   1.00
C9     C     0.09640   0.36000   0.93560   0.01267  Uiso   1.00
C10    C     0.00950   0.27240   0.93420   0.01267  Uiso   1.00
C11    C     0.10950   0.18300   0.96260   0.01267  Uiso   1.00
C12    C     0.50170   0.56400   0.10420   0.01267  Uiso   1.00
C13    C     0.48890   0.47480   0.13880   0.01267  Uiso   1.00
C14    C     0.57730   0.35560   0.12770   0.01267  Uiso   1.00
C15    C     0.38800   0.51300   0.18750   0.01267  Uiso   1.00
C16    C     0.09280   0.46980   0.17510   0.01267  Uiso   1.00
C17    C     0.90290   0.52720   0.18350   0.01267  Uiso   1.00
C18    C     0.89050   0.63380   0.20410   0.01267  Uiso   1.00
C19    C     0.47160   0.99140   0.38090   0.01267  Uiso   1.00
C20    C     0.36210   0.97220   0.34680   0.01267  Uiso   1.00
C21    C     0.18350   0.04100   0.35970   0.01267  Uiso   1.00
C22    C     0.02760   0.18660   0.42750   0.01267  Uiso   1.00
C23    C     0.00130   0.31760   0.41600   0.01267  Uiso   1.00
C24    C     0.90480   0.40200   0.44990   0.01267  Uiso   1.00
C25    C     0.86940   0.52900   0.43970   0.01267  Uiso   1.00
C26    C     0.74960   0.62100   0.47670   0.01267  Uiso   1.00
C27    C     0.54360   0.36000   0.56440   0.01267  Uiso   1.00
C28    C     0.71810   0.27240   0.56580   0.01267  Uiso   1.00
C29    C     0.70750   0.18300   0.53740   0.01267  Uiso   1.00
C30    C     0.93430   0.56400   0.39580   0.01267  Uiso   1.00
C31    C     0.03630   0.47480   0.36120   0.01267  Uiso   1.00
C32    C     0.06710   0.35560   0.37230   0.01267  Uiso   1.00
C33    C     0.09900   0.51300   0.31250   0.01267  Uiso   1.00
C34    C     0.43740   0.46980   0.32490   0.01267  Uiso   1.00
C35    C     0.56990   0.52720   0.31650   0.01267  Uiso   1.00
C36    C     0.47570   0.63380   0.29590   0.01267  Uiso   1.00
C37    C     0.46300   0.00860   0.88090   0.01267  Uiso   1.00
C38    C     0.33430   0.02780   0.84680   0.01267  Uiso   1.00
C39    C     0.22450   0.95900   0.85970   0.01267  Uiso   1.00
C40    C     0.21420   0.81340   0.92750   0.01267  Uiso   1.00
C41    C     0.31890   0.68240   0.91600   0.01267  Uiso   1.00
C42    C     0.30680   0.59800   0.94990   0.01267  Uiso   1.00
C43    C     0.39840   0.47100   0.93970   0.01267  Uiso   1.00
C44    C     0.37060   0.37900   0.97670   0.01267  Uiso   1.00
C45    C     0.90360   0.64000   0.06440   0.01267  Uiso   1.00
C46    C     0.99050   0.72760   0.06580   0.01267  Uiso   1.00
C47    C     0.89050   0.81700   0.03740   0.01267  Uiso   1.00
C48    C     0.49830   0.43600   0.89580   0.01267  Uiso   1.00
C49    C     0.51110   0.52520   0.86120   0.01267  Uiso   1.00
C50    C     0.42270   0.64440   0.87230   0.01267  Uiso   1.00
C51    C     0.61200   0.48700   0.81250   0.01267  Uiso   1.00
C52    C     0.90720   0.53020   0.82490   0.01267  Uiso   1.00
C53    C     0.09710   0.47280   0.81650   0.01267  Uiso   1.00
C54    C     0.10950   0.36620   0.79590   0.01267  Uiso   1.00
C55    C     0.52840   0.00860   0.61910   0.01267  Uiso   1.00
C56    C     0.63790   0.02780   0.65320   0.01267  Uiso   1.00
C57    C     0.81650   0.95900   0.64030   0.01267  Uiso   1.00
C58    C     0.97240   0.81340   0.57250   0.01267  Uiso   1.00
C59    C     0.99870   0.68240   0.58400   0.01267  Uiso   1.00
C60    C     0.09520   0.59800   0.55010   0.01267  Uiso   1.00
C61    C     0.13060   0.47100   0.56030   0.01267  Uiso   1.00
C62    C     0.25040   0.37900   0.52330   0.01267  Uiso   1.00
C63    C     0.45640   0.64000   0.43560   0.01267  Uiso   1.00
C64    C     0.28190   0.72760   0.43420   0.01267  Uiso   1.00
C65    C     0.29250   0.81700   0.46260   0.01267  Uiso   1.00
C66    C     0.06570   0.43600   0.60420   0.01267  Uiso   1.00
C67    C     0.96370   0.52520   0.63880   0.01267  Uiso   1.00
C68    C     0.93290   0.64440   0.62770   0.01267  Uiso   1.00
C69    C     0.90100   0.48700   0.68750   0.01267  Uiso   1.00
C70    C     0.56260   0.53020   0.67510   0.01267  Uiso   1.00
C71    C     0.43010   0.47280   0.68350   0.01267  Uiso   1.00
C72    C     0.52430   0.36620   0.70410   0.01267  Uiso   1.00
N1     N     0.56790   0.06740   0.08570   0.01267  Uiso   1.00
N2     N     0.71750   0.09680   0.09960   0.01267  Uiso   1.00
N3     N     0.23590   0.32120   0.96320   0.01267  Uiso   1.00
N4     N     0.24850   0.20900   0.98020   0.01267  Uiso   1.00
N5     N     0.18000   0.54180   0.18840   0.01267  Uiso   1.00
N6     N     0.05970   0.64660   0.20890   0.01267  Uiso   1.00
N7     N     0.36470   0.06740   0.41430   0.01267  Uiso   1.00
N8     N     0.18570   0.09680   0.40040   0.01267  Uiso   1.00
N9     N     0.44290   0.32120   0.53680   0.01267  Uiso   1.00
N10    N     0.54250   0.20900   0.51980   0.01267  Uiso   1.00
N11    N     0.27820   0.54180   0.31160   0.01267  Uiso   1.00
N12    N     0.29370   0.64660   0.29110   0.01267  Uiso   1.00
N13    N     0.43210   0.93260   0.91430   0.01267  Uiso   1.00
N14    N     0.28250   0.90320   0.90040   0.01267  Uiso   1.00
N15    N     0.76410   0.67880   0.03680   0.01267  Uiso   1.00
N16    N     0.75150   0.79100   0.01980   0.01267  Uiso   1.00
N17    N     0.82000   0.45820   0.81160   0.01267  Uiso   1.00
N18    N     0.94030   0.35340   0.79110   0.01267  Uiso   1.00
N19    N     0.63530   0.93260   0.58570   0.01267  Uiso   1.00
N20    N     0.81430   0.90320   0.59960   0.01267  Uiso   1.00
N21    N     0.55710   0.67880   0.46320   0.01267  Uiso   1.00
N22    N     0.45750   0.79100   0.48020   0.01267  Uiso   1.00
N23    N     0.72180   0.45820   0.68840   0.01267  Uiso   1.00
N24    N     0.70630   0.35340   0.70890   0.01267  Uiso   1.00
Cl1    Cl    0.30153   0.85554   0.20950   0.01267  Uiso   1.00
Cl2    Cl    0.19758   0.26624   0.08367   0.01267  Uiso   1.00
Cl3    Cl    0.67717   0.06366   0.97294   0.01267  Uiso   1.00
Cl4    Cl    0.84293   0.85554   0.29050   0.01267  Uiso   1.00
Cl5    Cl    0.53618   0.26624   0.41633   0.01267  Uiso   1.00
Cl6    Cl    0.25917   0.06366   0.52706   0.01267  Uiso   1.00
Cl7    Cl    0.69847   0.14446   0.79050   0.01267  Uiso   1.00
Cl8    Cl    0.80242   0.73376   0.91633   0.01267  Uiso   1.00
Cl9    Cl    0.32283   0.93634   0.02706   0.01267  Uiso   1.00
Cl10   Cl    0.15707   0.14446   0.70950   0.01267  Uiso   1.00
Cl11   Cl    0.46382   0.73376   0.58367   0.01267  Uiso   1.00
Cl12   Cl    0.74083   0.93634   0.47294   0.01267  Uiso   1.00
