data_image0
_cell_length_a       12.13
_cell_length_b       12.13
_cell_length_c       30.555
_cell_angle_alpha    90
_cell_angle_beta     90
_cell_angle_gamma    90

_symmetry_space_group_name_H-M    "P 1"
_symmetry_int_tables_number       1

loop_
  _symmetry_equiv_pos_as_xyz
  'x, y, z'

loop_
  _atom_site_label
  _atom_site_occupancy
  _atom_site_fract_x
  _atom_site_fract_y
  _atom_site_fract_z
  _atom_site_thermal_displace_type
  _atom_site_B_iso_or_equiv
  _atom_site_type_symbol
  V1       1.0000 0.50270  0.76940  0.37710  Biso   1.000  V
  V2       1.0000 0.56560  0.63500  0.27210  Biso   1.000  V
  V3       1.0000 0.40800  0.85810  0.48800  Biso   1.000  V
  V4       1.0000 0.76450  0.48590  0.30160  Biso   1.000  V
  V5       1.0000 0.23890  0.01240  0.43950  Biso   1.000  V
  V6       1.0000 0.00310  0.77110  0.36340  Biso   1.000  V
  V7       1.0000 0.36520  0.06090  0.21780  Biso   1.000  V
  V8       1.0000 0.91140  0.85760  0.25370  Biso   1.000  V
  V9       1.0000 0.74220  0.01460  0.30000  Biso   1.000  V
  V10      1.0000 0.25960  0.48500  0.44060  Biso   1.000  V
  P1       1.0000 0.50240  0.60630  0.45710  Biso   1.000  P
  P2       1.0000 0.75260  0.75120  0.32980  Biso   1.000  P
  P3       1.0000 0.50020  0.89170  0.28340  Biso   1.000  P
  P4       1.0000 0.25090  0.75120  0.41260  Biso   1.000  P
  P5       1.0000 0.60700  0.99250  0.53580  Biso   1.000  P
  P6       1.0000 0.75230  0.25100  0.24650  Biso   1.000  P
  P7       1.0000 0.99570  0.89290  0.45680  Biso   1.000  P
  O1       1.0000 0.50140  0.86170  0.41550  Biso   1.000  O
  O2       1.0000 0.50300  0.64060  0.31970  Biso   1.000  O
  O3       1.0000 0.74430  0.45430  0.35210  Biso   1.000  O
  O4       1.0000 0.25580  0.03840  0.38940  Biso   1.000  O
  O5       1.0000 0.61970  0.48250  0.27420  Biso   1.000  O
  O6       1.0000 0.37240  0.01060  0.47550  Biso   1.000  O
  O7       1.0000 0.00380  0.86000  0.32500  Biso   1.000  O
  O8       1.0000 0.36540  0.99980  0.17090  Biso   1.000  O
  O9       1.0000 0.23960  0.45380  0.39210  Biso   1.000  O
  O10      1.0000 0.76740  0.04790  0.35020  Biso   1.000  O
  O11      1.0000 0.51030  0.12770  0.22530  Biso   1.000  O
  O12      1.0000 0.88310  0.01520  0.27130  Biso   1.000  O
  O13      1.0000 0.54920  0.63730  0.41180  Biso   1.000  O
  O14      1.0000 0.59910  0.55260  0.48180  Biso   1.000  O
  O15      1.0000 0.46000  0.70570  0.48340  Biso   1.000  O
  O16      1.0000 0.41240  0.52020  0.45380  Biso   1.000  O
  O17      1.0000 0.65770  0.78570  0.35820  Biso   1.000  O
  O18      1.0000 0.72020  0.65180  0.29970  Biso   1.000  O
  O19      1.0000 0.85020  0.71740  0.35690  Biso   1.000  O
  O20      1.0000 0.78240  0.84630  0.29710  Biso   1.000  O
  O21      1.0000 0.44830  0.85520  0.32660  Biso   1.000  O
  O22      1.0000 0.55180  0.79370  0.26000  Biso   1.000  O
  O23      1.0000 0.40580  0.93580  0.25470  Biso   1.000  O
  O24      1.0000 0.58810  0.98260  0.29120  Biso   1.000  O
  O25      1.0000 0.34740  0.71370  0.38450  Biso   1.000  O
  O26      1.0000 0.28380  0.84870  0.44320  Biso   1.000  O
  O27      1.0000 0.15670  0.79450  0.38520  Biso   1.000  O
  O28      1.0000 0.21520  0.65060  0.44070  Biso   1.000  O
  O29      1.0000 0.56000  0.90030  0.50710  Biso   1.000  O
  O30      1.0000 0.51720  0.08140  0.54380  Biso   1.000  O
  O31      1.0000 0.64760  0.94140  0.57860  Biso   1.000  O
  O32      1.0000 0.70350  0.04080  0.51090  Biso   1.000  O
  O33      1.0000 0.80000  0.34120  0.27740  Biso   1.000  O
  O34      1.0000 0.84450  0.20300  0.21980  Biso   1.000  O
  O35      1.0000 0.65440  0.29990  0.22170  Biso   1.000  O
  O36      1.0000 0.70710  0.16070  0.27800  Biso   1.000  O
  O37      1.0000 0.08650  0.97910  0.45500  Biso   1.000  O
  O38      1.0000 0.94800  0.86510  0.41180  Biso   1.000  O
  O39      1.0000 0.03760  0.79310  0.48300  Biso   1.000  O
  O40      1.0000 0.89960  0.94430  0.48290  Biso   1.000  O
  K1       1.0000 0.41050  0.77510  0.18030  Biso   1.000  K
  K2       1.0000 0.43920  0.29050  0.06720  Biso   1.000  K
  K3       1.0000 0.07280  0.22980  0.06190  Biso   1.000  K
  K4       1.0000 0.04630  0.70960  0.17400  Biso   1.000  K
  V11      1.0000 0.49730  0.23060  0.87710  Biso   1.000  V
  V12      1.0000 0.43440  0.36500  0.77210  Biso   1.000  V
  V13      1.0000 0.59200  0.14190  0.98800  Biso   1.000  V
  V14      1.0000 0.23550  0.51410  0.80160  Biso   1.000  V
  V15      1.0000 0.76110  0.98760  0.93950  Biso   1.000  V
  V16      1.0000 0.99690  0.22890  0.86340  Biso   1.000  V
  V17      1.0000 0.63480  0.93910  0.71780  Biso   1.000  V
  V18      1.0000 0.08860  0.14240  0.75370  Biso   1.000  V
  V19      1.0000 0.25780  0.98540  0.80000  Biso   1.000  V
  V20      1.0000 0.74040  0.51500  0.94060  Biso   1.000  V
  P8       1.0000 0.49760  0.39370  0.95710  Biso   1.000  P
  P9       1.0000 0.24740  0.24880  0.82980  Biso   1.000  P
  P10      1.0000 0.49980  0.10830  0.78340  Biso   1.000  P
  P11      1.0000 0.74910  0.24880  0.91260  Biso   1.000  P
  P12      1.0000 0.39300  0.00750  0.03580  Biso   1.000  P
  P13      1.0000 0.24770  0.74900  0.74650  Biso   1.000  P
  P14      1.0000 0.00430  0.10710  0.95680  Biso   1.000  P
  O41      1.0000 0.49860  0.13830  0.91550  Biso   1.000  O
  O42      1.0000 0.49700  0.35940  0.81970  Biso   1.000  O
  O43      1.0000 0.25570  0.54570  0.85210  Biso   1.000  O
  O44      1.0000 0.74420  0.96160  0.88940  Biso   1.000  O
  O45      1.0000 0.38030  0.51750  0.77420  Biso   1.000  O
  O46      1.0000 0.62760  0.98940  0.97550  Biso   1.000  O
  O47      1.0000 0.99620  0.14000  0.82500  Biso   1.000  O
  O48      1.0000 0.63460  0.00020  0.67090  Biso   1.000  O
  O49      1.0000 0.76040  0.54620  0.89210  Biso   1.000  O
  O50      1.0000 0.23260  0.95210  0.85020  Biso   1.000  O
  O51      1.0000 0.48970  0.87230  0.72530  Biso   1.000  O
  O52      1.0000 0.11690  0.98480  0.77130  Biso   1.000  O
  O53      1.0000 0.45080  0.36270  0.91180  Biso   1.000  O
  O54      1.0000 0.40090  0.44740  0.98180  Biso   1.000  O
  O55      1.0000 0.54000  0.29430  0.98340  Biso   1.000  O
  O56      1.0000 0.58760  0.47980  0.95380  Biso   1.000  O
  O57      1.0000 0.34230  0.21430  0.85820  Biso   1.000  O
  O58      1.0000 0.27980  0.34820  0.79970  Biso   1.000  O
  O59      1.0000 0.14980  0.28260  0.85690  Biso   1.000  O
  O60      1.0000 0.21760  0.15370  0.79710  Biso   1.000  O
  O61      1.0000 0.55170  0.14480  0.82660  Biso   1.000  O
  O62      1.0000 0.44820  0.20630  0.76000  Biso   1.000  O
  O63      1.0000 0.59420  0.06420  0.75470  Biso   1.000  O
  O64      1.0000 0.41190  0.01740  0.79120  Biso   1.000  O
  O65      1.0000 0.65260  0.28630  0.88450  Biso   1.000  O
  O66      1.0000 0.71620  0.15130  0.94320  Biso   1.000  O
  O67      1.0000 0.84330  0.20550  0.88520  Biso   1.000  O
  O68      1.0000 0.78480  0.34940  0.94070  Biso   1.000  O
  O69      1.0000 0.44000  0.09970  0.00710  Biso   1.000  O
  O70      1.0000 0.48280  0.91860  0.04380  Biso   1.000  O
  O71      1.0000 0.35240  0.05860  0.07860  Biso   1.000  O
  O72      1.0000 0.29650  0.95920  0.01090  Biso   1.000  O
  O73      1.0000 0.20000  0.65880  0.77740  Biso   1.000  O
  O74      1.0000 0.15550  0.79700  0.71980  Biso   1.000  O
  O75      1.0000 0.34560  0.70010  0.72170  Biso   1.000  O
  O76      1.0000 0.29290  0.83930  0.77800  Biso   1.000  O
  O77      1.0000 0.91350  0.02090  0.95500  Biso   1.000  O
  O78      1.0000 0.05200  0.13490  0.91180  Biso   1.000  O
  O79      1.0000 0.96240  0.20690  0.98300  Biso   1.000  O
  O80      1.0000 0.10040  0.05570  0.98290  Biso   1.000  O
  K5       1.0000 0.58950  0.22490  0.68030  Biso   1.000  K
  K6       1.0000 0.56080  0.70950  0.56720  Biso   1.000  K
  K7       1.0000 0.92720  0.77020  0.56190  Biso   1.000  K
  K8       1.0000 0.95370  0.29040  0.67400  Biso   1.000  K
  V21      1.0000 0.23060  0.50270  0.12710  Biso   1.000  V
  V22      1.0000 0.36500  0.56560  0.02210  Biso   1.000  V
  V23      1.0000 0.14190  0.40800  0.23800  Biso   1.000  V
  V24      1.0000 0.51410  0.76450  0.05160  Biso   1.000  V
  V25      1.0000 0.98760  0.23890  0.18950  Biso   1.000  V
  V26      1.0000 0.22890  0.00310  0.11340  Biso   1.000  V
  V27      1.0000 0.93910  0.36520  0.96780  Biso   1.000  V
  V28      1.0000 0.14240  0.91140  0.00370  Biso   1.000  V
  V29      1.0000 0.98540  0.74220  0.05000  Biso   1.000  V
  V30      1.0000 0.51500  0.25960  0.19060  Biso   1.000  V
  P15      1.0000 0.39370  0.50240  0.20710  Biso   1.000  P
  P16      1.0000 0.24880  0.75260  0.07980  Biso   1.000  P
  P17      1.0000 0.10830  0.50020  0.03340  Biso   1.000  P
  P18      1.0000 0.24880  0.25090  0.16260  Biso   1.000  P
  P19      1.0000 0.00750  0.60700  0.28580  Biso   1.000  P
  P20      1.0000 0.74900  0.75230  0.99650  Biso   1.000  P
  P21      1.0000 0.10710  0.99570  0.20680  Biso   1.000  P
  O81      1.0000 0.13830  0.50140  0.16550  Biso   1.000  O
  O82      1.0000 0.35940  0.50300  0.06970  Biso   1.000  O
  O83      1.0000 0.54570  0.74430  0.10210  Biso   1.000  O
  O84      1.0000 0.96160  0.25580  0.13940  Biso   1.000  O
  O85      1.0000 0.51750  0.61970  0.02420  Biso   1.000  O
  O86      1.0000 0.98940  0.37240  0.22550  Biso   1.000  O
  O87      1.0000 0.14000  0.00380  0.07500  Biso   1.000  O
  O88      1.0000 0.00020  0.36540  0.92090  Biso   1.000  O
  O89      1.0000 0.54620  0.23960  0.14210  Biso   1.000  O
  O90      1.0000 0.95210  0.76740  0.10020  Biso   1.000  O
  O91      1.0000 0.87230  0.51030  0.97530  Biso   1.000  O
  O92      1.0000 0.98480  0.88310  0.02130  Biso   1.000  O
  O93      1.0000 0.36270  0.54920  0.16180  Biso   1.000  O
  O94      1.0000 0.44740  0.59910  0.23180  Biso   1.000  O
  O95      1.0000 0.29430  0.46000  0.23340  Biso   1.000  O
  O96      1.0000 0.47980  0.41240  0.20380  Biso   1.000  O
  O97      1.0000 0.21430  0.65770  0.10820  Biso   1.000  O
  O98      1.0000 0.34820  0.72020  0.04970  Biso   1.000  O
  O99      1.0000 0.28260  0.85020  0.10690  Biso   1.000  O
  O100     1.0000 0.15370  0.78240  0.04710  Biso   1.000  O
  O101     1.0000 0.14480  0.44830  0.07660  Biso   1.000  O
  O102     1.0000 0.20630  0.55180  0.01000  Biso   1.000  O
  O103     1.0000 0.06420  0.40580  0.00470  Biso   1.000  O
  O104     1.0000 0.01740  0.58810  0.04120  Biso   1.000  O
  O105     1.0000 0.28630  0.34740  0.13450  Biso   1.000  O
  O106     1.0000 0.15130  0.28380  0.19320  Biso   1.000  O
  O107     1.0000 0.20550  0.15670  0.13520  Biso   1.000  O
  O108     1.0000 0.34940  0.21520  0.19070  Biso   1.000  O
  O109     1.0000 0.09970  0.56000  0.25710  Biso   1.000  O
  O110     1.0000 0.91860  0.51720  0.29380  Biso   1.000  O
  O111     1.0000 0.05860  0.64760  0.32860  Biso   1.000  O
  O112     1.0000 0.95920  0.70350  0.26090  Biso   1.000  O
  O113     1.0000 0.65880  0.80000  0.02740  Biso   1.000  O
  O114     1.0000 0.79700  0.84450  0.96980  Biso   1.000  O
  O115     1.0000 0.70010  0.65440  0.97170  Biso   1.000  O
  O116     1.0000 0.83930  0.70710  0.02800  Biso   1.000  O
  O117     1.0000 0.02090  0.08650  0.20500  Biso   1.000  O
  O118     1.0000 0.13490  0.94800  0.16180  Biso   1.000  O
  O119     1.0000 0.20690  0.03760  0.23300  Biso   1.000  O
  O120     1.0000 0.05570  0.89960  0.23290  Biso   1.000  O
  K9       1.0000 0.22490  0.41050  0.93030  Biso   1.000  K
  K10      1.0000 0.70950  0.43920  0.81720  Biso   1.000  K
  K11      1.0000 0.77020  0.07280  0.81190  Biso   1.000  K
  K12      1.0000 0.29040  0.04630  0.92400  Biso   1.000  K
  V31      1.0000 0.76940  0.49730  0.62710  Biso   1.000  V
  V32      1.0000 0.63500  0.43440  0.52210  Biso   1.000  V
  V33      1.0000 0.85810  0.59200  0.73800  Biso   1.000  V
  V34      1.0000 0.48590  0.23550  0.55160  Biso   1.000  V
  V35      1.0000 0.01240  0.76110  0.68950  Biso   1.000  V
  V36      1.0000 0.77110  0.99690  0.61340  Biso   1.000  V
  V37      1.0000 0.06090  0.63480  0.46780  Biso   1.000  V
  V38      1.0000 0.85760  0.08860  0.50370  Biso   1.000  V
  V39      1.0000 0.01460  0.25780  0.55000  Biso   1.000  V
  V40      1.0000 0.48500  0.74040  0.69060  Biso   1.000  V
  P22      1.0000 0.60630  0.49760  0.70710  Biso   1.000  P
  P23      1.0000 0.75120  0.24740  0.57980  Biso   1.000  P
  P24      1.0000 0.89170  0.49980  0.53340  Biso   1.000  P
  P25      1.0000 0.75120  0.74910  0.66260  Biso   1.000  P
  P26      1.0000 0.99250  0.39300  0.78580  Biso   1.000  P
  P27      1.0000 0.25100  0.24770  0.49650  Biso   1.000  P
  P28      1.0000 0.89290  0.00430  0.70680  Biso   1.000  P
  O121     1.0000 0.86170  0.49860  0.66550  Biso   1.000  O
  O122     1.0000 0.64060  0.49700  0.56970  Biso   1.000  O
  O123     1.0000 0.45430  0.25570  0.60210  Biso   1.000  O
  O124     1.0000 0.03840  0.74420  0.63940  Biso   1.000  O
  O125     1.0000 0.48250  0.38030  0.52420  Biso   1.000  O
  O126     1.0000 0.01060  0.62760  0.72550  Biso   1.000  O
  O127     1.0000 0.86000  0.99620  0.57500  Biso   1.000  O
  O128     1.0000 0.99980  0.63460  0.42090  Biso   1.000  O
  O129     1.0000 0.45380  0.76040  0.64210  Biso   1.000  O
  O130     1.0000 0.04790  0.23260  0.60020  Biso   1.000  O
  O131     1.0000 0.12770  0.48970  0.47530  Biso   1.000  O
  O132     1.0000 0.01520  0.11690  0.52130  Biso   1.000  O
  O133     1.0000 0.63730  0.45080  0.66180  Biso   1.000  O
  O134     1.0000 0.55260  0.40090  0.73180  Biso   1.000  O
  O135     1.0000 0.70570  0.54000  0.73340  Biso   1.000  O
  O136     1.0000 0.52020  0.58760  0.70380  Biso   1.000  O
  O137     1.0000 0.78570  0.34230  0.60820  Biso   1.000  O
  O138     1.0000 0.65180  0.27980  0.54970  Biso   1.000  O
  O139     1.0000 0.71740  0.14980  0.60690  Biso   1.000  O
  O140     1.0000 0.84630  0.21760  0.54710  Biso   1.000  O
  O141     1.0000 0.85520  0.55170  0.57660  Biso   1.000  O
  O142     1.0000 0.79370  0.44820  0.51000  Biso   1.000  O
  O143     1.0000 0.93580  0.59420  0.50470  Biso   1.000  O
  O144     1.0000 0.98260  0.41190  0.54120  Biso   1.000  O
  O145     1.0000 0.71370  0.65260  0.63450  Biso   1.000  O
  O146     1.0000 0.84870  0.71620  0.69320  Biso   1.000  O
  O147     1.0000 0.79450  0.84330  0.63520  Biso   1.000  O
  O148     1.0000 0.65060  0.78480  0.69070  Biso   1.000  O
  O149     1.0000 0.90030  0.44000  0.75710  Biso   1.000  O
  O150     1.0000 0.08140  0.48280  0.79380  Biso   1.000  O
  O151     1.0000 0.94140  0.35240  0.82860  Biso   1.000  O
  O152     1.0000 0.04080  0.29650  0.76090  Biso   1.000  O
  O153     1.0000 0.34120  0.20000  0.52740  Biso   1.000  O
  O154     1.0000 0.20300  0.15550  0.46980  Biso   1.000  O
  O155     1.0000 0.29990  0.34560  0.47170  Biso   1.000  O
  O156     1.0000 0.16070  0.29290  0.52800  Biso   1.000  O
  O157     1.0000 0.97910  0.91350  0.70500  Biso   1.000  O
  O158     1.0000 0.86510  0.05200  0.66180  Biso   1.000  O
  O159     1.0000 0.79310  0.96240  0.73300  Biso   1.000  O
  O160     1.0000 0.94430  0.10040  0.73290  Biso   1.000  O
  K13      1.0000 0.77510  0.58950  0.43030  Biso   1.000  K
  K14      1.0000 0.29050  0.56080  0.31720  Biso   1.000  K
  K15      1.0000 0.22980  0.92720  0.31190  Biso   1.000  K
  K16      1.0000 0.70960  0.95370  0.42400  Biso   1.000  K
