data_image0
_cell_length_a       19.113
_cell_length_b       18.617
_cell_length_c       15.959
_cell_angle_alpha    90
_cell_angle_beta     90
_cell_angle_gamma    90

_symmetry_space_group_name_H-M    "P 1"
_symmetry_int_tables_number       1

loop_
  _symmetry_equiv_pos_as_xyz
  'x, y, z'

loop_
  _atom_site_label
  _atom_site_occupancy
  _atom_site_fract_x
  _atom_site_fract_y
  _atom_site_fract_z
  _atom_site_thermal_displace_type
  _atom_site_B_iso_or_equiv
  _atom_site_type_symbol
  Mo1      1.0000 0.42039  0.90974  0.14083  Biso   1.000  Mo
  Mo2      1.0000 0.46992  0.83938  0.32244  Biso   1.000  Mo
  Mo3      1.0000 0.49130  0.83691  0.94374  Biso   1.000  Mo
  Cu1      1.0000 0.55773  0.02130  0.21896  Biso   1.000  Cu
  O1       1.0000 0.48880  0.97080  0.14940  Biso   1.000  O
  O2       1.0000 0.40900  0.89800  0.25970  Biso   1.000  O
  O3       1.0000 0.45030  0.88000  0.86300  Biso   1.000  O
  O4       1.0000 0.49810  0.81780  0.17960  Biso   1.000  O
  O5       1.0000 0.44020  0.87680  0.03280  Biso   1.000  O
  O6       1.0000 0.85270  0.68430  0.35630  Biso   1.000  O
  N1       1.0000 0.64040  0.98570  0.15940  Biso   1.000  N
  N2       1.0000 0.48920  0.05450  0.30050  Biso   1.000  N
  N3       1.0000 0.62790  0.04620  0.31070  Biso   1.000  N
  C1       1.0000 0.64700  0.97510  0.07730  Biso   1.000  C
  H1       1.0000 0.60800  0.98320  0.04160  Biso   1.000  H
  C2       1.0000 0.69560  0.97760  0.21040  Biso   1.000  C
  C3       1.0000 0.76120  0.95700  0.17960  Biso   1.000  C
  H2       1.0000 0.80050  0.95230  0.21570  Biso   1.000  H
  C4       1.0000 0.68320  0.98960  0.30200  Biso   1.000  C
  H3       1.0000 0.72690  0.00550  0.32960  Biso   1.000  H
  H4       1.0000 0.66760  0.94440  0.32890  Biso   1.000  H
  C5       1.0000 0.66020  0.11820  0.29890  Biso   1.000  C
  H5       1.0000 0.69840  0.12340  0.34040  Biso   1.000  H
  H6       1.0000 0.68170  0.11960  0.24260  Biso   1.000  H
  C6       1.0000 0.61320  0.18110  0.30710  Biso   1.000  C
  H7       1.0000 0.59430  0.18380  0.36480  Biso   1.000  H
  H8       1.0000 0.57340  0.17660  0.26770  Biso   1.000  H
  C7       1.0000 0.42260  0.07180  0.28440  Biso   1.000  C
  H9       1.0000 0.40660  0.07050  0.22800  Biso   1.000  H
  C8       1.0000 0.37710  0.09120  0.34580  Biso   1.000  C
  H10      1.0000 0.32930  0.10050  0.33330  Biso   1.000  H
  C9       1.0000 0.76650  0.94380  0.09460  Biso   1.000  C
  H11      1.0000 0.80990  0.92850  0.07180  Biso   1.000  H
  C10      1.0000 0.71000  0.95250  0.04300  Biso   1.000  C
  H12      1.0000 0.71380  0.94320  0.98460  Biso   1.000  H
  C11      1.0000 0.51430  0.06020  0.37910  Biso   1.000  C
  C12      1.0000 0.58960  0.04230  0.39130  Biso   1.000  C
  H13      1.0000 0.61070  0.07630  0.43170  Biso   1.000  H
  H14      1.0000 0.59380  0.99330  0.41480  Biso   1.000  H
  C13      1.0000 0.47140  0.08130  0.44310  Biso   1.000  C
  H15      1.0000 0.48950  0.08510  0.49830  Biso   1.000  H
  C14      1.0000 0.40230  0.09710  0.42830  Biso   1.000  C
  H16      1.0000 0.37230  0.11160  0.47260  Biso   1.000  H
  C15      1.0000 0.74350  0.78360  0.18490  Biso   1.000  C
  C16      1.0000 0.65870  0.79700  0.17400  Biso   1.000  C
  Mo4      1.0000 0.07961  0.09026  0.64083  Biso   1.000  Mo
  Mo5      1.0000 0.03008  0.16062  0.82244  Biso   1.000  Mo
  Mo6      1.0000 0.00870  0.16309  0.44374  Biso   1.000  Mo
  Cu2      1.0000 0.94227  0.97870  0.71896  Biso   1.000  Cu
  O7       1.0000 0.01120  0.02920  0.64940  Biso   1.000  O
  O8       1.0000 0.09100  0.10200  0.75970  Biso   1.000  O
  O9       1.0000 0.04970  0.12000  0.36300  Biso   1.000  O
  O10      1.0000 0.00190  0.18220  0.67960  Biso   1.000  O
  O11      1.0000 0.05980  0.12320  0.53280  Biso   1.000  O
  O12      1.0000 0.64730  0.31570  0.85630  Biso   1.000  O
  N4       1.0000 0.85960  0.01430  0.65940  Biso   1.000  N
  N5       1.0000 0.01080  0.94550  0.80050  Biso   1.000  N
  N6       1.0000 0.87210  0.95380  0.81070  Biso   1.000  N
  C17      1.0000 0.85300  0.02490  0.57730  Biso   1.000  C
  H17      1.0000 0.89200  0.01680  0.54160  Biso   1.000  H
  C18      1.0000 0.80440  0.02240  0.71040  Biso   1.000  C
  C19      1.0000 0.73880  0.04300  0.67960  Biso   1.000  C
  H18      1.0000 0.69950  0.04770  0.71570  Biso   1.000  H
  C20      1.0000 0.81680  0.01040  0.80200  Biso   1.000  C
  H19      1.0000 0.77310  0.99450  0.82960  Biso   1.000  H
  H20      1.0000 0.83240  0.05560  0.82890  Biso   1.000  H
  C21      1.0000 0.83980  0.88180  0.79890  Biso   1.000  C
  H21      1.0000 0.80160  0.87660  0.84040  Biso   1.000  H
  H22      1.0000 0.81830  0.88040  0.74260  Biso   1.000  H
  C22      1.0000 0.88680  0.81890  0.80710  Biso   1.000  C
  H23      1.0000 0.90570  0.81620  0.86480  Biso   1.000  H
  H24      1.0000 0.92660  0.82340  0.76770  Biso   1.000  H
  C23      1.0000 0.07740  0.92820  0.78440  Biso   1.000  C
  H25      1.0000 0.09340  0.92950  0.72800  Biso   1.000  H
  C24      1.0000 0.12290  0.90880  0.84580  Biso   1.000  C
  H26      1.0000 0.17070  0.89950  0.83330  Biso   1.000  H
  C25      1.0000 0.73350  0.05620  0.59460  Biso   1.000  C
  H27      1.0000 0.69010  0.07150  0.57180  Biso   1.000  H
  C26      1.0000 0.79000  0.04750  0.54300  Biso   1.000  C
  H28      1.0000 0.78620  0.05680  0.48460  Biso   1.000  H
  C27      1.0000 0.98570  0.93980  0.87910  Biso   1.000  C
  C28      1.0000 0.91040  0.95770  0.89130  Biso   1.000  C
  H29      1.0000 0.88930  0.92370  0.93170  Biso   1.000  H
  H30      1.0000 0.90620  0.00670  0.91480  Biso   1.000  H
  C29      1.0000 0.02860  0.91870  0.94310  Biso   1.000  C
  H31      1.0000 0.01050  0.91490  0.99830  Biso   1.000  H
  C30      1.0000 0.09770  0.90290  0.92830  Biso   1.000  C
  H32      1.0000 0.12770  0.88840  0.97260  Biso   1.000  H
  C31      1.0000 0.75650  0.21640  0.68490  Biso   1.000  C
  C32      1.0000 0.84130  0.20300  0.67400  Biso   1.000  C
  Mo7      1.0000 0.57961  0.40974  0.85917  Biso   1.000  Mo
  Mo8      1.0000 0.53008  0.33938  0.67756  Biso   1.000  Mo
  Mo9      1.0000 0.50870  0.33691  0.05626  Biso   1.000  Mo
  Cu3      1.0000 0.44227  0.52130  0.78104  Biso   1.000  Cu
  O13      1.0000 0.51120  0.47080  0.85060  Biso   1.000  O
  O14      1.0000 0.59100  0.39800  0.74030  Biso   1.000  O
  O15      1.0000 0.54970  0.38000  0.13700  Biso   1.000  O
  O16      1.0000 0.50190  0.31780  0.82040  Biso   1.000  O
  O17      1.0000 0.55980  0.37680  0.96720  Biso   1.000  O
  O18      1.0000 0.14730  0.18430  0.64370  Biso   1.000  O
  N7       1.0000 0.35960  0.48570  0.84060  Biso   1.000  N
  N8       1.0000 0.51080  0.55450  0.69950  Biso   1.000  N
  N9       1.0000 0.37210  0.54620  0.68930  Biso   1.000  N
  C33      1.0000 0.35300  0.47510  0.92270  Biso   1.000  C
  H33      1.0000 0.39200  0.48320  0.95840  Biso   1.000  H
  C34      1.0000 0.30440  0.47760  0.78960  Biso   1.000  C
  C35      1.0000 0.23880  0.45700  0.82040  Biso   1.000  C
  H34      1.0000 0.19950  0.45230  0.78430  Biso   1.000  H
  C36      1.0000 0.31680  0.48960  0.69800  Biso   1.000  C
  H35      1.0000 0.27310  0.50550  0.67040  Biso   1.000  H
  H36      1.0000 0.33240  0.44440  0.67110  Biso   1.000  H
  C37      1.0000 0.33980  0.61820  0.70110  Biso   1.000  C
  H37      1.0000 0.30160  0.62340  0.65960  Biso   1.000  H
  H38      1.0000 0.31830  0.61960  0.75740  Biso   1.000  H
  C38      1.0000 0.38680  0.68110  0.69290  Biso   1.000  C
  H39      1.0000 0.40570  0.68380  0.63520  Biso   1.000  H
  H40      1.0000 0.42660  0.67660  0.73230  Biso   1.000  H
  C39      1.0000 0.57740  0.57180  0.71560  Biso   1.000  C
  H41      1.0000 0.59340  0.57050  0.77200  Biso   1.000  H
  C40      1.0000 0.62290  0.59120  0.65420  Biso   1.000  C
  H42      1.0000 0.67070  0.60050  0.66670  Biso   1.000  H
  C41      1.0000 0.23350  0.44380  0.90540  Biso   1.000  C
  H43      1.0000 0.19010  0.42850  0.92820  Biso   1.000  H
  C42      1.0000 0.29000  0.45250  0.95700  Biso   1.000  C
  H44      1.0000 0.28620  0.44320  0.01540  Biso   1.000  H
  C43      1.0000 0.48570  0.56020  0.62090  Biso   1.000  C
  C44      1.0000 0.41040  0.54230  0.60870  Biso   1.000  C
  H45      1.0000 0.38930  0.57630  0.56830  Biso   1.000  H
  H46      1.0000 0.40620  0.49330  0.58520  Biso   1.000  H
  C45      1.0000 0.52860  0.58130  0.55690  Biso   1.000  C
  H47      1.0000 0.51050  0.58510  0.50170  Biso   1.000  H
  C46      1.0000 0.59770  0.59710  0.57170  Biso   1.000  C
  H48      1.0000 0.62770  0.61160  0.52740  Biso   1.000  H
  C47      1.0000 0.25650  0.28360  0.81510  Biso   1.000  C
  C48      1.0000 0.34130  0.29700  0.82600  Biso   1.000  C
  Mo10     1.0000 0.92039  0.59026  0.35917  Biso   1.000  Mo
  Mo11     1.0000 0.96992  0.66062  0.17756  Biso   1.000  Mo
  Mo12     1.0000 0.99130  0.66309  0.55626  Biso   1.000  Mo
  Cu4      1.0000 0.05773  0.47870  0.28104  Biso   1.000  Cu
  O19      1.0000 0.98880  0.52920  0.35060  Biso   1.000  O
  O20      1.0000 0.90900  0.60200  0.24030  Biso   1.000  O
  O21      1.0000 0.95030  0.62000  0.63700  Biso   1.000  O
  O22      1.0000 0.99810  0.68220  0.32040  Biso   1.000  O
  O23      1.0000 0.94020  0.62320  0.46720  Biso   1.000  O
  O24      1.0000 0.35270  0.81570  0.14370  Biso   1.000  O
  N10      1.0000 0.14040  0.51430  0.34060  Biso   1.000  N
  N11      1.0000 0.98920  0.44550  0.19950  Biso   1.000  N
  N12      1.0000 0.12790  0.45380  0.18930  Biso   1.000  N
  C49      1.0000 0.14700  0.52490  0.42270  Biso   1.000  C
  H49      1.0000 0.10800  0.51680  0.45840  Biso   1.000  H
  C50      1.0000 0.19560  0.52240  0.28960  Biso   1.000  C
  C51      1.0000 0.26120  0.54300  0.32040  Biso   1.000  C
  H50      1.0000 0.30050  0.54770  0.28430  Biso   1.000  H
  C52      1.0000 0.18320  0.51040  0.19800  Biso   1.000  C
  H51      1.0000 0.22690  0.49450  0.17040  Biso   1.000  H
  H52      1.0000 0.16760  0.55560  0.17110  Biso   1.000  H
  C53      1.0000 0.16020  0.38180  0.20110  Biso   1.000  C
  H53      1.0000 0.19840  0.37660  0.15960  Biso   1.000  H
  H54      1.0000 0.18170  0.38040  0.25740  Biso   1.000  H
  C54      1.0000 0.11320  0.31890  0.19290  Biso   1.000  C
  H55      1.0000 0.09430  0.31620  0.13520  Biso   1.000  H
  H56      1.0000 0.07340  0.32340  0.23230  Biso   1.000  H
  C55      1.0000 0.92260  0.42820  0.21560  Biso   1.000  C
  H57      1.0000 0.90660  0.42950  0.27200  Biso   1.000  H
  C56      1.0000 0.87710  0.40880  0.15420  Biso   1.000  C
  H58      1.0000 0.82930  0.39950  0.16670  Biso   1.000  H
  C57      1.0000 0.26650  0.55620  0.40540  Biso   1.000  C
  H59      1.0000 0.30990  0.57150  0.42820  Biso   1.000  H
  C58      1.0000 0.21000  0.54750  0.45700  Biso   1.000  C
  H60      1.0000 0.21380  0.55680  0.51540  Biso   1.000  H
  C59      1.0000 0.01430  0.43980  0.12090  Biso   1.000  C
  C60      1.0000 0.08960  0.45770  0.10870  Biso   1.000  C
  H61      1.0000 0.11070  0.42370  0.06830  Biso   1.000  H
  H62      1.0000 0.09380  0.50670  0.08520  Biso   1.000  H
  C61      1.0000 0.97140  0.41870  0.05690  Biso   1.000  C
  H63      1.0000 0.98950  0.41490  0.00170  Biso   1.000  H
  C62      1.0000 0.90230  0.40290  0.07170  Biso   1.000  C
  H64      1.0000 0.87230  0.38840  0.02740  Biso   1.000  H
  C63      1.0000 0.24350  0.71640  0.31510  Biso   1.000  C
  C64      1.0000 0.15870  0.70300  0.32600  Biso   1.000  C
  Mo13     1.0000 0.57961  0.09026  0.85917  Biso   1.000  Mo
  Mo14     1.0000 0.53008  0.16062  0.67756  Biso   1.000  Mo
  Mo15     1.0000 0.50870  0.16309  0.05626  Biso   1.000  Mo
  Cu5      1.0000 0.44227  0.97870  0.78104  Biso   1.000  Cu
  O25      1.0000 0.51120  0.02920  0.85060  Biso   1.000  O
  O26      1.0000 0.59100  0.10200  0.74030  Biso   1.000  O
  O27      1.0000 0.54970  0.12000  0.13700  Biso   1.000  O
  O28      1.0000 0.50190  0.18220  0.82040  Biso   1.000  O
  O29      1.0000 0.55980  0.12320  0.96720  Biso   1.000  O
  O30      1.0000 0.14730  0.31570  0.64370  Biso   1.000  O
  N13      1.0000 0.35960  0.01430  0.84060  Biso   1.000  N
  N14      1.0000 0.51080  0.94550  0.69950  Biso   1.000  N
  N15      1.0000 0.37210  0.95380  0.68930  Biso   1.000  N
  C65      1.0000 0.35300  0.02490  0.92270  Biso   1.000  C
  H65      1.0000 0.39200  0.01680  0.95840  Biso   1.000  H
  C66      1.0000 0.30440  0.02240  0.78960  Biso   1.000  C
  C67      1.0000 0.23880  0.04300  0.82040  Biso   1.000  C
  H66      1.0000 0.19950  0.04770  0.78430  Biso   1.000  H
  C68      1.0000 0.31680  0.01040  0.69800  Biso   1.000  C
  H67      1.0000 0.27310  0.99450  0.67040  Biso   1.000  H
  H68      1.0000 0.33240  0.05560  0.67110  Biso   1.000  H
  C69      1.0000 0.33980  0.88180  0.70110  Biso   1.000  C
  H69      1.0000 0.30160  0.87660  0.65960  Biso   1.000  H
  H70      1.0000 0.31830  0.88040  0.75740  Biso   1.000  H
  C70      1.0000 0.38680  0.81890  0.69290  Biso   1.000  C
  H71      1.0000 0.40570  0.81620  0.63520  Biso   1.000  H
  H72      1.0000 0.42660  0.82340  0.73230  Biso   1.000  H
  C71      1.0000 0.57740  0.92820  0.71560  Biso   1.000  C
  H73      1.0000 0.59340  0.92950  0.77200  Biso   1.000  H
  C72      1.0000 0.62290  0.90880  0.65420  Biso   1.000  C
  H74      1.0000 0.67070  0.89950  0.66670  Biso   1.000  H
  C73      1.0000 0.23350  0.05620  0.90540  Biso   1.000  C
  H75      1.0000 0.19010  0.07150  0.92820  Biso   1.000  H
  C74      1.0000 0.29000  0.04750  0.95700  Biso   1.000  C
  H76      1.0000 0.28620  0.05680  0.01540  Biso   1.000  H
  C75      1.0000 0.48570  0.93980  0.62090  Biso   1.000  C
  C76      1.0000 0.41040  0.95770  0.60870  Biso   1.000  C
  H77      1.0000 0.38930  0.92370  0.56830  Biso   1.000  H
  H78      1.0000 0.40620  0.00670  0.58520  Biso   1.000  H
  C77      1.0000 0.52860  0.91870  0.55690  Biso   1.000  C
  H79      1.0000 0.51050  0.91490  0.50170  Biso   1.000  H
  C78      1.0000 0.59770  0.90290  0.57170  Biso   1.000  C
  H80      1.0000 0.62770  0.88840  0.52740  Biso   1.000  H
  C79      1.0000 0.25650  0.21640  0.81510  Biso   1.000  C
  C80      1.0000 0.34130  0.20300  0.82600  Biso   1.000  C
  Mo16     1.0000 0.92039  0.90974  0.35917  Biso   1.000  Mo
  Mo17     1.0000 0.96992  0.83938  0.17756  Biso   1.000  Mo
  Mo18     1.0000 0.99130  0.83691  0.55626  Biso   1.000  Mo
  Cu6      1.0000 0.05773  0.02130  0.28104  Biso   1.000  Cu
  O31      1.0000 0.98880  0.97080  0.35060  Biso   1.000  O
  O32      1.0000 0.90900  0.89800  0.24030  Biso   1.000  O
  O33      1.0000 0.95030  0.88000  0.63700  Biso   1.000  O
  O34      1.0000 0.99810  0.81780  0.32040  Biso   1.000  O
  O35      1.0000 0.94020  0.87680  0.46720  Biso   1.000  O
  O36      1.0000 0.35270  0.68430  0.14370  Biso   1.000  O
  N16      1.0000 0.14040  0.98570  0.34060  Biso   1.000  N
  N17      1.0000 0.98920  0.05450  0.19950  Biso   1.000  N
  N18      1.0000 0.12790  0.04620  0.18930  Biso   1.000  N
  C81      1.0000 0.14700  0.97510  0.42270  Biso   1.000  C
  H81      1.0000 0.10800  0.98320  0.45840  Biso   1.000  H
  C82      1.0000 0.19560  0.97760  0.28960  Biso   1.000  C
  C83      1.0000 0.26120  0.95700  0.32040  Biso   1.000  C
  H82      1.0000 0.30050  0.95230  0.28430  Biso   1.000  H
  C84      1.0000 0.18320  0.98960  0.19800  Biso   1.000  C
  H83      1.0000 0.22690  0.00550  0.17040  Biso   1.000  H
  H84      1.0000 0.16760  0.94440  0.17110  Biso   1.000  H
  C85      1.0000 0.16020  0.11820  0.20110  Biso   1.000  C
  H85      1.0000 0.19840  0.12340  0.15960  Biso   1.000  H
  H86      1.0000 0.18170  0.11960  0.25740  Biso   1.000  H
  C86      1.0000 0.11320  0.18110  0.19290  Biso   1.000  C
  H87      1.0000 0.09430  0.18380  0.13520  Biso   1.000  H
  H88      1.0000 0.07340  0.17660  0.23230  Biso   1.000  H
  C87      1.0000 0.92260  0.07180  0.21560  Biso   1.000  C
  H89      1.0000 0.90660  0.07050  0.27200  Biso   1.000  H
  C88      1.0000 0.87710  0.09120  0.15420  Biso   1.000  C
  H90      1.0000 0.82930  0.10050  0.16670  Biso   1.000  H
  C89      1.0000 0.26650  0.94380  0.40540  Biso   1.000  C
  H91      1.0000 0.30990  0.92850  0.42820  Biso   1.000  H
  C90      1.0000 0.21000  0.95250  0.45700  Biso   1.000  C
  H92      1.0000 0.21380  0.94320  0.51540  Biso   1.000  H
  C91      1.0000 0.01430  0.06020  0.12090  Biso   1.000  C
  C92      1.0000 0.08960  0.04230  0.10870  Biso   1.000  C
  H93      1.0000 0.11070  0.07630  0.06830  Biso   1.000  H
  H94      1.0000 0.09380  0.99330  0.08520  Biso   1.000  H
  C93      1.0000 0.97140  0.08130  0.05690  Biso   1.000  C
  H95      1.0000 0.98950  0.08510  0.00170  Biso   1.000  H
  C94      1.0000 0.90230  0.09710  0.07170  Biso   1.000  C
  H96      1.0000 0.87230  0.11160  0.02740  Biso   1.000  H
  C95      1.0000 0.24350  0.78360  0.31510  Biso   1.000  C
  C96      1.0000 0.15870  0.79700  0.32600  Biso   1.000  C
  Mo19     1.0000 0.42039  0.59026  0.14083  Biso   1.000  Mo
  Mo20     1.0000 0.46992  0.66062  0.32244  Biso   1.000  Mo
  Mo21     1.0000 0.49130  0.66309  0.94374  Biso   1.000  Mo
  Cu7      1.0000 0.55773  0.47870  0.21896  Biso   1.000  Cu
  O37      1.0000 0.48880  0.52920  0.14940  Biso   1.000  O
  O38      1.0000 0.40900  0.60200  0.25970  Biso   1.000  O
  O39      1.0000 0.45030  0.62000  0.86300  Biso   1.000  O
  O40      1.0000 0.49810  0.68220  0.17960  Biso   1.000  O
  O41      1.0000 0.44020  0.62320  0.03280  Biso   1.000  O
  O42      1.0000 0.85270  0.81570  0.35630  Biso   1.000  O
  N19      1.0000 0.64040  0.51430  0.15940  Biso   1.000  N
  N20      1.0000 0.48920  0.44550  0.30050  Biso   1.000  N
  N21      1.0000 0.62790  0.45380  0.31070  Biso   1.000  N
  C97      1.0000 0.64700  0.52490  0.07730  Biso   1.000  C
  H97      1.0000 0.60800  0.51680  0.04160  Biso   1.000  H
  C98      1.0000 0.69560  0.52240  0.21040  Biso   1.000  C
  C99      1.0000 0.76120  0.54300  0.17960  Biso   1.000  C
  H98      1.0000 0.80050  0.54770  0.21570  Biso   1.000  H
  C100     1.0000 0.68320  0.51040  0.30200  Biso   1.000  C
  H99      1.0000 0.72690  0.49450  0.32960  Biso   1.000  H
  H100     1.0000 0.66760  0.55560  0.32890  Biso   1.000  H
  C101     1.0000 0.66020  0.38180  0.29890  Biso   1.000  C
  H101     1.0000 0.69840  0.37660  0.34040  Biso   1.000  H
  H102     1.0000 0.68170  0.38040  0.24260  Biso   1.000  H
  C102     1.0000 0.61320  0.31890  0.30710  Biso   1.000  C
  H103     1.0000 0.59430  0.31620  0.36480  Biso   1.000  H
  H104     1.0000 0.57340  0.32340  0.26770  Biso   1.000  H
  C103     1.0000 0.42260  0.42820  0.28440  Biso   1.000  C
  H105     1.0000 0.40660  0.42950  0.22800  Biso   1.000  H
  C104     1.0000 0.37710  0.40880  0.34580  Biso   1.000  C
  H106     1.0000 0.32930  0.39950  0.33330  Biso   1.000  H
  C105     1.0000 0.76650  0.55620  0.09460  Biso   1.000  C
  H107     1.0000 0.80990  0.57150  0.07180  Biso   1.000  H
  C106     1.0000 0.71000  0.54750  0.04300  Biso   1.000  C
  H108     1.0000 0.71380  0.55680  0.98460  Biso   1.000  H
  C107     1.0000 0.51430  0.43980  0.37910  Biso   1.000  C
  C108     1.0000 0.58960  0.45770  0.39130  Biso   1.000  C
  H109     1.0000 0.61070  0.42370  0.43170  Biso   1.000  H
  H110     1.0000 0.59380  0.50670  0.41480  Biso   1.000  H
  C109     1.0000 0.47140  0.41870  0.44310  Biso   1.000  C
  H111     1.0000 0.48950  0.41490  0.49830  Biso   1.000  H
  C110     1.0000 0.40230  0.40290  0.42830  Biso   1.000  C
  H112     1.0000 0.37230  0.38840  0.47260  Biso   1.000  H
  C111     1.0000 0.74350  0.71640  0.18490  Biso   1.000  C
  C112     1.0000 0.65870  0.70300  0.17400  Biso   1.000  C
  Mo22     1.0000 0.07961  0.40974  0.64083  Biso   1.000  Mo
  Mo23     1.0000 0.03008  0.33938  0.82244  Biso   1.000  Mo
  Mo24     1.0000 0.00870  0.33691  0.44374  Biso   1.000  Mo
  Cu8      1.0000 0.94227  0.52130  0.71896  Biso   1.000  Cu
  O43      1.0000 0.01120  0.47080  0.64940  Biso   1.000  O
  O44      1.0000 0.09100  0.39800  0.75970  Biso   1.000  O
  O45      1.0000 0.04970  0.38000  0.36300  Biso   1.000  O
  O46      1.0000 0.00190  0.31780  0.67960  Biso   1.000  O
  O47      1.0000 0.05980  0.37680  0.53280  Biso   1.000  O
  O48      1.0000 0.64730  0.18430  0.85630  Biso   1.000  O
  N22      1.0000 0.85960  0.48570  0.65940  Biso   1.000  N
  N23      1.0000 0.01080  0.55450  0.80050  Biso   1.000  N
  N24      1.0000 0.87210  0.54620  0.81070  Biso   1.000  N
  C113     1.0000 0.85300  0.47510  0.57730  Biso   1.000  C
  H113     1.0000 0.89200  0.48320  0.54160  Biso   1.000  H
  C114     1.0000 0.80440  0.47760  0.71040  Biso   1.000  C
  C115     1.0000 0.73880  0.45700  0.67960  Biso   1.000  C
  H114     1.0000 0.69950  0.45230  0.71570  Biso   1.000  H
  C116     1.0000 0.81680  0.48960  0.80200  Biso   1.000  C
  H115     1.0000 0.77310  0.50550  0.82960  Biso   1.000  H
  H116     1.0000 0.83240  0.44440  0.82890  Biso   1.000  H
  C117     1.0000 0.83980  0.61820  0.79890  Biso   1.000  C
  H117     1.0000 0.80160  0.62340  0.84040  Biso   1.000  H
  H118     1.0000 0.81830  0.61960  0.74260  Biso   1.000  H
  C118     1.0000 0.88680  0.68110  0.80710  Biso   1.000  C
  H119     1.0000 0.90570  0.68380  0.86480  Biso   1.000  H
  H120     1.0000 0.92660  0.67660  0.76770  Biso   1.000  H
  C119     1.0000 0.07740  0.57180  0.78440  Biso   1.000  C
  H121     1.0000 0.09340  0.57050  0.72800  Biso   1.000  H
  C120     1.0000 0.12290  0.59120  0.84580  Biso   1.000  C
  H122     1.0000 0.17070  0.60050  0.83330  Biso   1.000  H
  C121     1.0000 0.73350  0.44380  0.59460  Biso   1.000  C
  H123     1.0000 0.69010  0.42850  0.57180  Biso   1.000  H
  C122     1.0000 0.79000  0.45250  0.54300  Biso   1.000  C
  H124     1.0000 0.78620  0.44320  0.48460  Biso   1.000  H
  C123     1.0000 0.98570  0.56020  0.87910  Biso   1.000  C
  C124     1.0000 0.91040  0.54230  0.89130  Biso   1.000  C
  H125     1.0000 0.88930  0.57630  0.93170  Biso   1.000  H
  H126     1.0000 0.90620  0.49330  0.91480  Biso   1.000  H
  C125     1.0000 0.02860  0.58130  0.94310  Biso   1.000  C
  H127     1.0000 0.01050  0.58510  0.99830  Biso   1.000  H
  C126     1.0000 0.09770  0.59710  0.92830  Biso   1.000  C
  H128     1.0000 0.12770  0.61160  0.97260  Biso   1.000  H
  C127     1.0000 0.75650  0.28360  0.68490  Biso   1.000  C
  C128     1.0000 0.84130  0.29700  0.67400  Biso   1.000  C
  P1       1.0000 0.52772  0.75000  0.14020  Biso   1.000  P
  P2       1.0000 0.84509  0.75000  0.30190  Biso   1.000  P
  O49      1.0000 0.39450  0.75000  0.96170  Biso   1.000  O
  O50      1.0000 0.89460  0.75000  0.22470  Biso   1.000  O
  O51      1.0000 0.51880  0.75000  0.33540  Biso   1.000  O
  O52      1.0000 0.51570  0.75000  0.88730  Biso   1.000  O
  O53      1.0000 0.51530  0.75000  0.04470  Biso   1.000  O
  C129     1.0000 0.61790  0.75000  0.15770  Biso   1.000  C
  C130     1.0000 0.75700  0.75000  0.26390  Biso   1.000  C
  P3       1.0000 0.97228  0.25000  0.64020  Biso   1.000  P
  P4       1.0000 0.65491  0.25000  0.80190  Biso   1.000  P
  O54      1.0000 0.10550  0.25000  0.46170  Biso   1.000  O
  O55      1.0000 0.60540  0.25000  0.72470  Biso   1.000  O
  O56      1.0000 0.98120  0.25000  0.83540  Biso   1.000  O
  O57      1.0000 0.98430  0.25000  0.38730  Biso   1.000  O
  O58      1.0000 0.98470  0.25000  0.54470  Biso   1.000  O
  C131     1.0000 0.88210  0.25000  0.65770  Biso   1.000  C
  C132     1.0000 0.74300  0.25000  0.76390  Biso   1.000  C
  P5       1.0000 0.47228  0.25000  0.85980  Biso   1.000  P
  P6       1.0000 0.15491  0.25000  0.69810  Biso   1.000  P
  O59      1.0000 0.60550  0.25000  0.03830  Biso   1.000  O
  O60      1.0000 0.10540  0.25000  0.77530  Biso   1.000  O
  O61      1.0000 0.48120  0.25000  0.66460  Biso   1.000  O
  O62      1.0000 0.48430  0.25000  0.11270  Biso   1.000  O
  O63      1.0000 0.48470  0.25000  0.95530  Biso   1.000  O
  C133     1.0000 0.38210  0.25000  0.84230  Biso   1.000  C
  C134     1.0000 0.24300  0.25000  0.73610  Biso   1.000  C
  P7       1.0000 0.02772  0.75000  0.35980  Biso   1.000  P
  P8       1.0000 0.34509  0.75000  0.19810  Biso   1.000  P
  O64      1.0000 0.89450  0.75000  0.53830  Biso   1.000  O
  O65      1.0000 0.39460  0.75000  0.27530  Biso   1.000  O
  O66      1.0000 0.01880  0.75000  0.16460  Biso   1.000  O
  O67      1.0000 0.01570  0.75000  0.61270  Biso   1.000  O
  O68      1.0000 0.01530  0.75000  0.45530  Biso   1.000  O
  C135     1.0000 0.11790  0.75000  0.34230  Biso   1.000  C
  C136     1.0000 0.25700  0.75000  0.23610  Biso   1.000  C
  C137     1.0000 0.65610  0.25000  0.28690  Biso   1.000  C
  C138     1.0000 0.84390  0.75000  0.78690  Biso   1.000  C
  C139     1.0000 0.34390  0.75000  0.71310  Biso   1.000  C
  C140     1.0000 0.15610  0.25000  0.21310  Biso   1.000  C
