data_PEDGUA_clean
_audit_creation_date              2014-07-02
_audit_creation_method            'Materials Studio'
_symmetry_space_group_name_H-M    'P1'
_symmetry_Int_Tables_number       1
_symmetry_cell_setting            triclinic
loop_
_symmetry_equiv_pos_as_xyz
  x,y,z
_cell_length_a                    13.3670
_cell_length_b                    13.8520
_cell_length_c                    14.0230
_cell_angle_alpha                 90.0000
_cell_angle_beta                  91.6100
_cell_angle_gamma                 90.0000
loop_
_atom_site_label
_atom_site_type_symbol
_atom_site_fract_x
_atom_site_fract_y
_atom_site_fract_z
_atom_site_U_iso_or_equiv
_atom_site_adp_type
_atom_site_occupancy
Ba1    Ba    0.03349   0.06976   0.23622   0.01267  Uiso   1.00
Ba2    Ba    0.96536   0.33780   0.04450   0.01267  Uiso   1.00
Ba3    Ba    0.46651   0.56976   0.26378   0.01267  Uiso   1.00
Ba4    Ba    0.53464   0.83780   0.45550   0.01267  Uiso   1.00
Ba5    Ba    0.96651   0.93024   0.76378   0.01267  Uiso   1.00
Ba6    Ba    0.03464   0.66220   0.95550   0.01267  Uiso   1.00
Ba7    Ba    0.53349   0.43024   0.73622   0.01267  Uiso   1.00
Ba8    Ba    0.46536   0.16220   0.54450   0.01267  Uiso   1.00
Ti1    Ti    0.87270   0.37720   0.47230   0.01267  Uiso   1.00
Ti2    Ti    0.58200   0.11110   0.11710   0.01267  Uiso   1.00
Ti3    Ti    0.62730   0.87720   0.02770   0.01267  Uiso   1.00
Ti4    Ti    0.91800   0.61110   0.38290   0.01267  Uiso   1.00
Ti5    Ti    0.12730   0.62280   0.52770   0.01267  Uiso   1.00
Ti6    Ti    0.41800   0.88890   0.88290   0.01267  Uiso   1.00
Ti7    Ti    0.37270   0.12280   0.97230   0.01267  Uiso   1.00
Ti8    Ti    0.08200   0.38890   0.61710   0.01267  Uiso   1.00
C1     C     0.95180   0.32000   0.29460   0.01267  Uiso   1.00
C2     C     0.84480   0.35000   0.26770   0.01267  Uiso   1.00
C3     C     0.79340   0.15200   0.10800   0.01267  Uiso   1.00
C4     C     0.74000   0.20900   0.02850   0.01267  Uiso   1.00
C5     C     0.03280   0.42450   0.81120   0.01267  Uiso   1.00
C6     C     0.04000   0.31700   0.80270   0.01267  Uiso   1.00
C7     C     0.22700   0.27300   0.00940   0.01267  Uiso   1.00
C8     C     0.18320   0.17600   0.04580   0.01267  Uiso   1.00
C9     C     0.54820   0.82000   0.20540   0.01267  Uiso   1.00
C10    C     0.65520   0.85000   0.23230   0.01267  Uiso   1.00
C11    C     0.70660   0.65200   0.39200   0.01267  Uiso   1.00
C12    C     0.76000   0.70900   0.47150   0.01267  Uiso   1.00
C13    C     0.46720   0.92450   0.68880   0.01267  Uiso   1.00
C14    C     0.46000   0.81700   0.69730   0.01267  Uiso   1.00
C15    C     0.27300   0.77300   0.49060   0.01267  Uiso   1.00
C16    C     0.31680   0.67600   0.45420   0.01267  Uiso   1.00
C17    C     0.04820   0.68000   0.70540   0.01267  Uiso   1.00
C18    C     0.15520   0.65000   0.73230   0.01267  Uiso   1.00
C19    C     0.20660   0.84800   0.89200   0.01267  Uiso   1.00
C20    C     0.26000   0.79100   0.97150   0.01267  Uiso   1.00
C21    C     0.96720   0.57550   0.18880   0.01267  Uiso   1.00
C22    C     0.96000   0.68300   0.19730   0.01267  Uiso   1.00
C23    C     0.77300   0.72700   0.99060   0.01267  Uiso   1.00
C24    C     0.81680   0.82400   0.95420   0.01267  Uiso   1.00
C25    C     0.45180   0.18000   0.79460   0.01267  Uiso   1.00
C26    C     0.34480   0.15000   0.76770   0.01267  Uiso   1.00
C27    C     0.29340   0.34800   0.60800   0.01267  Uiso   1.00
C28    C     0.24000   0.29100   0.52850   0.01267  Uiso   1.00
C29    C     0.53280   0.07550   0.31120   0.01267  Uiso   1.00
C30    C     0.54000   0.18300   0.30270   0.01267  Uiso   1.00
C31    C     0.72700   0.22700   0.50940   0.01267  Uiso   1.00
C32    C     0.68320   0.32400   0.54580   0.01267  Uiso   1.00
O1     O     0.45660   0.13910   0.07380   0.01267  Uiso   1.00
O2     O     0.89390   0.50440   0.45180   0.01267  Uiso   1.00
O3     O     0.79420   0.37300   0.33990   0.01267  Uiso   1.00
O4     O     0.97450   0.32550   0.38420   0.01267  Uiso   1.00
O5     O     0.81530   0.35070   0.18370   0.01267  Uiso   1.00
O6     O     0.00990   0.28870   0.23550   0.01267  Uiso   1.00
O7     O     0.88540   0.15210   0.11410   0.01267  Uiso   1.00
O8     O     0.64320   0.20430   0.02990   0.01267  Uiso   1.00
O9     O     0.78780   0.25760   0.97130   0.01267  Uiso   1.00
O10    O     0.73300   0.10930   0.16280   0.01267  Uiso   1.00
O11    O     0.01270   0.46640   0.88670   0.01267  Uiso   1.00
O12    O     0.05110   0.46980   0.73330   0.01267  Uiso   1.00
O13    O     0.01570   0.26260   0.86990   0.01267  Uiso   1.00
O14    O     0.06850   0.28580   0.72310   0.01267  Uiso   1.00
O15    O     0.31460   0.26570   0.97990   0.01267  Uiso   1.00
O16    O     0.17580   0.34600   0.01650   0.01267  Uiso   1.00
O17    O     0.24150   0.10250   0.03430   0.01267  Uiso   1.00
O18    O     0.09910   0.17260   0.07790   0.01267  Uiso   1.00
O19    O     0.04340   0.63910   0.42620   0.01267  Uiso   1.00
O20    O     0.60610   0.00440   0.04820   0.01267  Uiso   1.00
O21    O     0.70580   0.87300   0.16010   0.01267  Uiso   1.00
O22    O     0.52550   0.82550   0.11580   0.01267  Uiso   1.00
O23    O     0.68470   0.85070   0.31630   0.01267  Uiso   1.00
O24    O     0.49010   0.78870   0.26450   0.01267  Uiso   1.00
O25    O     0.61460   0.65210   0.38590   0.01267  Uiso   1.00
O26    O     0.85680   0.70430   0.47010   0.01267  Uiso   1.00
O27    O     0.71220   0.75760   0.52870   0.01267  Uiso   1.00
O28    O     0.76700   0.60930   0.33720   0.01267  Uiso   1.00
O29    O     0.48730   0.96640   0.61330   0.01267  Uiso   1.00
O30    O     0.44890   0.96980   0.76670   0.01267  Uiso   1.00
O31    O     0.48430   0.76260   0.63010   0.01267  Uiso   1.00
O32    O     0.43150   0.78580   0.77690   0.01267  Uiso   1.00
O33    O     0.18540   0.76570   0.52010   0.01267  Uiso   1.00
O34    O     0.32420   0.84600   0.48350   0.01267  Uiso   1.00
O35    O     0.25850   0.60250   0.46570   0.01267  Uiso   1.00
O36    O     0.40090   0.67260   0.42210   0.01267  Uiso   1.00
O37    O     0.54340   0.86090   0.92620   0.01267  Uiso   1.00
O38    O     0.10610   0.49560   0.54820   0.01267  Uiso   1.00
O39    O     0.20580   0.62700   0.66010   0.01267  Uiso   1.00
O40    O     0.02550   0.67450   0.61580   0.01267  Uiso   1.00
O41    O     0.18470   0.64930   0.81630   0.01267  Uiso   1.00
O42    O     0.99010   0.71130   0.76450   0.01267  Uiso   1.00
O43    O     0.11460   0.84790   0.88590   0.01267  Uiso   1.00
O44    O     0.35680   0.79570   0.97010   0.01267  Uiso   1.00
O45    O     0.21220   0.74240   0.02870   0.01267  Uiso   1.00
O46    O     0.26700   0.89070   0.83720   0.01267  Uiso   1.00
O47    O     0.98730   0.53360   0.11330   0.01267  Uiso   1.00
O48    O     0.94890   0.53020   0.26670   0.01267  Uiso   1.00
O49    O     0.98430   0.73740   0.13010   0.01267  Uiso   1.00
O50    O     0.93150   0.71420   0.27690   0.01267  Uiso   1.00
O51    O     0.68540   0.73430   0.02010   0.01267  Uiso   1.00
O52    O     0.82420   0.65400   0.98350   0.01267  Uiso   1.00
O53    O     0.75850   0.89750   0.96570   0.01267  Uiso   1.00
O54    O     0.90090   0.82740   0.92210   0.01267  Uiso   1.00
O55    O     0.95660   0.36090   0.57380   0.01267  Uiso   1.00
O56    O     0.39390   0.99560   0.95180   0.01267  Uiso   1.00
O57    O     0.29420   0.12700   0.83990   0.01267  Uiso   1.00
O58    O     0.47450   0.17450   0.88420   0.01267  Uiso   1.00
O59    O     0.31530   0.14930   0.68370   0.01267  Uiso   1.00
O60    O     0.50990   0.21130   0.73550   0.01267  Uiso   1.00
O61    O     0.38540   0.34790   0.61410   0.01267  Uiso   1.00
O62    O     0.14320   0.29570   0.52990   0.01267  Uiso   1.00
O63    O     0.28780   0.24240   0.47130   0.01267  Uiso   1.00
O64    O     0.23300   0.39070   0.66280   0.01267  Uiso   1.00
O65    O     0.51270   0.03360   0.38670   0.01267  Uiso   1.00
O66    O     0.55110   0.03020   0.23330   0.01267  Uiso   1.00
O67    O     0.51570   0.23740   0.36990   0.01267  Uiso   1.00
O68    O     0.56850   0.21420   0.22310   0.01267  Uiso   1.00
O69    O     0.81460   0.23430   0.47990   0.01267  Uiso   1.00
O70    O     0.67580   0.15400   0.51650   0.01267  Uiso   1.00
O71    O     0.74150   0.39750   0.53430   0.01267  Uiso   1.00
O72    O     0.59910   0.32740   0.57790   0.01267  Uiso   1.00
