data_PEDMER_clean
_audit_creation_date              2014-07-02
_audit_creation_method            'Materials Studio'
_symmetry_space_group_name_H-M    'P1'
_symmetry_Int_Tables_number       1
_symmetry_cell_setting            triclinic
loop_
_symmetry_equiv_pos_as_xyz
  x,y,z
_cell_length_a                    10.0220
_cell_length_b                    10.1820
_cell_length_c                    10.6190
_cell_angle_alpha                 72.9830
_cell_angle_beta                  62.1820
_cell_angle_gamma                 63.9970
loop_
_atom_site_label
_atom_site_type_symbol
_atom_site_fract_x
_atom_site_fract_y
_atom_site_fract_z
_atom_site_U_iso_or_equiv
_atom_site_adp_type
_atom_site_occupancy
Cu1    Cu    0.22877   0.49947   0.53742   0.01267  Uiso   1.00
Cu2    Cu    0.42925   0.18211   0.80104   0.01267  Uiso   1.00
Cu3    Cu    0.24864   0.14313   0.18630   0.01267  Uiso   1.00
Cu4    Cu    0.77123   0.50053   0.46258   0.01267  Uiso   1.00
Cu5    Cu    0.57075   0.81789   0.19896   0.01267  Uiso   1.00
Cu6    Cu    0.75136   0.85687   0.81370   0.01267  Uiso   1.00
P1     P     0.85454   0.54252   0.71595   0.01267  Uiso   1.00
P2     P     0.59272   0.10921   0.00747   0.01267  Uiso   1.00
P3     P     0.57944   0.48551   0.30451   0.01267  Uiso   1.00
P4     P     0.14546   0.45748   0.28405   0.01267  Uiso   1.00
P5     P     0.40728   0.89079   0.99253   0.01267  Uiso   1.00
P6     P     0.42056   0.51449   0.69549   0.01267  Uiso   1.00
H1     H     0.73100   0.31200   0.79300   0.01267  Uiso   1.00
H2     H     0.54700   0.25100   0.21700   0.01267  Uiso   1.00
H3     H     0.75900   0.54200   0.01800   0.01267  Uiso   1.00
H4     H     0.26900   0.68800   0.20700   0.01267  Uiso   1.00
H5     H     0.45300   0.74900   0.78300   0.01267  Uiso   1.00
H6     H     0.24100   0.45800   0.98200   0.01267  Uiso   1.00
C1     C     0.76250   0.44400   0.88230   0.01267  Uiso   1.00
C2     C     0.72240   0.32810   0.88230   0.01267  Uiso   1.00
C3     C     0.64420   0.25530   0.01140   0.01267  Uiso   1.00
C4     C     0.60230   0.30000   0.14080   0.01267  Uiso   1.00
C5     C     0.64350   0.41310   0.14180   0.01267  Uiso   1.00
C6     C     0.72590   0.48140   0.01230   0.01267  Uiso   1.00
C7     C     0.23750   0.55600   0.11770   0.01267  Uiso   1.00
C8     C     0.27760   0.67190   0.11770   0.01267  Uiso   1.00
C9     C     0.35580   0.74470   0.98860   0.01267  Uiso   1.00
C10    C     0.39770   0.70000   0.85920   0.01267  Uiso   1.00
C11    C     0.35650   0.58690   0.85820   0.01267  Uiso   1.00
C12    C     0.27410   0.51860   0.98770   0.01267  Uiso   1.00
O1     O     0.45900   0.41730   0.42410   0.01267  Uiso   1.00
O2     O     0.83390   0.50180   0.60330   0.01267  Uiso   1.00
O3     O     0.03160   0.48930   0.69380   0.01267  Uiso   1.00
O4     O     0.73330   0.43970   0.32930   0.01267  Uiso   1.00
O5     O     0.42730   0.17350   0.99470   0.01267  Uiso   1.00
O6     O     0.72110   0.03470   0.87350   0.01267  Uiso   1.00
O7     O     0.76880   0.70640   0.73060   0.01267  Uiso   1.00
O8     O     0.49950   0.65280   0.28140   0.01267  Uiso   1.00
O9     O     0.57750   0.01380   0.15030   0.01267  Uiso   1.00
O10    O     0.54100   0.58270   0.57590   0.01267  Uiso   1.00
O11    O     0.16610   0.49820   0.39670   0.01267  Uiso   1.00
O12    O     0.96840   0.51070   0.30620   0.01267  Uiso   1.00
O13    O     0.26670   0.56030   0.67070   0.01267  Uiso   1.00
O14    O     0.57270   0.82650   0.00530   0.01267  Uiso   1.00
O15    O     0.27890   0.96530   0.12650   0.01267  Uiso   1.00
O16    O     0.23120   0.29360   0.26940   0.01267  Uiso   1.00
O17    O     0.50050   0.34720   0.71860   0.01267  Uiso   1.00
O18    O     0.42250   0.98620   0.84970   0.01267  Uiso   1.00
