data_image0
_cell_length_a       32.035
_cell_length_b       14.308
_cell_length_c       8.852
_cell_angle_alpha    90
_cell_angle_beta     104.65
_cell_angle_gamma    90

_symmetry_space_group_name_H-M    "P 1"
_symmetry_int_tables_number       1

loop_
  _symmetry_equiv_pos_as_xyz
  'x, y, z'

loop_
  _atom_site_label
  _atom_site_occupancy
  _atom_site_fract_x
  _atom_site_fract_y
  _atom_site_fract_z
  _atom_site_thermal_displace_type
  _atom_site_B_iso_or_equiv
  _atom_site_type_symbol
  P1       1.0000 0.95700  0.61940  0.90730  Biso   1.000  P
  P2       1.0000 0.81130  0.46490  0.98310  Biso   1.000  P
  P3       1.0000 0.81920  0.78310  0.99490  Biso   1.000  P
  Al1      1.0000 0.77140  0.62780  0.14540  Biso   1.000  Al
  Al2      1.0000 0.85450  0.61890  0.82330  Biso   1.000  Al
  O1       1.0000 0.96430  0.52920  0.82100  Biso   1.000  O
  O2       1.0000 0.98010  0.70140  0.85300  Biso   1.000  O
  O3       1.0000 0.90960  0.64000  0.86800  Biso   1.000  O
  O4       1.0000 0.97130  0.60900  0.08700  Biso   1.000  O
  O5       1.0000 0.77960  0.52900  0.03400  Biso   1.000  O
  O6       1.0000 0.78640  0.40320  0.84900  Biso   1.000  O
  O7       1.0000 0.84500  0.52200  0.93000  Biso   1.000  O
  O8       1.0000 0.83410  0.40240  0.11800  Biso   1.000  O
  O9       1.0000 0.78170  0.84620  0.90900  Biso   1.000  O
  O10      1.0000 0.80310  0.72000  0.11400  Biso   1.000  O
  O11      1.0000 0.82890  0.72000  0.86400  Biso   1.000  O
  O12      1.0000 0.85820  0.83500  0.07900  Biso   1.000  O
  P4       1.0000 0.45700  0.11940  0.90730  Biso   1.000  P
  P5       1.0000 0.31130  0.96490  0.98310  Biso   1.000  P
  P6       1.0000 0.31920  0.28310  0.99490  Biso   1.000  P
  Al3      1.0000 0.27140  0.12780  0.14540  Biso   1.000  Al
  Al4      1.0000 0.35450  0.11890  0.82330  Biso   1.000  Al
  O13      1.0000 0.46430  0.02920  0.82100  Biso   1.000  O
  O14      1.0000 0.48010  0.20140  0.85300  Biso   1.000  O
  O15      1.0000 0.40960  0.14000  0.86800  Biso   1.000  O
  O16      1.0000 0.47130  0.10900  0.08700  Biso   1.000  O
  O17      1.0000 0.27960  0.02900  0.03400  Biso   1.000  O
  O18      1.0000 0.28640  0.90320  0.84900  Biso   1.000  O
  O19      1.0000 0.34500  0.02200  0.93000  Biso   1.000  O
  O20      1.0000 0.33410  0.90240  0.11800  Biso   1.000  O
  O21      1.0000 0.28170  0.34620  0.90900  Biso   1.000  O
  O22      1.0000 0.30310  0.22000  0.11400  Biso   1.000  O
  O23      1.0000 0.32890  0.22000  0.86400  Biso   1.000  O
  O24      1.0000 0.35820  0.33500  0.07900  Biso   1.000  O
  P7       1.0000 0.04300  0.61940  0.59270  Biso   1.000  P
  P8       1.0000 0.18870  0.46490  0.51690  Biso   1.000  P
  P9       1.0000 0.18080  0.78310  0.50510  Biso   1.000  P
  Al5      1.0000 0.22860  0.62780  0.35460  Biso   1.000  Al
  Al6      1.0000 0.14550  0.61890  0.67670  Biso   1.000  Al
  O25      1.0000 0.03570  0.52920  0.67900  Biso   1.000  O
  O26      1.0000 0.01990  0.70140  0.64700  Biso   1.000  O
  O27      1.0000 0.09040  0.64000  0.63200  Biso   1.000  O
  O28      1.0000 0.02870  0.60900  0.41300  Biso   1.000  O
  O29      1.0000 0.22040  0.52900  0.46600  Biso   1.000  O
  O30      1.0000 0.21360  0.40320  0.65100  Biso   1.000  O
  O31      1.0000 0.15500  0.52200  0.57000  Biso   1.000  O
  O32      1.0000 0.16590  0.40240  0.38200  Biso   1.000  O
  O33      1.0000 0.21830  0.84620  0.59100  Biso   1.000  O
  O34      1.0000 0.19690  0.72000  0.38600  Biso   1.000  O
  O35      1.0000 0.17110  0.72000  0.63600  Biso   1.000  O
  O36      1.0000 0.14180  0.83500  0.42100  Biso   1.000  O
  P10      1.0000 0.54300  0.11940  0.59270  Biso   1.000  P
  P11      1.0000 0.68870  0.96490  0.51690  Biso   1.000  P
  P12      1.0000 0.68080  0.28310  0.50510  Biso   1.000  P
  Al7      1.0000 0.72860  0.12780  0.35460  Biso   1.000  Al
  Al8      1.0000 0.64550  0.11890  0.67670  Biso   1.000  Al
  O37      1.0000 0.53570  0.02920  0.67900  Biso   1.000  O
  O38      1.0000 0.51990  0.20140  0.64700  Biso   1.000  O
  O39      1.0000 0.59040  0.14000  0.63200  Biso   1.000  O
  O40      1.0000 0.52870  0.10900  0.41300  Biso   1.000  O
  O41      1.0000 0.72040  0.02900  0.46600  Biso   1.000  O
  O42      1.0000 0.71360  0.90320  0.65100  Biso   1.000  O
  O43      1.0000 0.65500  0.02200  0.57000  Biso   1.000  O
  O44      1.0000 0.66590  0.90240  0.38200  Biso   1.000  O
  O45      1.0000 0.71830  0.34620  0.59100  Biso   1.000  O
  O46      1.0000 0.69690  0.22000  0.38600  Biso   1.000  O
  O47      1.0000 0.67110  0.22000  0.63600  Biso   1.000  O
  O48      1.0000 0.64180  0.33500  0.42100  Biso   1.000  O
  P13      1.0000 0.04300  0.38060  0.09270  Biso   1.000  P
  P14      1.0000 0.18870  0.53510  0.01690  Biso   1.000  P
  P15      1.0000 0.18080  0.21690  0.00510  Biso   1.000  P
  Al9      1.0000 0.22860  0.37220  0.85460  Biso   1.000  Al
  Al10     1.0000 0.14550  0.38110  0.17670  Biso   1.000  Al
  O49      1.0000 0.03570  0.47080  0.17900  Biso   1.000  O
  O50      1.0000 0.01990  0.29860  0.14700  Biso   1.000  O
  O51      1.0000 0.09040  0.36000  0.13200  Biso   1.000  O
  O52      1.0000 0.02870  0.39100  0.91300  Biso   1.000  O
  O53      1.0000 0.22040  0.47100  0.96600  Biso   1.000  O
  O54      1.0000 0.21360  0.59680  0.15100  Biso   1.000  O
  O55      1.0000 0.15500  0.47800  0.07000  Biso   1.000  O
  O56      1.0000 0.16590  0.59760  0.88200  Biso   1.000  O
  O57      1.0000 0.21830  0.15380  0.09100  Biso   1.000  O
  O58      1.0000 0.19690  0.28000  0.88600  Biso   1.000  O
  O59      1.0000 0.17110  0.28000  0.13600  Biso   1.000  O
  O60      1.0000 0.14180  0.16500  0.92100  Biso   1.000  O
  P16      1.0000 0.54300  0.88060  0.09270  Biso   1.000  P
  P17      1.0000 0.68870  0.03510  0.01690  Biso   1.000  P
  P18      1.0000 0.68080  0.71690  0.00510  Biso   1.000  P
  Al11     1.0000 0.72860  0.87220  0.85460  Biso   1.000  Al
  Al12     1.0000 0.64550  0.88110  0.17670  Biso   1.000  Al
  O61      1.0000 0.53570  0.97080  0.17900  Biso   1.000  O
  O62      1.0000 0.51990  0.79860  0.14700  Biso   1.000  O
  O63      1.0000 0.59040  0.86000  0.13200  Biso   1.000  O
  O64      1.0000 0.52870  0.89100  0.91300  Biso   1.000  O
  O65      1.0000 0.72040  0.97100  0.96600  Biso   1.000  O
  O66      1.0000 0.71360  0.09680  0.15100  Biso   1.000  O
  O67      1.0000 0.65500  0.97800  0.07000  Biso   1.000  O
  O68      1.0000 0.66590  0.09760  0.88200  Biso   1.000  O
  O69      1.0000 0.71830  0.65380  0.09100  Biso   1.000  O
  O70      1.0000 0.69690  0.78000  0.88600  Biso   1.000  O
  O71      1.0000 0.67110  0.78000  0.13600  Biso   1.000  O
  O72      1.0000 0.64180  0.66500  0.92100  Biso   1.000  O
  P19      1.0000 0.95700  0.38060  0.40730  Biso   1.000  P
  P20      1.0000 0.81130  0.53510  0.48310  Biso   1.000  P
  P21      1.0000 0.81920  0.21690  0.49490  Biso   1.000  P
  Al13     1.0000 0.77140  0.37220  0.64540  Biso   1.000  Al
  Al14     1.0000 0.85450  0.38110  0.32330  Biso   1.000  Al
  O73      1.0000 0.96430  0.47080  0.32100  Biso   1.000  O
  O74      1.0000 0.98010  0.29860  0.35300  Biso   1.000  O
  O75      1.0000 0.90960  0.36000  0.36800  Biso   1.000  O
  O76      1.0000 0.97130  0.39100  0.58700  Biso   1.000  O
  O77      1.0000 0.77960  0.47100  0.53400  Biso   1.000  O
  O78      1.0000 0.78640  0.59680  0.34900  Biso   1.000  O
  O79      1.0000 0.84500  0.47800  0.43000  Biso   1.000  O
  O80      1.0000 0.83410  0.59760  0.61800  Biso   1.000  O
  O81      1.0000 0.78170  0.15380  0.40900  Biso   1.000  O
  O82      1.0000 0.80310  0.28000  0.61400  Biso   1.000  O
  O83      1.0000 0.82890  0.28000  0.36400  Biso   1.000  O
  O84      1.0000 0.85820  0.16500  0.57900  Biso   1.000  O
  P22      1.0000 0.45700  0.88060  0.40730  Biso   1.000  P
  P23      1.0000 0.31130  0.03510  0.48310  Biso   1.000  P
  P24      1.0000 0.31920  0.71690  0.49490  Biso   1.000  P
  Al15     1.0000 0.27140  0.87220  0.64540  Biso   1.000  Al
  Al16     1.0000 0.35450  0.88110  0.32330  Biso   1.000  Al
  O85      1.0000 0.46430  0.97080  0.32100  Biso   1.000  O
  O86      1.0000 0.48010  0.79860  0.35300  Biso   1.000  O
  O87      1.0000 0.40960  0.86000  0.36800  Biso   1.000  O
  O88      1.0000 0.47130  0.89100  0.58700  Biso   1.000  O
  O89      1.0000 0.27960  0.97100  0.53400  Biso   1.000  O
  O90      1.0000 0.28640  0.09680  0.34900  Biso   1.000  O
  O91      1.0000 0.34500  0.97800  0.43000  Biso   1.000  O
  O92      1.0000 0.33410  0.09760  0.61800  Biso   1.000  O
  O93      1.0000 0.28170  0.65380  0.40900  Biso   1.000  O
  O94      1.0000 0.30310  0.78000  0.61400  Biso   1.000  O
  O95      1.0000 0.32890  0.78000  0.36400  Biso   1.000  O
  O96      1.0000 0.35820  0.66500  0.57900  Biso   1.000  O
  Al17     1.0000 0.00000  0.46030  0.75000  Biso   1.000  Al
  Al18     1.0000 0.50000  0.96030  0.75000  Biso   1.000  Al
  Al19     1.0000 0.00000  0.53970  0.25000  Biso   1.000  Al
  Al20     1.0000 0.50000  0.03970  0.25000  Biso   1.000  Al
