data_PEFRID01_clean
_audit_creation_date              2014-07-02
_audit_creation_method            'Materials Studio'
_symmetry_space_group_name_H-M    'P1'
_symmetry_Int_Tables_number       1
_symmetry_cell_setting            triclinic
loop_
_symmetry_equiv_pos_as_xyz
  x,y,z
_cell_length_a                    11.3510
_cell_length_b                    27.0951
_cell_length_c                    17.0184
_cell_angle_alpha                 98.2180
_cell_angle_beta                  90.0000
_cell_angle_gamma                 90.0000
loop_
_atom_site_label
_atom_site_type_symbol
_atom_site_fract_x
_atom_site_fract_y
_atom_site_fract_z
_atom_site_U_iso_or_equiv
_atom_site_adp_type
_atom_site_occupancy
Sm1    Sm    0.12356   0.75181   0.69044   0.01267  Uiso   1.00
Sm2    Sm    0.68661   0.24912   0.53017   0.01267  Uiso   1.00
Sm3    Sm    0.62356   0.24819   0.80956   0.01267  Uiso   1.00
Sm4    Sm    0.18661   0.75088   0.96983   0.01267  Uiso   1.00
Sm5    Sm    0.87644   0.24819   0.30956   0.01267  Uiso   1.00
Sm6    Sm    0.31339   0.75088   0.46983   0.01267  Uiso   1.00
Sm7    Sm    0.37644   0.75181   0.19044   0.01267  Uiso   1.00
Sm8    Sm    0.81339   0.24912   0.03017   0.01267  Uiso   1.00
H1     H     0.93020   0.89430   0.61990   0.01267  Uiso   1.00
H2     H     0.17060   0.87860   0.44480   0.01267  Uiso   1.00
H3     H     0.13190   0.95920   0.42070   0.01267  Uiso   1.00
H4     H     0.08640   0.51570   0.38820   0.01267  Uiso   1.00
H5     H     0.13810   0.59860   0.38940   0.01267  Uiso   1.00
H6     H     0.00440   0.63180   0.60930   0.01267  Uiso   1.00
H7     H     0.46400   0.85820   0.55670   0.01267  Uiso   1.00
H8     H     0.34450   0.89790   0.77890   0.01267  Uiso   1.00
H9     H     0.43060   0.97590   0.78210   0.01267  Uiso   1.00
H10    H     0.49700   0.03850   0.77540   0.01267  Uiso   1.00
H11    H     0.53200   0.12160   0.76430   0.01267  Uiso   1.00
H12    H     0.62770   0.08250   0.53660   0.01267  Uiso   1.00
H13    H     0.43710   0.48670   0.77190   0.01267  Uiso   1.00
H14    H     0.47540   0.40380   0.78250   0.01267  Uiso   1.00
H15    H     0.63810   0.38740   0.57060   0.01267  Uiso   1.00
H16    H     0.51410   0.61810   0.54390   0.01267  Uiso   1.00
H17    H     0.30850   0.62680   0.73760   0.01267  Uiso   1.00
H18    H     0.36540   0.54700   0.75560   0.01267  Uiso   1.00
H19    H     0.43020   0.10570   0.88010   0.01267  Uiso   1.00
H20    H     0.67060   0.12140   0.05520   0.01267  Uiso   1.00
H21    H     0.63190   0.04080   0.07930   0.01267  Uiso   1.00
H22    H     0.58640   0.48430   0.11180   0.01267  Uiso   1.00
H23    H     0.63810   0.40140   0.11060   0.01267  Uiso   1.00
H24    H     0.50440   0.36820   0.89070   0.01267  Uiso   1.00
H25    H     0.96400   0.14180   0.94330   0.01267  Uiso   1.00
H26    H     0.84450   0.10210   0.72110   0.01267  Uiso   1.00
H27    H     0.93060   0.02410   0.71790   0.01267  Uiso   1.00
H28    H     0.99700   0.96150   0.72460   0.01267  Uiso   1.00
H29    H     0.03200   0.87840   0.73570   0.01267  Uiso   1.00
H30    H     0.12770   0.91750   0.96340   0.01267  Uiso   1.00
H31    H     0.93710   0.51330   0.72810   0.01267  Uiso   1.00
H32    H     0.97540   0.59620   0.71750   0.01267  Uiso   1.00
H33    H     0.13810   0.61260   0.92940   0.01267  Uiso   1.00
H34    H     0.01410   0.38190   0.95610   0.01267  Uiso   1.00
H35    H     0.80850   0.37320   0.76240   0.01267  Uiso   1.00
H36    H     0.86540   0.45300   0.74440   0.01267  Uiso   1.00
H37    H     0.06980   0.10570   0.38010   0.01267  Uiso   1.00
H38    H     0.82940   0.12140   0.55520   0.01267  Uiso   1.00
H39    H     0.86810   0.04080   0.57930   0.01267  Uiso   1.00
H40    H     0.91360   0.48430   0.61180   0.01267  Uiso   1.00
H41    H     0.86190   0.40140   0.61060   0.01267  Uiso   1.00
H42    H     0.99560   0.36820   0.39070   0.01267  Uiso   1.00
H43    H     0.53600   0.14180   0.44330   0.01267  Uiso   1.00
H44    H     0.65550   0.10210   0.22110   0.01267  Uiso   1.00
H45    H     0.56940   0.02410   0.21790   0.01267  Uiso   1.00
H46    H     0.50300   0.96150   0.22460   0.01267  Uiso   1.00
H47    H     0.46800   0.87840   0.23570   0.01267  Uiso   1.00
H48    H     0.37230   0.91750   0.46340   0.01267  Uiso   1.00
H49    H     0.56290   0.51330   0.22810   0.01267  Uiso   1.00
H50    H     0.52460   0.59620   0.21750   0.01267  Uiso   1.00
H51    H     0.36190   0.61260   0.42940   0.01267  Uiso   1.00
H52    H     0.48590   0.38190   0.45610   0.01267  Uiso   1.00
H53    H     0.69150   0.37320   0.26240   0.01267  Uiso   1.00
H54    H     0.63460   0.45300   0.24440   0.01267  Uiso   1.00
H55    H     0.56980   0.89430   0.11990   0.01267  Uiso   1.00
H56    H     0.32940   0.87860   0.94480   0.01267  Uiso   1.00
H57    H     0.36810   0.95920   0.92070   0.01267  Uiso   1.00
H58    H     0.41360   0.51570   0.88820   0.01267  Uiso   1.00
H59    H     0.36190   0.59860   0.88940   0.01267  Uiso   1.00
H60    H     0.49560   0.63180   0.10930   0.01267  Uiso   1.00
H61    H     0.03600   0.85820   0.05670   0.01267  Uiso   1.00
H62    H     0.15550   0.89790   0.27890   0.01267  Uiso   1.00
H63    H     0.06940   0.97590   0.28210   0.01267  Uiso   1.00
H64    H     0.00300   0.03850   0.27540   0.01267  Uiso   1.00
H65    H     0.96800   0.12160   0.26430   0.01267  Uiso   1.00
H66    H     0.87230   0.08250   0.03660   0.01267  Uiso   1.00
H67    H     0.06290   0.48670   0.27190   0.01267  Uiso   1.00
H68    H     0.02460   0.40380   0.28250   0.01267  Uiso   1.00
H69    H     0.86190   0.38740   0.07060   0.01267  Uiso   1.00
H70    H     0.98590   0.61810   0.04390   0.01267  Uiso   1.00
H71    H     0.19150   0.62680   0.23760   0.01267  Uiso   1.00
H72    H     0.13460   0.54700   0.25560   0.01267  Uiso   1.00
C1     C     0.00790   0.97500   0.50590   0.01267  Uiso   1.00
C2     C     0.97060   0.90730   0.57990   0.01267  Uiso   1.00
C3     C     0.05420   0.87844   0.53470   0.01267  Uiso   1.00
C4     C     0.11470   0.89790   0.47500   0.01267  Uiso   1.00
C5     C     0.09150   0.94620   0.46060   0.01267  Uiso   1.00
C6     C     0.08310   0.82770   0.55170   0.01267  Uiso   1.00
C7     C     0.01450   0.52400   0.49800   0.01267  Uiso   1.00
C8     C     0.07000   0.53890   0.43250   0.01267  Uiso   1.00
C9     C     0.10100   0.58860   0.43320   0.01267  Uiso   1.00
C10    C     0.07640   0.62340   0.49950   0.01267  Uiso   1.00
C11    C     0.02090   0.60850   0.56500   0.01267  Uiso   1.00
C12    C     0.12020   0.67560   0.50410   0.01267  Uiso   1.00
C13    C     0.49890   0.96368   0.67120   0.01267  Uiso   1.00
C14    C     0.45730   0.88170   0.60180   0.01267  Uiso   1.00
C15    C     0.39570   0.87030   0.66750   0.01267  Uiso   1.00
C16    C     0.38570   0.90560   0.73500   0.01267  Uiso   1.00
C17    C     0.43730   0.95230   0.73690   0.01267  Uiso   1.00
C18    C     0.32580   0.82360   0.66460   0.01267  Uiso   1.00
C19    C     0.54140   0.01073   0.66270   0.01267  Uiso   1.00
C20    C     0.52320   0.04730   0.72760   0.01267  Uiso   1.00
C21    C     0.54420   0.09710   0.72090   0.01267  Uiso   1.00
C22    C     0.58330   0.11028   0.64930   0.01267  Uiso   1.00
C23    C     0.60150   0.07370   0.58440   0.01267  Uiso   1.00
C24    C     0.59210   0.16430   0.64200   0.01267  Uiso   1.00
C25    C     0.51470   0.48671   0.66490   0.01267  Uiso   1.00
C26    C     0.47740   0.46680   0.73150   0.01267  Uiso   1.00
C27    C     0.50030   0.41710   0.73790   0.01267  Uiso   1.00
C28    C     0.56050   0.38738   0.67760   0.01267  Uiso   1.00
C29    C     0.59780   0.40730   0.61100   0.01267  Uiso   1.00
C30    C     0.58030   0.33440   0.68850   0.01267  Uiso   1.00
C31    C     0.47380   0.53470   0.66060   0.01267  Uiso   1.00
C32    C     0.48430   0.60380   0.58630   0.01267  Uiso   1.00
C33    C     0.40560   0.63040   0.63890   0.01267  Uiso   1.00
C34    C     0.36110   0.60910   0.70240   0.01267  Uiso   1.00
C35    C     0.39520   0.56120   0.71320   0.01267  Uiso   1.00
C36    C     0.35700   0.67830   0.62030   0.01267  Uiso   1.00
C37    C     0.50790   0.02500   0.99410   0.01267  Uiso   1.00
C38    C     0.47060   0.09270   0.92010   0.01267  Uiso   1.00
C39    C     0.55420   0.12156   0.96530   0.01267  Uiso   1.00
C40    C     0.61470   0.10210   0.02500   0.01267  Uiso   1.00
C41    C     0.59150   0.05380   0.03940   0.01267  Uiso   1.00
C42    C     0.58310   0.17230   0.94830   0.01267  Uiso   1.00
C43    C     0.51450   0.47600   0.00200   0.01267  Uiso   1.00
C44    C     0.57000   0.46110   0.06750   0.01267  Uiso   1.00
C45    C     0.60100   0.41140   0.06680   0.01267  Uiso   1.00
C46    C     0.57640   0.37660   0.00050   0.01267  Uiso   1.00
C47    C     0.52090   0.39150   0.93500   0.01267  Uiso   1.00
C48    C     0.62020   0.32440   0.99590   0.01267  Uiso   1.00
C49    C     0.99890   0.03632   0.82880   0.01267  Uiso   1.00
C50    C     0.95730   0.11830   0.89820   0.01267  Uiso   1.00
C51    C     0.89570   0.12970   0.83250   0.01267  Uiso   1.00
C52    C     0.88570   0.09440   0.76500   0.01267  Uiso   1.00
C53    C     0.93730   0.04770   0.76310   0.01267  Uiso   1.00
C54    C     0.82580   0.17640   0.83540   0.01267  Uiso   1.00
C55    C     0.04140   0.98927   0.83730   0.01267  Uiso   1.00
C56    C     0.02320   0.95270   0.77240   0.01267  Uiso   1.00
C57    C     0.04420   0.90290   0.77910   0.01267  Uiso   1.00
C58    C     0.08330   0.88972   0.85070   0.01267  Uiso   1.00
C59    C     0.10150   0.92630   0.91560   0.01267  Uiso   1.00
C60    C     0.09210   0.83570   0.85800   0.01267  Uiso   1.00
C61    C     0.01470   0.51329   0.83510   0.01267  Uiso   1.00
C62    C     0.97740   0.53320   0.76850   0.01267  Uiso   1.00
C63    C     0.00030   0.58290   0.76210   0.01267  Uiso   1.00
C64    C     0.06050   0.61262   0.82240   0.01267  Uiso   1.00
C65    C     0.09780   0.59270   0.88900   0.01267  Uiso   1.00
C66    C     0.08030   0.66560   0.81150   0.01267  Uiso   1.00
C67    C     0.97380   0.46530   0.83940   0.01267  Uiso   1.00
C68    C     0.98430   0.39620   0.91370   0.01267  Uiso   1.00
C69    C     0.90560   0.36960   0.86110   0.01267  Uiso   1.00
C70    C     0.86110   0.39090   0.79760   0.01267  Uiso   1.00
C71    C     0.89520   0.43880   0.78680   0.01267  Uiso   1.00
C72    C     0.85700   0.32170   0.87970   0.01267  Uiso   1.00
C73    C     0.99210   0.02500   0.49410   0.01267  Uiso   1.00
C74    C     0.02940   0.09270   0.42010   0.01267  Uiso   1.00
C75    C     0.94580   0.12156   0.46530   0.01267  Uiso   1.00
C76    C     0.88530   0.10210   0.52500   0.01267  Uiso   1.00
C77    C     0.90850   0.05380   0.53940   0.01267  Uiso   1.00
C78    C     0.91690   0.17230   0.44830   0.01267  Uiso   1.00
C79    C     0.98550   0.47600   0.50200   0.01267  Uiso   1.00
C80    C     0.93000   0.46110   0.56750   0.01267  Uiso   1.00
C81    C     0.89900   0.41140   0.56680   0.01267  Uiso   1.00
C82    C     0.92360   0.37660   0.50050   0.01267  Uiso   1.00
C83    C     0.97910   0.39150   0.43500   0.01267  Uiso   1.00
C84    C     0.87980   0.32440   0.49590   0.01267  Uiso   1.00
C85    C     0.50110   0.03632   0.32880   0.01267  Uiso   1.00
C86    C     0.54270   0.11830   0.39820   0.01267  Uiso   1.00
C87    C     0.60430   0.12970   0.33250   0.01267  Uiso   1.00
C88    C     0.61430   0.09440   0.26500   0.01267  Uiso   1.00
C89    C     0.56270   0.04770   0.26310   0.01267  Uiso   1.00
C90    C     0.67420   0.17640   0.33540   0.01267  Uiso   1.00
C91    C     0.45860   0.98927   0.33730   0.01267  Uiso   1.00
C92    C     0.47680   0.95270   0.27240   0.01267  Uiso   1.00
C93    C     0.45580   0.90290   0.27910   0.01267  Uiso   1.00
C94    C     0.41670   0.88972   0.35070   0.01267  Uiso   1.00
C95    C     0.39850   0.92630   0.41560   0.01267  Uiso   1.00
C96    C     0.40790   0.83570   0.35800   0.01267  Uiso   1.00
C97    C     0.48530   0.51329   0.33510   0.01267  Uiso   1.00
C98    C     0.52260   0.53320   0.26850   0.01267  Uiso   1.00
C99    C     0.49970   0.58290   0.26210   0.01267  Uiso   1.00
C100   C     0.43950   0.61262   0.32240   0.01267  Uiso   1.00
C101   C     0.40220   0.59270   0.38900   0.01267  Uiso   1.00
C102   C     0.41970   0.66560   0.31150   0.01267  Uiso   1.00
C103   C     0.52620   0.46530   0.33940   0.01267  Uiso   1.00
C104   C     0.51570   0.39620   0.41370   0.01267  Uiso   1.00
C105   C     0.59440   0.36960   0.36110   0.01267  Uiso   1.00
C106   C     0.63890   0.39090   0.29760   0.01267  Uiso   1.00
C107   C     0.60480   0.43880   0.28680   0.01267  Uiso   1.00
C108   C     0.64300   0.32170   0.37970   0.01267  Uiso   1.00
C109   C     0.49210   0.97500   0.00590   0.01267  Uiso   1.00
C110   C     0.52940   0.90730   0.07990   0.01267  Uiso   1.00
C111   C     0.44580   0.87844   0.03470   0.01267  Uiso   1.00
C112   C     0.38530   0.89790   0.97500   0.01267  Uiso   1.00
C113   C     0.40850   0.94620   0.96060   0.01267  Uiso   1.00
C114   C     0.41690   0.82770   0.05170   0.01267  Uiso   1.00
C115   C     0.48550   0.52400   0.99800   0.01267  Uiso   1.00
C116   C     0.43000   0.53890   0.93250   0.01267  Uiso   1.00
C117   C     0.39900   0.58860   0.93320   0.01267  Uiso   1.00
C118   C     0.42360   0.62340   0.99950   0.01267  Uiso   1.00
C119   C     0.47910   0.60850   0.06500   0.01267  Uiso   1.00
C120   C     0.37980   0.67560   0.00410   0.01267  Uiso   1.00
C121   C     0.00110   0.96368   0.17120   0.01267  Uiso   1.00
C122   C     0.04270   0.88170   0.10180   0.01267  Uiso   1.00
C123   C     0.10430   0.87030   0.16750   0.01267  Uiso   1.00
C124   C     0.11430   0.90560   0.23500   0.01267  Uiso   1.00
C125   C     0.06270   0.95230   0.23690   0.01267  Uiso   1.00
C126   C     0.17420   0.82360   0.16460   0.01267  Uiso   1.00
C127   C     0.95860   0.01073   0.16270   0.01267  Uiso   1.00
C128   C     0.97680   0.04730   0.22760   0.01267  Uiso   1.00
C129   C     0.95580   0.09710   0.22090   0.01267  Uiso   1.00
C130   C     0.91670   0.11028   0.14930   0.01267  Uiso   1.00
C131   C     0.89850   0.07370   0.08440   0.01267  Uiso   1.00
C132   C     0.90790   0.16430   0.14200   0.01267  Uiso   1.00
C133   C     0.98530   0.48671   0.16490   0.01267  Uiso   1.00
C134   C     0.02260   0.46680   0.23150   0.01267  Uiso   1.00
C135   C     0.99970   0.41710   0.23790   0.01267  Uiso   1.00
C136   C     0.93950   0.38738   0.17760   0.01267  Uiso   1.00
C137   C     0.90220   0.40730   0.11100   0.01267  Uiso   1.00
C138   C     0.91970   0.33440   0.18850   0.01267  Uiso   1.00
C139   C     0.02620   0.53470   0.16060   0.01267  Uiso   1.00
C140   C     0.01570   0.60380   0.08630   0.01267  Uiso   1.00
C141   C     0.09440   0.63040   0.13890   0.01267  Uiso   1.00
C142   C     0.13890   0.60910   0.20240   0.01267  Uiso   1.00
C143   C     0.10480   0.56120   0.21320   0.01267  Uiso   1.00
C144   C     0.14300   0.67830   0.12030   0.01267  Uiso   1.00
N1     N     0.94740   0.95550   0.56550   0.01267  Uiso   1.00
N2     N     0.98990   0.55880   0.56430   0.01267  Uiso   1.00
N3     N     0.50890   0.92840   0.60370   0.01267  Uiso   1.00
N4     N     0.58050   0.02390   0.59110   0.01267  Uiso   1.00
N5     N     0.57490   0.45700   0.60460   0.01267  Uiso   1.00
N6     N     0.51840   0.55600   0.59710   0.01267  Uiso   1.00
N7     N     0.44740   0.04450   0.93450   0.01267  Uiso   1.00
N8     N     0.48990   0.44120   0.93570   0.01267  Uiso   1.00
N9     N     0.00890   0.07160   0.89630   0.01267  Uiso   1.00
N10    N     0.08050   0.97610   0.90890   0.01267  Uiso   1.00
N11    N     0.07490   0.54300   0.89540   0.01267  Uiso   1.00
N12    N     0.01840   0.44400   0.90290   0.01267  Uiso   1.00
N13    N     0.05260   0.04450   0.43450   0.01267  Uiso   1.00
N14    N     0.01010   0.44120   0.43570   0.01267  Uiso   1.00
N15    N     0.49110   0.07160   0.39630   0.01267  Uiso   1.00
N16    N     0.41950   0.97610   0.40890   0.01267  Uiso   1.00
N17    N     0.42510   0.54300   0.39540   0.01267  Uiso   1.00
N18    N     0.48160   0.44400   0.40290   0.01267  Uiso   1.00
N19    N     0.55260   0.95550   0.06550   0.01267  Uiso   1.00
N20    N     0.51010   0.55880   0.06430   0.01267  Uiso   1.00
N21    N     0.99110   0.92840   0.10370   0.01267  Uiso   1.00
N22    N     0.91950   0.02390   0.09110   0.01267  Uiso   1.00
N23    N     0.92510   0.45700   0.10460   0.01267  Uiso   1.00
N24    N     0.98160   0.55600   0.09710   0.01267  Uiso   1.00
O1     O     0.10040   0.70300   0.56820   0.01267  Uiso   1.00
O2     O     0.27420   0.81520   0.72300   0.01267  Uiso   1.00
O3     O     0.30130   0.70310   0.67590   0.01267  Uiso   1.00
O4     O     0.05430   0.81660   0.61610   0.01267  Uiso   1.00
O5     O     0.56130   0.19500   0.69840   0.01267  Uiso   1.00
O6     O     0.58910   0.32210   0.75400   0.01267  Uiso   1.00
O7     O     0.63820   0.17460   0.58000   0.01267  Uiso   1.00
O8     O     0.32940   0.79660   0.60110   0.01267  Uiso   1.00
O9     O     0.14110   0.80080   0.49760   0.01267  Uiso   1.00
O10    O     0.17150   0.68660   0.44450   0.01267  Uiso   1.00
O11    O     0.37700   0.68900   0.55350   0.01267  Uiso   1.00
O12    O     0.57580   0.30480   0.62090   0.01267  Uiso   1.00
O13    O     0.60040   0.29700   0.93180   0.01267  Uiso   1.00
O14    O     0.77420   0.18480   0.77700   0.01267  Uiso   1.00
O15    O     0.80130   0.29690   0.82410   0.01267  Uiso   1.00
O16    O     0.55430   0.18340   0.88390   0.01267  Uiso   1.00
O17    O     0.06130   0.80500   0.80160   0.01267  Uiso   1.00
O18    O     0.08910   0.67790   0.74600   0.01267  Uiso   1.00
O19    O     0.13820   0.82540   0.92000   0.01267  Uiso   1.00
O20    O     0.82940   0.20340   0.89890   0.01267  Uiso   1.00
O21    O     0.64110   0.19920   0.00240   0.01267  Uiso   1.00
O22    O     0.67150   0.31340   0.05550   0.01267  Uiso   1.00
O23    O     0.87700   0.31100   0.94650   0.01267  Uiso   1.00
O24    O     0.07580   0.69520   0.87910   0.01267  Uiso   1.00
O25    O     0.89960   0.29700   0.43180   0.01267  Uiso   1.00
O26    O     0.72580   0.18480   0.27700   0.01267  Uiso   1.00
O27    O     0.69870   0.29690   0.32410   0.01267  Uiso   1.00
O28    O     0.94570   0.18340   0.38390   0.01267  Uiso   1.00
O29    O     0.43870   0.80500   0.30160   0.01267  Uiso   1.00
O30    O     0.41090   0.67790   0.24600   0.01267  Uiso   1.00
O31    O     0.36180   0.82540   0.42000   0.01267  Uiso   1.00
O32    O     0.67060   0.20340   0.39890   0.01267  Uiso   1.00
O33    O     0.85890   0.19920   0.50240   0.01267  Uiso   1.00
O34    O     0.82850   0.31340   0.55550   0.01267  Uiso   1.00
O35    O     0.62300   0.31100   0.44650   0.01267  Uiso   1.00
O36    O     0.42420   0.69520   0.37910   0.01267  Uiso   1.00
O37    O     0.39960   0.70300   0.06820   0.01267  Uiso   1.00
O38    O     0.22580   0.81520   0.22300   0.01267  Uiso   1.00
O39    O     0.19870   0.70310   0.17590   0.01267  Uiso   1.00
O40    O     0.44570   0.81660   0.11610   0.01267  Uiso   1.00
O41    O     0.93870   0.19500   0.19840   0.01267  Uiso   1.00
O42    O     0.91090   0.32210   0.25400   0.01267  Uiso   1.00
O43    O     0.86180   0.17460   0.08000   0.01267  Uiso   1.00
O44    O     0.17060   0.79660   0.10110   0.01267  Uiso   1.00
O45    O     0.35890   0.80080   0.99760   0.01267  Uiso   1.00
O46    O     0.32850   0.68660   0.94450   0.01267  Uiso   1.00
O47    O     0.12300   0.68900   0.05350   0.01267  Uiso   1.00
O48    O     0.92420   0.30480   0.12090   0.01267  Uiso   1.00
