data_PEFRUP_clean
_audit_creation_date              2014-07-02
_audit_creation_method            'Materials Studio'
_symmetry_space_group_name_H-M    'P1'
_symmetry_Int_Tables_number       1
_symmetry_cell_setting            triclinic
loop_
_symmetry_equiv_pos_as_xyz
  x,y,z
_cell_length_a                    15.1875
_cell_length_b                    25.6487
_cell_length_c                    17.0378
_cell_angle_alpha                 97.9100
_cell_angle_beta                  90.0000
_cell_angle_gamma                 90.0000
loop_
_atom_site_label
_atom_site_type_symbol
_atom_site_fract_x
_atom_site_fract_y
_atom_site_fract_z
_atom_site_U_iso_or_equiv
_atom_site_adp_type
_atom_site_occupancy
Gd1    Gd    0.67076   0.75029   0.31498   0.01267  Uiso   1.00
Gd2    Gd    0.20429   0.25038   0.46322   0.01267  Uiso   1.00
Gd3    Gd    0.17076   0.24971   0.18502   0.01267  Uiso   1.00
Gd4    Gd    0.70429   0.74962   0.03678   0.01267  Uiso   1.00
Gd5    Gd    0.32924   0.24971   0.68502   0.01267  Uiso   1.00
Gd6    Gd    0.79571   0.74962   0.53678   0.01267  Uiso   1.00
Gd7    Gd    0.82924   0.75029   0.81498   0.01267  Uiso   1.00
Gd8    Gd    0.29571   0.25038   0.96322   0.01267  Uiso   1.00
H1     H     0.50120   0.61580   0.38300   0.01267  Uiso   1.00
H2     H     0.65980   0.61310   0.57120   0.01267  Uiso   1.00
H3     H     0.60340   0.53150   0.58930   0.01267  Uiso   1.00
H4     H     0.56450   0.86710   0.39150   0.01267  Uiso   1.00
H5     H     0.63890   0.91180   0.61710   0.01267  Uiso   1.00
H6     H     0.56650   0.99140   0.61680   0.01267  Uiso   1.00
H7     H     0.91530   0.63950   0.45490   0.01267  Uiso   1.00
H8     H     0.84260   0.59520   0.22870   0.01267  Uiso   1.00
H9     H     0.93010   0.52060   0.22390   0.01267  Uiso   1.00
H10    H     0.14530   0.42740   0.45020   0.01267  Uiso   1.00
H11    H     0.03960   0.37100   0.23930   0.01267  Uiso   1.00
H12    H     0.97460   0.45210   0.23250   0.01267  Uiso   1.00
H13    H     0.03350   0.09360   0.20980   0.01267  Uiso   1.00
H14    H     0.14220   0.10420   0.42640   0.01267  Uiso   1.00
H15    H     0.08750   0.02150   0.44040   0.01267  Uiso   1.00
H16    H     0.97670   0.87560   0.46560   0.01267  Uiso   1.00
H17    H     0.83560   0.87740   0.26650   0.01267  Uiso   1.00
H18    H     0.90790   0.95340   0.24310   0.01267  Uiso   1.00
H19    H     0.00120   0.38420   0.11700   0.01267  Uiso   1.00
H20    H     0.15980   0.38690   0.92880   0.01267  Uiso   1.00
H21    H     0.10340   0.46850   0.91070   0.01267  Uiso   1.00
H22    H     0.06450   0.13290   0.10850   0.01267  Uiso   1.00
H23    H     0.13890   0.08820   0.88290   0.01267  Uiso   1.00
H24    H     0.06650   0.00860   0.88320   0.01267  Uiso   1.00
H25    H     0.41530   0.36050   0.04510   0.01267  Uiso   1.00
H26    H     0.34260   0.40480   0.27130   0.01267  Uiso   1.00
H27    H     0.43010   0.47940   0.27610   0.01267  Uiso   1.00
H28    H     0.64530   0.57260   0.04980   0.01267  Uiso   1.00
H29    H     0.53960   0.62900   0.26070   0.01267  Uiso   1.00
H30    H     0.47460   0.54790   0.26750   0.01267  Uiso   1.00
H31    H     0.53350   0.90640   0.29020   0.01267  Uiso   1.00
H32    H     0.64220   0.89580   0.07360   0.01267  Uiso   1.00
H33    H     0.58750   0.97850   0.05960   0.01267  Uiso   1.00
H34    H     0.47670   0.12440   0.03440   0.01267  Uiso   1.00
H35    H     0.33560   0.12260   0.23350   0.01267  Uiso   1.00
H36    H     0.40790   0.04660   0.25690   0.01267  Uiso   1.00
H37    H     0.49880   0.38420   0.61700   0.01267  Uiso   1.00
H38    H     0.34020   0.38690   0.42880   0.01267  Uiso   1.00
H39    H     0.39660   0.46850   0.41070   0.01267  Uiso   1.00
H40    H     0.43550   0.13290   0.60850   0.01267  Uiso   1.00
H41    H     0.36110   0.08820   0.38290   0.01267  Uiso   1.00
H42    H     0.43350   0.00860   0.38320   0.01267  Uiso   1.00
H43    H     0.08470   0.36050   0.54510   0.01267  Uiso   1.00
H44    H     0.15740   0.40480   0.77130   0.01267  Uiso   1.00
H45    H     0.06990   0.47940   0.77610   0.01267  Uiso   1.00
H46    H     0.85470   0.57260   0.54980   0.01267  Uiso   1.00
H47    H     0.96040   0.62900   0.76070   0.01267  Uiso   1.00
H48    H     0.02540   0.54790   0.76750   0.01267  Uiso   1.00
H49    H     0.96650   0.90640   0.79020   0.01267  Uiso   1.00
H50    H     0.85780   0.89580   0.57360   0.01267  Uiso   1.00
H51    H     0.91250   0.97850   0.55960   0.01267  Uiso   1.00
H52    H     0.02330   0.12440   0.53440   0.01267  Uiso   1.00
H53    H     0.16440   0.12260   0.73350   0.01267  Uiso   1.00
H54    H     0.09210   0.04660   0.75690   0.01267  Uiso   1.00
H55    H     0.99880   0.61580   0.88300   0.01267  Uiso   1.00
H56    H     0.84020   0.61310   0.07120   0.01267  Uiso   1.00
H57    H     0.89660   0.53150   0.08930   0.01267  Uiso   1.00
H58    H     0.93550   0.86710   0.89150   0.01267  Uiso   1.00
H59    H     0.86110   0.91180   0.11710   0.01267  Uiso   1.00
H60    H     0.93350   0.99140   0.11680   0.01267  Uiso   1.00
H61    H     0.58470   0.63950   0.95490   0.01267  Uiso   1.00
H62    H     0.65740   0.59520   0.72870   0.01267  Uiso   1.00
H63    H     0.56990   0.52060   0.72390   0.01267  Uiso   1.00
H64    H     0.35470   0.42740   0.95020   0.01267  Uiso   1.00
H65    H     0.46040   0.37100   0.73930   0.01267  Uiso   1.00
H66    H     0.52540   0.45210   0.73250   0.01267  Uiso   1.00
H67    H     0.46650   0.09360   0.70980   0.01267  Uiso   1.00
H68    H     0.35780   0.10420   0.92640   0.01267  Uiso   1.00
H69    H     0.41250   0.02150   0.94040   0.01267  Uiso   1.00
H70    H     0.52330   0.87560   0.96560   0.01267  Uiso   1.00
H71    H     0.66440   0.87740   0.76650   0.01267  Uiso   1.00
H72    H     0.59210   0.95340   0.74310   0.01267  Uiso   1.00
C1     C     0.51850   0.52480   0.49700   0.01267  Uiso   1.00
C2     C     0.52170   0.59890   0.42440   0.01267  Uiso   1.00
C3     C     0.58610   0.62250   0.47530   0.01267  Uiso   1.00
C4     C     0.61670   0.59730   0.53710   0.01267  Uiso   1.00
C5     C     0.58290   0.54840   0.54800   0.01267  Uiso   1.00
C6     C     0.62750   0.67350   0.46100   0.01267  Uiso   1.00
C7     C     0.52220   0.97700   0.50390   0.01267  Uiso   1.00
C8     C     0.56490   0.89200   0.43660   0.01267  Uiso   1.00
C9     C     0.60890   0.88150   0.50430   0.01267  Uiso   1.00
C10    C     0.60950   0.91880   0.57180   0.01267  Uiso   1.00
C11    C     0.56610   0.96650   0.57160   0.01267  Uiso   1.00
C12    C     0.66050   0.83170   0.50380   0.01267  Uiso   1.00
C13    C     0.97510   0.53540   0.33650   0.01267  Uiso   1.00
C14    C     0.91830   0.61570   0.40860   0.01267  Uiso   1.00
C15    C     0.87030   0.62480   0.34230   0.01267  Uiso   1.00
C16    C     0.87470   0.58910   0.27310   0.01267  Uiso   1.00
C17    C     0.92710   0.54450   0.27020   0.01267  Uiso   1.00
C18    C     0.81550   0.67150   0.34360   0.01267  Uiso   1.00
C19    C     0.02100   0.48840   0.33720   0.01267  Uiso   1.00
C20    C     0.11100   0.43240   0.40660   0.01267  Uiso   1.00
C21    C     0.09890   0.39120   0.34540   0.01267  Uiso   1.00
C22    C     0.04770   0.39860   0.28020   0.01267  Uiso   1.00
C23    C     0.00880   0.44720   0.27610   0.01267  Uiso   1.00
C24    C     0.13200   0.33670   0.34870   0.01267  Uiso   1.00
C25    C     0.02770   0.00800   0.33350   0.01267  Uiso   1.00
C26    C     0.04430   0.07910   0.25600   0.01267  Uiso   1.00
C27    C     0.09330   0.10710   0.31670   0.01267  Uiso   1.00
C28    C     0.10950   0.08550   0.38580   0.01267  Uiso   1.00
C29    C     0.07670   0.03600   0.39420   0.01267  Uiso   1.00
C30    C     0.12430   0.16060   0.30550   0.01267  Uiso   1.00
C31    C     0.98560   0.96010   0.34030   0.01267  Uiso   1.00
C32    C     0.96290   0.89120   0.42100   0.01267  Uiso   1.00
C33    C     0.89900   0.86900   0.36840   0.01267  Uiso   1.00
C34    C     0.87840   0.89230   0.30170   0.01267  Uiso   1.00
C35    C     0.92170   0.93780   0.28770   0.01267  Uiso   1.00
C36    C     0.84690   0.82070   0.38320   0.01267  Uiso   1.00
C37    C     0.01850   0.47520   0.00300   0.01267  Uiso   1.00
C38    C     0.02170   0.40110   0.07560   0.01267  Uiso   1.00
C39    C     0.08610   0.37750   0.02470   0.01267  Uiso   1.00
C40    C     0.11670   0.40270   0.96290   0.01267  Uiso   1.00
C41    C     0.08290   0.45160   0.95200   0.01267  Uiso   1.00
C42    C     0.12750   0.32650   0.03900   0.01267  Uiso   1.00
C43    C     0.02220   0.02300   0.99610   0.01267  Uiso   1.00
C44    C     0.06490   0.10800   0.06340   0.01267  Uiso   1.00
C45    C     0.10890   0.11850   0.99570   0.01267  Uiso   1.00
C46    C     0.10950   0.08120   0.92820   0.01267  Uiso   1.00
C47    C     0.06610   0.03350   0.92840   0.01267  Uiso   1.00
C48    C     0.16050   0.16830   0.99620   0.01267  Uiso   1.00
C49    C     0.47510   0.46460   0.16350   0.01267  Uiso   1.00
C50    C     0.41830   0.38430   0.09140   0.01267  Uiso   1.00
C51    C     0.37030   0.37520   0.15770   0.01267  Uiso   1.00
C52    C     0.37470   0.41090   0.22690   0.01267  Uiso   1.00
C53    C     0.42710   0.45550   0.22980   0.01267  Uiso   1.00
C54    C     0.31550   0.32850   0.15640   0.01267  Uiso   1.00
C55    C     0.52100   0.51160   0.16280   0.01267  Uiso   1.00
C56    C     0.61100   0.56760   0.09340   0.01267  Uiso   1.00
C57    C     0.59890   0.60880   0.15460   0.01267  Uiso   1.00
C58    C     0.54770   0.60140   0.21980   0.01267  Uiso   1.00
C59    C     0.50880   0.55280   0.22390   0.01267  Uiso   1.00
C60    C     0.63200   0.66330   0.15130   0.01267  Uiso   1.00
C61    C     0.52770   0.99200   0.16650   0.01267  Uiso   1.00
C62    C     0.54430   0.92090   0.24400   0.01267  Uiso   1.00
C63    C     0.59330   0.89290   0.18330   0.01267  Uiso   1.00
C64    C     0.60950   0.91450   0.11420   0.01267  Uiso   1.00
C65    C     0.57670   0.96400   0.10580   0.01267  Uiso   1.00
C66    C     0.62430   0.83940   0.19450   0.01267  Uiso   1.00
C67    C     0.48560   0.03990   0.15970   0.01267  Uiso   1.00
C68    C     0.46290   0.10880   0.07900   0.01267  Uiso   1.00
C69    C     0.39900   0.13100   0.13160   0.01267  Uiso   1.00
C70    C     0.37840   0.10770   0.19830   0.01267  Uiso   1.00
C71    C     0.42170   0.06220   0.21230   0.01267  Uiso   1.00
C72    C     0.34690   0.17930   0.11680   0.01267  Uiso   1.00
C73    C     0.48150   0.47520   0.50300   0.01267  Uiso   1.00
C74    C     0.47830   0.40110   0.57560   0.01267  Uiso   1.00
C75    C     0.41390   0.37750   0.52470   0.01267  Uiso   1.00
C76    C     0.38330   0.40270   0.46290   0.01267  Uiso   1.00
C77    C     0.41710   0.45160   0.45200   0.01267  Uiso   1.00
C78    C     0.37250   0.32650   0.53900   0.01267  Uiso   1.00
C79    C     0.47780   0.02300   0.49610   0.01267  Uiso   1.00
C80    C     0.43510   0.10800   0.56340   0.01267  Uiso   1.00
C81    C     0.39110   0.11850   0.49570   0.01267  Uiso   1.00
C82    C     0.39050   0.08120   0.42820   0.01267  Uiso   1.00
C83    C     0.43390   0.03350   0.42840   0.01267  Uiso   1.00
C84    C     0.33950   0.16830   0.49620   0.01267  Uiso   1.00
C85    C     0.02490   0.46460   0.66350   0.01267  Uiso   1.00
C86    C     0.08170   0.38430   0.59140   0.01267  Uiso   1.00
C87    C     0.12970   0.37520   0.65770   0.01267  Uiso   1.00
C88    C     0.12530   0.41090   0.72690   0.01267  Uiso   1.00
C89    C     0.07290   0.45550   0.72980   0.01267  Uiso   1.00
C90    C     0.18450   0.32850   0.65640   0.01267  Uiso   1.00
C91    C     0.97900   0.51160   0.66280   0.01267  Uiso   1.00
C92    C     0.88900   0.56760   0.59340   0.01267  Uiso   1.00
C93    C     0.90110   0.60880   0.65460   0.01267  Uiso   1.00
C94    C     0.95230   0.60140   0.71980   0.01267  Uiso   1.00
C95    C     0.99120   0.55280   0.72390   0.01267  Uiso   1.00
C96    C     0.86800   0.66330   0.65130   0.01267  Uiso   1.00
C97    C     0.97230   0.99200   0.66650   0.01267  Uiso   1.00
C98    C     0.95570   0.92090   0.74400   0.01267  Uiso   1.00
C99    C     0.90670   0.89290   0.68330   0.01267  Uiso   1.00
C100   C     0.89050   0.91450   0.61420   0.01267  Uiso   1.00
C101   C     0.92330   0.96400   0.60580   0.01267  Uiso   1.00
C102   C     0.87570   0.83940   0.69450   0.01267  Uiso   1.00
C103   C     0.01440   0.03990   0.65970   0.01267  Uiso   1.00
C104   C     0.03710   0.10880   0.57900   0.01267  Uiso   1.00
C105   C     0.10100   0.13100   0.63160   0.01267  Uiso   1.00
C106   C     0.12160   0.10770   0.69830   0.01267  Uiso   1.00
C107   C     0.07830   0.06220   0.71230   0.01267  Uiso   1.00
C108   C     0.15310   0.17930   0.61680   0.01267  Uiso   1.00
C109   C     0.98150   0.52480   0.99700   0.01267  Uiso   1.00
C110   C     0.97830   0.59890   0.92440   0.01267  Uiso   1.00
C111   C     0.91390   0.62250   0.97530   0.01267  Uiso   1.00
C112   C     0.88330   0.59730   0.03710   0.01267  Uiso   1.00
C113   C     0.91710   0.54840   0.04800   0.01267  Uiso   1.00
C114   C     0.87250   0.67350   0.96100   0.01267  Uiso   1.00
C115   C     0.97780   0.97700   0.00390   0.01267  Uiso   1.00
C116   C     0.93510   0.89200   0.93660   0.01267  Uiso   1.00
C117   C     0.89110   0.88150   0.00430   0.01267  Uiso   1.00
C118   C     0.89050   0.91880   0.07180   0.01267  Uiso   1.00
C119   C     0.93390   0.96650   0.07160   0.01267  Uiso   1.00
C120   C     0.83950   0.83170   0.00380   0.01267  Uiso   1.00
C121   C     0.52490   0.53540   0.83650   0.01267  Uiso   1.00
C122   C     0.58170   0.61570   0.90860   0.01267  Uiso   1.00
C123   C     0.62970   0.62480   0.84230   0.01267  Uiso   1.00
C124   C     0.62530   0.58910   0.77310   0.01267  Uiso   1.00
C125   C     0.57290   0.54450   0.77020   0.01267  Uiso   1.00
C126   C     0.68450   0.67150   0.84360   0.01267  Uiso   1.00
C127   C     0.47900   0.48840   0.83720   0.01267  Uiso   1.00
C128   C     0.38900   0.43240   0.90660   0.01267  Uiso   1.00
C129   C     0.40110   0.39120   0.84540   0.01267  Uiso   1.00
C130   C     0.45230   0.39860   0.78020   0.01267  Uiso   1.00
C131   C     0.49120   0.44720   0.77610   0.01267  Uiso   1.00
C132   C     0.36800   0.33670   0.84870   0.01267  Uiso   1.00
C133   C     0.47230   0.00800   0.83350   0.01267  Uiso   1.00
C134   C     0.45570   0.07910   0.75600   0.01267  Uiso   1.00
C135   C     0.40670   0.10710   0.81670   0.01267  Uiso   1.00
C136   C     0.39050   0.08550   0.88580   0.01267  Uiso   1.00
C137   C     0.42330   0.03600   0.89420   0.01267  Uiso   1.00
C138   C     0.37570   0.16060   0.80550   0.01267  Uiso   1.00
C139   C     0.51440   0.96010   0.84030   0.01267  Uiso   1.00
C140   C     0.53710   0.89120   0.92100   0.01267  Uiso   1.00
C141   C     0.60100   0.86900   0.86840   0.01267  Uiso   1.00
C142   C     0.62160   0.89230   0.80170   0.01267  Uiso   1.00
C143   C     0.57830   0.93780   0.78770   0.01267  Uiso   1.00
C144   C     0.65310   0.82070   0.88320   0.01267  Uiso   1.00
N1     N     0.48790   0.55010   0.43520   0.01267  Uiso   1.00
N2     N     0.52160   0.93970   0.43650   0.01267  Uiso   1.00
N3     N     0.97060   0.57100   0.40570   0.01267  Uiso   1.00
N4     N     0.07210   0.48100   0.40250   0.01267  Uiso   1.00
N5     N     0.01150   0.02960   0.26440   0.01267  Uiso   1.00
N6     N     0.00620   0.93680   0.40700   0.01267  Uiso   1.00
N7     N     0.98790   0.44990   0.06480   0.01267  Uiso   1.00
N8     N     0.02160   0.06030   0.06350   0.01267  Uiso   1.00
N9     N     0.47060   0.42900   0.09430   0.01267  Uiso   1.00
N10    N     0.57210   0.51900   0.09750   0.01267  Uiso   1.00
N11    N     0.51150   0.97040   0.23560   0.01267  Uiso   1.00
N12    N     0.50620   0.06320   0.09300   0.01267  Uiso   1.00
N13    N     0.51210   0.44990   0.56480   0.01267  Uiso   1.00
N14    N     0.47840   0.06030   0.56350   0.01267  Uiso   1.00
N15    N     0.02940   0.42900   0.59430   0.01267  Uiso   1.00
N16    N     0.92790   0.51900   0.59750   0.01267  Uiso   1.00
N17    N     0.98850   0.97040   0.73560   0.01267  Uiso   1.00
N18    N     0.99380   0.06320   0.59300   0.01267  Uiso   1.00
N19    N     0.01210   0.55010   0.93520   0.01267  Uiso   1.00
N20    N     0.97840   0.93970   0.93650   0.01267  Uiso   1.00
N21    N     0.52940   0.57100   0.90570   0.01267  Uiso   1.00
N22    N     0.42790   0.48100   0.90250   0.01267  Uiso   1.00
N23    N     0.48850   0.02960   0.76440   0.01267  Uiso   1.00
N24    N     0.49380   0.93680   0.90700   0.01267  Uiso   1.00
O1     O     0.66020   0.80180   0.44090   0.01267  Uiso   1.00
O2     O     0.77550   0.67930   0.28230   0.01267  Uiso   1.00
O3     O     0.80250   0.79930   0.32910   0.01267  Uiso   1.00
O4     O     0.61350   0.68510   0.39150   0.01267  Uiso   1.00
O5     O     0.11480   0.30130   0.29510   0.01267  Uiso   1.00
O6     O     0.13820   0.17240   0.24100   0.01267  Uiso   1.00
O7     O     0.17620   0.33120   0.41040   0.01267  Uiso   1.00
O8     O     0.80610   0.70130   0.40810   0.01267  Uiso   1.00
O9     O     0.66270   0.70080   0.51530   0.01267  Uiso   1.00
O10    O     0.69700   0.82200   0.56520   0.01267  Uiso   1.00
O11    O     0.85120   0.81080   0.45290   0.01267  Uiso   1.00
O12    O     0.13770   0.19160   0.36700   0.01267  Uiso   1.00
O13    O     0.16020   0.19820   0.05910   0.01267  Uiso   1.00
O14    O     0.27550   0.32070   0.21770   0.01267  Uiso   1.00
O15    O     0.30250   0.20070   0.17090   0.01267  Uiso   1.00
O16    O     0.11350   0.31490   0.10850   0.01267  Uiso   1.00
O17    O     0.61480   0.69870   0.20490   0.01267  Uiso   1.00
O18    O     0.63820   0.82760   0.25900   0.01267  Uiso   1.00
O19    O     0.67620   0.66880   0.08960   0.01267  Uiso   1.00
O20    O     0.30610   0.29870   0.09190   0.01267  Uiso   1.00
O21    O     0.16270   0.29920   0.98470   0.01267  Uiso   1.00
O22    O     0.19700   0.17800   0.93480   0.01267  Uiso   1.00
O23    O     0.35120   0.18920   0.04710   0.01267  Uiso   1.00
O24    O     0.63770   0.80840   0.13300   0.01267  Uiso   1.00
O25    O     0.33980   0.19820   0.55910   0.01267  Uiso   1.00
O26    O     0.22450   0.32070   0.71770   0.01267  Uiso   1.00
O27    O     0.19750   0.20070   0.67090   0.01267  Uiso   1.00
O28    O     0.38650   0.31490   0.60850   0.01267  Uiso   1.00
O29    O     0.88520   0.69870   0.70490   0.01267  Uiso   1.00
O30    O     0.86180   0.82760   0.75900   0.01267  Uiso   1.00
O31    O     0.82380   0.66880   0.58960   0.01267  Uiso   1.00
O32    O     0.19390   0.29870   0.59190   0.01267  Uiso   1.00
O33    O     0.33730   0.29920   0.48470   0.01267  Uiso   1.00
O34    O     0.30300   0.17800   0.43480   0.01267  Uiso   1.00
O35    O     0.14880   0.18920   0.54710   0.01267  Uiso   1.00
O36    O     0.86230   0.80840   0.63300   0.01267  Uiso   1.00
O37    O     0.83980   0.80180   0.94090   0.01267  Uiso   1.00
O38    O     0.72450   0.67930   0.78230   0.01267  Uiso   1.00
O39    O     0.69750   0.79930   0.82910   0.01267  Uiso   1.00
O40    O     0.88650   0.68510   0.89150   0.01267  Uiso   1.00
O41    O     0.38520   0.30130   0.79510   0.01267  Uiso   1.00
O42    O     0.36180   0.17240   0.74100   0.01267  Uiso   1.00
O43    O     0.32380   0.33120   0.91040   0.01267  Uiso   1.00
O44    O     0.69390   0.70130   0.90810   0.01267  Uiso   1.00
O45    O     0.83730   0.70080   0.01530   0.01267  Uiso   1.00
O46    O     0.80300   0.82200   0.06520   0.01267  Uiso   1.00
O47    O     0.64880   0.81080   0.95290   0.01267  Uiso   1.00
O48    O     0.36230   0.19160   0.86700   0.01267  Uiso   1.00
