data_PEFSUQ_clean
_audit_creation_date              2014-07-02
_audit_creation_method            'Materials Studio'
_symmetry_space_group_name_H-M    'P1'
_symmetry_Int_Tables_number       1
_symmetry_cell_setting            triclinic
loop_
_symmetry_equiv_pos_as_xyz
  x,y,z
_cell_length_a                    12.7711
_cell_length_b                    14.2290
_cell_length_c                    16.0030
_cell_angle_alpha                 106.6400
_cell_angle_beta                  103.9350
_cell_angle_gamma                 106.6060
loop_
_atom_site_label
_atom_site_type_symbol
_atom_site_fract_x
_atom_site_fract_y
_atom_site_fract_z
_atom_site_U_iso_or_equiv
_atom_site_adp_type
_atom_site_occupancy
Cu1    Cu    0.53293   0.13320   0.26529   0.01267  Uiso   1.00
Cu2    Cu    0.72625   0.95689   0.05242   0.01267  Uiso   1.00
Cu3    Cu    0.58567   0.77373   0.26605   0.01267  Uiso   1.00
Cu4    Cu    0.69114   0.96234   0.49056   0.01267  Uiso   1.00
Cu5    Cu    0.48326   0.10961   0.84338   0.01267  Uiso   1.00
Cu6    Cu    0.78889   0.39541   0.14359   0.01267  Uiso   1.00
H1     H     0.74270   0.89500   0.64390   0.01267  Uiso   1.00
H2     H     0.41520   0.11090   0.06910   0.01267  Uiso   1.00
H3     H     0.93650   0.52800   0.33450   0.01267  Uiso   1.00
H4     H     0.31230   0.88980   0.73370   0.01267  Uiso   1.00
H5     H     0.89110   0.18350   0.13430   0.01267  Uiso   1.00
H6     H     0.52960   0.64340   0.37110   0.01267  Uiso   1.00
H7     H     0.39640   0.86840   0.40020   0.01267  Uiso   1.00
H8     H     0.81620   0.12540   0.27910   0.01267  Uiso   1.00
H9     H     0.82630   0.84530   0.76310   0.01267  Uiso   1.00
H10    H     0.93830   0.81840   0.75690   0.01267  Uiso   1.00
H11    H     0.95450   0.93200   0.82650   0.01267  Uiso   1.00
H12    H     0.93990   0.05870   0.49130   0.01267  Uiso   1.00
H13    H     0.06200   0.11610   0.57610   0.01267  Uiso   1.00
H14    H     0.03130   0.00200   0.49940   0.01267  Uiso   1.00
H15    H     0.34480   0.14070   0.33990   0.01267  Uiso   1.00
H16    H     0.25530   0.19720   0.31890   0.01267  Uiso   1.00
H17    H     0.20780   0.07130   0.29010   0.01267  Uiso   1.00
H18    H     0.27460   0.08870   0.93030   0.01267  Uiso   1.00
H19    H     0.14610   0.01760   0.91960   0.01267  Uiso   1.00
H20    H     0.18400   0.14300   0.94800   0.01267  Uiso   1.00
H21    H     0.49050   0.33530   0.11560   0.01267  Uiso   1.00
H22    H     0.77820   0.12840   0.90740   0.01267  Uiso   1.00
H23    H     0.31950   0.22480   0.80810   0.01267  Uiso   1.00
H24    H     0.20860   0.19330   0.71830   0.01267  Uiso   1.00
H25    H     0.19150   0.19220   0.81390   0.01267  Uiso   1.00
H26    H     0.14010   0.73540   0.64780   0.01267  Uiso   1.00
H27    H     0.02930   0.75200   0.66960   0.01267  Uiso   1.00
H28    H     0.04670   0.75430   0.57440   0.01267  Uiso   1.00
H29    H     0.10120   0.63620   0.48090   0.01267  Uiso   1.00
H30    H     0.21510   0.61140   0.47770   0.01267  Uiso   1.00
H31    H     0.20440   0.71620   0.46520   0.01267  Uiso   1.00
H32    H     0.97960   0.42370   0.05660   0.01267  Uiso   1.00
H33    H     0.09120   0.52920   0.08550   0.01267  Uiso   1.00
H34    H     0.10810   0.42580   0.09690   0.01267  Uiso   1.00
H35    H     0.44920   0.94320   0.07450   0.01267  Uiso   1.00
H36    H     0.89140   0.87960   0.32000   0.01267  Uiso   1.00
H37    H     0.34440   0.77410   0.18090   0.01267  Uiso   1.00
H38    H     0.22330   0.67380   0.13640   0.01267  Uiso   1.00
H39    H     0.24580   0.77290   0.22670   0.01267  Uiso   1.00
H40    H     0.43760   0.52160   0.42730   0.01267  Uiso   1.00
H41    H     0.32920   0.54320   0.44980   0.01267  Uiso   1.00
H42    H     0.30720   0.44480   0.35910   0.01267  Uiso   1.00
H43    H     0.07210   0.33540   0.22560   0.01267  Uiso   1.00
H44    H     0.16930   0.29610   0.27010   0.01267  Uiso   1.00
H45    H     0.17310   0.33050   0.18370   0.01267  Uiso   1.00
H46    H     0.87350   0.85740   0.97770   0.01267  Uiso   1.00
H47    H     0.99310   0.89700   0.95910   0.01267  Uiso   1.00
H48    H     0.99370   0.87480   0.05170   0.01267  Uiso   1.00
C1     C     0.48730   0.86780   0.51550   0.01267  Uiso   1.00
C2     C     0.45240   0.92720   0.46010   0.01267  Uiso   1.00
C3     C     0.55080   0.02270   0.37720   0.01267  Uiso   1.00
C4     C     0.67210   0.06440   0.37120   0.01267  Uiso   1.00
C5     C     0.77690   0.17430   0.30060   0.01267  Uiso   1.00
C6     C     0.72950   0.21020   0.22370   0.01267  Uiso   1.00
C7     C     0.86510   0.27440   0.38630   0.01267  Uiso   1.00
C8     C     0.90700   0.87440   0.76570   0.01267  Uiso   1.00
C9     C     0.90980   0.91760   0.68880   0.01267  Uiso   1.00
C10    C     0.99670   0.96460   0.66160   0.01267  Uiso   1.00
C11    C     0.94480   0.99510   0.59160   0.01267  Uiso   1.00
C12    C     0.99930   0.04760   0.53460   0.01267  Uiso   1.00
C13    C     0.27190   0.13340   0.29600   0.01267  Uiso   1.00
C14    C     0.28370   0.11930   0.20140   0.01267  Uiso   1.00
C15    C     0.19850   0.10620   0.11920   0.01267  Uiso   1.00
C16    C     0.25380   0.10320   0.05590   0.01267  Uiso   1.00
C17    C     0.21090   0.08670   0.95460   0.01267  Uiso   1.00
C18    C     0.63600   0.43660   0.23100   0.01267  Uiso   1.00
C19    C     0.56400   0.39610   0.12990   0.01267  Uiso   1.00
C20    C     0.53310   0.48780   0.11160   0.01267  Uiso   1.00
C21    C     0.43360   0.45550   0.02380   0.01267  Uiso   1.00
C22    C     0.42200   0.55200   0.00400   0.01267  Uiso   1.00
C23    C     0.32400   0.40400   0.01700   0.01267  Uiso   1.00
C24    C     0.59060   0.29110   0.99310   0.01267  Uiso   1.00
C25    C     0.69010   0.26340   0.96610   0.01267  Uiso   1.00
C26    C     0.71680   0.12520   0.85320   0.01267  Uiso   1.00
C27    C     0.77410   0.16420   0.78930   0.01267  Uiso   1.00
C28    C     0.88620   0.25580   0.83490   0.01267  Uiso   1.00
C29    C     0.93500   0.29500   0.76500   0.01267  Uiso   1.00
C30    C     0.98350   0.22700   0.89010   0.01267  Uiso   1.00
C31    C     0.62970   0.01060   0.79890   0.01267  Uiso   1.00
C32    C     0.23710   0.17860   0.77390   0.01267  Uiso   1.00
C33    C     0.22470   0.06710   0.74580   0.01267  Uiso   1.00
C34    C     0.11980   0.97470   0.69580   0.01267  Uiso   1.00
C35    C     0.15530   0.89020   0.68730   0.01267  Uiso   1.00
C36    C     0.08690   0.77280   0.64070   0.01267  Uiso   1.00
C37    C     0.16110   0.64200   0.45210   0.01267  Uiso   1.00
C38    C     0.10480   0.58210   0.34990   0.01267  Uiso   1.00
C39    C     0.15060   0.56770   0.27990   0.01267  Uiso   1.00
C40    C     0.05670   0.50500   0.19820   0.01267  Uiso   1.00
C41    C     0.05910   0.46760   0.10080   0.01267  Uiso   1.00
C42    C     0.53130   0.00180   0.99050   0.01267  Uiso   1.00
C43    C     0.48590   0.91680   0.02900   0.01267  Uiso   1.00
C44    C     0.39480   0.81220   0.94770   0.01267  Uiso   1.00
C45    C     0.28680   0.77100   0.93400   0.01267  Uiso   1.00
C46    C     0.22000   0.66600   0.84700   0.01267  Uiso   1.00
C47    C     0.21950   0.80690   0.99180   0.01267  Uiso   1.00
C48    C     0.59480   0.86100   0.13950   0.01267  Uiso   1.00
C49    C     0.71890   0.86390   0.17590   0.01267  Uiso   1.00
C50    C     0.82650   0.80800   0.29020   0.01267  Uiso   1.00
C51    C     0.79110   0.77360   0.36750   0.01267  Uiso   1.00
C52    C     0.86600   0.72900   0.23620   0.01267  Uiso   1.00
C53    C     0.93000   0.76100   0.17700   0.01267  Uiso   1.00
C54    C     0.94400   0.67400   0.11000   0.01267  Uiso   1.00
C55    C     0.04700   0.85100   0.23400   0.01267  Uiso   1.00
C56    C     0.28220   0.72930   0.19470   0.01267  Uiso   1.00
C57    C     0.33370   0.67830   0.25690   0.01267  Uiso   1.00
C58    C     0.27790   0.60910   0.29310   0.01267  Uiso   1.00
C59    C     0.36100   0.58700   0.34470   0.01267  Uiso   1.00
C60    C     0.35850   0.51800   0.40000   0.01267  Uiso   1.00
C61    C     0.12190   0.29620   0.21210   0.01267  Uiso   1.00
C62    C     0.04580   0.18250   0.14500   0.01267  Uiso   1.00
C63    C     0.07890   0.10060   0.10730   0.01267  Uiso   1.00
C64    C     0.97480   0.01580   0.05760   0.01267  Uiso   1.00
C65    C     0.95720   0.90100   0.00700   0.01267  Uiso   1.00
C66    C     0.45600   0.08600   0.57410   0.01267  Uiso   1.00
C67    C     0.37900   0.98700   0.48500   0.01267  Uiso   1.00
C68    C     0.38200   0.15600   0.58700   0.01267  Uiso   1.00
C69    C     0.56200   0.14900   0.55700   0.01267  Uiso   1.00
N1     N     0.81120   0.92000   0.63860   0.01267  Uiso   1.00
N2     N     0.83240   0.96770   0.57690   0.01267  Uiso   1.00
N3     N     0.54880   0.97360   0.43210   0.01267  Uiso   1.00
N4     N     0.67530   0.11850   0.31890   0.01267  Uiso   1.00
N5     N     0.38210   0.12140   0.18630   0.01267  Uiso   1.00
N6     N     0.36340   0.11160   0.09670   0.01267  Uiso   1.00
N7     N     0.98720   0.52930   0.30570   0.01267  Uiso   1.00
N8     N     0.95750   0.47970   0.21360   0.01267  Uiso   1.00
N9     N     0.62820   0.36110   0.07450   0.01267  Uiso   1.00
N10    N     0.64850   0.18460   0.88750   0.01267  Uiso   1.00
N11    N     0.31620   0.03780   0.76630   0.01267  Uiso   1.00
N12    N     0.27060   0.92910   0.72970   0.01267  Uiso   1.00
N13    N     0.88580   0.04190   0.06330   0.01267  Uiso   1.00
N14    N     0.93200   0.14560   0.11840   0.01267  Uiso   1.00
N15    N     0.58500   0.89980   0.07520   0.01267  Uiso   1.00
N16    N     0.72170   0.81550   0.23650   0.01267  Uiso   1.00
N17    N     0.44890   0.69870   0.28930   0.01267  Uiso   1.00
N18    N     0.46180   0.64320   0.34160   0.01267  Uiso   1.00
O1     O     0.41260   0.81030   0.53460   0.01267  Uiso   1.00
O2     O     0.59280   0.87640   0.53870   0.01267  Uiso   1.00
O3     O     0.75210   0.03860   0.41320   0.01267  Uiso   1.00
O4     O     0.46990   0.04310   0.33010   0.01267  Uiso   1.00
O5     O     0.62090   0.19610   0.19730   0.01267  Uiso   1.00
O6     O     0.79840   0.25330   0.18960   0.01267  Uiso   1.00
O7     O     0.58880   0.45330   0.29200   0.01267  Uiso   1.00
O8     O     0.74490   0.45570   0.25120   0.01267  Uiso   1.00
O9     O     0.79340   0.31330   0.02300   0.01267  Uiso   1.00
O10    O     0.48660   0.24040   0.93560   0.01267  Uiso   1.00
O11    O     0.51970   0.99090   0.77800   0.01267  Uiso   1.00
O12    O     0.66650   0.93720   0.77680   0.01267  Uiso   1.00
O13    O     0.46470   0.04020   0.95870   0.01267  Uiso   1.00
O14    O     0.63720   0.02690   0.99280   0.01267  Uiso   1.00
O15    O     0.79330   0.90430   0.14750   0.01267  Uiso   1.00
O16    O     0.51770   0.82440   0.17170   0.01267  Uiso   1.00
O17    O     0.69090   0.76190   0.36770   0.01267  Uiso   1.00
O18    O     0.86370   0.75770   0.42160   0.01267  Uiso   1.00
