data_PEGPUO_clean
_audit_creation_date              2014-07-02
_audit_creation_method            'Materials Studio'
_symmetry_space_group_name_H-M    'P1'
_symmetry_Int_Tables_number       1
_symmetry_cell_setting            triclinic
loop_
_symmetry_equiv_pos_as_xyz
  x,y,z
_cell_length_a                    16.6004
_cell_length_b                    16.6004
_cell_length_c                    16.6004
_cell_angle_alpha                 104.5730
_cell_angle_beta                  104.5730
_cell_angle_gamma                 119.7860
loop_
_atom_site_label
_atom_site_type_symbol
_atom_site_fract_x
_atom_site_fract_y
_atom_site_fract_z
_atom_site_U_iso_or_equiv
_atom_site_adp_type
_atom_site_occupancy
Pr1    Pr    0.74510   0.76164   0.36118   0.01267  Uiso   1.00
Pr2    Pr    0.48883   0.87084   0.01791   0.01267  Uiso   1.00
Pr3    Pr    0.90046   0.38392   0.13882   0.01267  Uiso   1.00
Pr4    Pr    0.35293   0.47092   0.48209   0.01267  Uiso   1.00
Pr5    Pr    0.88392   0.24510   0.48346   0.01267  Uiso   1.00
Pr6    Pr    0.97092   0.98883   0.11799   0.01267  Uiso   1.00
Pr7    Pr    0.26164   0.40046   0.01654   0.01267  Uiso   1.00
Pr8    Pr    0.37084   0.85293   0.38201   0.01267  Uiso   1.00
Pr9    Pr    0.25490   0.23836   0.63882   0.01267  Uiso   1.00
Pr10   Pr    0.51117   0.12916   0.98209   0.01267  Uiso   1.00
Pr11   Pr    0.09954   0.61608   0.86118   0.01267  Uiso   1.00
Pr12   Pr    0.64707   0.52908   0.51791   0.01267  Uiso   1.00
Pr13   Pr    0.11608   0.75490   0.51654   0.01267  Uiso   1.00
Pr14   Pr    0.02908   0.01117   0.88201   0.01267  Uiso   1.00
Pr15   Pr    0.73836   0.59954   0.98346   0.01267  Uiso   1.00
Pr16   Pr    0.62916   0.14707   0.61799   0.01267  Uiso   1.00
H1     H     0.68670   0.91250   0.23620   0.01267  Uiso   1.00
H2     H     0.62300   0.89610   0.38530   0.01267  Uiso   1.00
H3     H     0.17630   0.45050   0.26380   0.01267  Uiso   1.00
H4     H     0.01080   0.23770   0.11470   0.01267  Uiso   1.00
H5     H     0.95050   0.18670   0.27420   0.01267  Uiso   1.00
H6     H     0.73770   0.12300   0.22690   0.01267  Uiso   1.00
H7     H     0.41250   0.67630   0.22580   0.01267  Uiso   1.00
H8     H     0.39610   0.51080   0.27310   0.01267  Uiso   1.00
H9     H     0.31330   0.08750   0.76380   0.01267  Uiso   1.00
H10    H     0.37700   0.10390   0.61470   0.01267  Uiso   1.00
H11    H     0.82370   0.54950   0.73620   0.01267  Uiso   1.00
H12    H     0.98920   0.76230   0.88530   0.01267  Uiso   1.00
H13    H     0.04950   0.81330   0.72580   0.01267  Uiso   1.00
H14    H     0.26230   0.87700   0.77310   0.01267  Uiso   1.00
H15    H     0.58750   0.32370   0.77420   0.01267  Uiso   1.00
H16    H     0.60390   0.48920   0.72690   0.01267  Uiso   1.00
C1     C     0.63500   0.84150   0.20070   0.01267  Uiso   1.00
C2     C     0.55040   0.68000   0.15380   0.01267  Uiso   1.00
C3     C     0.49750   0.69720   0.08990   0.01267  Uiso   1.00
C4     C     0.40150   0.63280   0.00030   0.01267  Uiso   1.00
C5     C     0.53100   0.58430   0.16330   0.01267  Uiso   1.00
C6     C     0.59080   0.84310   0.40190   0.01267  Uiso   1.00
C7     C     0.55630   0.71790   0.43540   0.01267  Uiso   1.00
C8     C     0.48970   0.74390   0.44460   0.01267  Uiso   1.00
C9     C     0.40040   0.69860   0.46680   0.01267  Uiso   1.00
C10    C     0.57350   0.64230   0.44780   0.01267  Uiso   1.00
C11    C     0.14080   0.43430   0.29930   0.01267  Uiso   1.00
C12    C     0.02620   0.39660   0.34620   0.01267  Uiso   1.00
C13    C     0.10730   0.40760   0.41010   0.01267  Uiso   1.00
C14    C     0.13250   0.40120   0.49970   0.01267  Uiso   1.00
C15    C     0.92100   0.36770   0.33670   0.01267  Uiso   1.00
C16    C     0.94120   0.18890   0.09810   0.01267  Uiso   1.00
C17    C     0.78250   0.12090   0.06460   0.01267  Uiso   1.00
C18    C     0.79930   0.04510   0.05540   0.01267  Uiso   1.00
C19    C     0.73180   0.93360   0.03320   0.01267  Uiso   1.00
C20    C     0.69450   0.12570   0.05220   0.01267  Uiso   1.00
C21    C     0.93430   0.13500   0.29350   0.01267  Uiso   1.00
C22    C     0.89660   0.05040   0.37040   0.01267  Uiso   1.00
C23    C     0.90760   0.99750   0.30030   0.01267  Uiso   1.00
C24    C     0.90120   0.90150   0.26870   0.01267  Uiso   1.00
C25    C     0.86770   0.03100   0.44670   0.01267  Uiso   1.00
C26    C     0.68890   0.09080   0.24770   0.01267  Uiso   1.00
C27    C     0.62090   0.05630   0.33840   0.01267  Uiso   1.00
C28    C     0.54510   0.98970   0.24580   0.01267  Uiso   1.00
C29    C     0.43360   0.90040   0.20180   0.01267  Uiso   1.00
C30    C     0.62570   0.07350   0.43120   0.01267  Uiso   1.00
C31    C     0.34150   0.64080   0.20650   0.01267  Uiso   1.00
C32    C     0.18000   0.52620   0.12960   0.01267  Uiso   1.00
C33    C     0.19720   0.60730   0.19970   0.01267  Uiso   1.00
C34    C     0.13280   0.63250   0.23130   0.01267  Uiso   1.00
C35    C     0.08430   0.42100   0.05330   0.01267  Uiso   1.00
C36    C     0.34310   0.44120   0.25230   0.01267  Uiso   1.00
C37    C     0.21790   0.28250   0.16160   0.01267  Uiso   1.00
C38    C     0.24390   0.29930   0.25420   0.01267  Uiso   1.00
C39    C     0.19860   0.23180   0.29820   0.01267  Uiso   1.00
C40    C     0.14230   0.19450   0.06880   0.01267  Uiso   1.00
C41    C     0.36500   0.15850   0.79930   0.01267  Uiso   1.00
C42    C     0.44960   0.32000   0.84620   0.01267  Uiso   1.00
C43    C     0.50250   0.30280   0.91010   0.01267  Uiso   1.00
C44    C     0.59850   0.36720   0.99970   0.01267  Uiso   1.00
C45    C     0.46900   0.41570   0.83670   0.01267  Uiso   1.00
C46    C     0.40920   0.15690   0.59810   0.01267  Uiso   1.00
C47    C     0.44370   0.28210   0.56460   0.01267  Uiso   1.00
C48    C     0.51030   0.25610   0.55540   0.01267  Uiso   1.00
C49    C     0.59960   0.30140   0.53320   0.01267  Uiso   1.00
C50    C     0.42650   0.35770   0.55220   0.01267  Uiso   1.00
C51    C     0.85920   0.56570   0.70070   0.01267  Uiso   1.00
C52    C     0.97380   0.60340   0.65380   0.01267  Uiso   1.00
C53    C     0.89270   0.59240   0.58990   0.01267  Uiso   1.00
C54    C     0.86750   0.59880   0.50030   0.01267  Uiso   1.00
C55    C     0.07900   0.63230   0.66330   0.01267  Uiso   1.00
C56    C     0.05880   0.81110   0.90190   0.01267  Uiso   1.00
C57    C     0.21750   0.87910   0.93540   0.01267  Uiso   1.00
C58    C     0.20070   0.95490   0.94460   0.01267  Uiso   1.00
C59    C     0.26820   0.06640   0.96680   0.01267  Uiso   1.00
C60    C     0.30550   0.87430   0.94780   0.01267  Uiso   1.00
C61    C     0.06570   0.86500   0.70650   0.01267  Uiso   1.00
C62    C     0.10340   0.94960   0.62960   0.01267  Uiso   1.00
C63    C     0.09240   0.00250   0.69970   0.01267  Uiso   1.00
C64    C     0.09880   0.09850   0.73130   0.01267  Uiso   1.00
C65    C     0.13230   0.96900   0.55330   0.01267  Uiso   1.00
C66    C     0.31110   0.90920   0.75230   0.01267  Uiso   1.00
C67    C     0.37910   0.94370   0.66160   0.01267  Uiso   1.00
C68    C     0.45490   0.01030   0.75420   0.01267  Uiso   1.00
C69    C     0.56640   0.09960   0.79820   0.01267  Uiso   1.00
C70    C     0.37430   0.92650   0.56880   0.01267  Uiso   1.00
C71    C     0.65850   0.35920   0.79350   0.01267  Uiso   1.00
C72    C     0.82000   0.47380   0.87040   0.01267  Uiso   1.00
C73    C     0.80280   0.39270   0.80030   0.01267  Uiso   1.00
C74    C     0.86720   0.36750   0.76870   0.01267  Uiso   1.00
C75    C     0.91570   0.57900   0.94670   0.01267  Uiso   1.00
C76    C     0.65690   0.55880   0.74770   0.01267  Uiso   1.00
C77    C     0.78210   0.71750   0.83840   0.01267  Uiso   1.00
C78    C     0.75610   0.70070   0.74580   0.01267  Uiso   1.00
C79    C     0.80140   0.76820   0.70180   0.01267  Uiso   1.00
C80    C     0.85770   0.80550   0.93120   0.01267  Uiso   1.00
N1     N     0.55310   0.80390   0.12240   0.01267  Uiso   1.00
N2     N     0.63940   0.77380   0.22540   0.01267  Uiso   1.00
N3     N     0.62130   0.78440   0.40690   0.01267  Uiso   1.00
N4     N     0.51120   0.82340   0.42140   0.01267  Uiso   1.00
N5     N     0.18150   0.43070   0.37760   0.01267  Uiso   1.00
N6     N     0.04840   0.41400   0.27460   0.01267  Uiso   1.00
N7     N     0.87750   0.21440   0.09310   0.01267  Uiso   1.00
N8     N     0.90200   0.08980   0.07860   0.01267  Uiso   1.00
N9     N     0.93070   0.05310   0.24920   0.01267  Uiso   1.00
N10    N     0.91400   0.13940   0.36560   0.01267  Uiso   1.00
N11    N     0.71440   0.12130   0.33690   0.01267  Uiso   1.00
N12    N     0.58980   0.01120   0.18780   0.01267  Uiso   1.00
N13    N     0.30390   0.68150   0.25080   0.01267  Uiso   1.00
N14    N     0.27380   0.54840   0.13440   0.01267  Uiso   1.00
N15    N     0.28440   0.37750   0.16310   0.01267  Uiso   1.00
N16    N     0.32340   0.40200   0.31220   0.01267  Uiso   1.00
N17    N     0.44690   0.19610   0.87760   0.01267  Uiso   1.00
N18    N     0.36060   0.22620   0.77460   0.01267  Uiso   1.00
N19    N     0.37870   0.21560   0.59310   0.01267  Uiso   1.00
N20    N     0.48880   0.17660   0.57860   0.01267  Uiso   1.00
N21    N     0.81850   0.56930   0.62240   0.01267  Uiso   1.00
N22    N     0.95160   0.58600   0.72540   0.01267  Uiso   1.00
N23    N     0.12250   0.78560   0.90690   0.01267  Uiso   1.00
N24    N     0.09800   0.91020   0.92140   0.01267  Uiso   1.00
N25    N     0.06930   0.94690   0.75080   0.01267  Uiso   1.00
N26    N     0.08600   0.86060   0.63440   0.01267  Uiso   1.00
N27    N     0.28560   0.87870   0.66310   0.01267  Uiso   1.00
N28    N     0.41020   0.98880   0.81220   0.01267  Uiso   1.00
N29    N     0.69610   0.31850   0.74920   0.01267  Uiso   1.00
N30    N     0.72620   0.45160   0.86560   0.01267  Uiso   1.00
N31    N     0.71560   0.62250   0.83690   0.01267  Uiso   1.00
N32    N     0.67660   0.59800   0.68780   0.01267  Uiso   1.00
O1     O     0.39090   0.68110   0.95640   0.01267  Uiso   1.00
O2     O     0.33780   0.53670   0.97010   0.01267  Uiso   1.00
O3     O     0.44550   0.49750   0.10520   0.01267  Uiso   1.00
O4     O     0.60220   0.59780   0.22700   0.01267  Uiso   1.00
O5     O     0.34990   0.73460   0.45630   0.01267  Uiso   1.00
O6     O     0.38240   0.63120   0.49580   0.01267  Uiso   1.00
O7     O     0.52740   0.58520   0.48440   0.01267  Uiso   1.00
O8     O     0.63970   0.63760   0.42530   0.01267  Uiso   1.00
O9     O     0.22470   0.43450   0.54360   0.01267  Uiso   1.00
O10    O     0.06660   0.36770   0.52990   0.01267  Uiso   1.00
O11    O     0.89230   0.34030   0.39480   0.01267  Uiso   1.00
O12    O     0.87080   0.37520   0.27300   0.01267  Uiso   1.00
O13    O     0.77830   0.89360   0.04370   0.01267  Uiso   1.00
O14    O     0.63540   0.88660   0.00420   0.01267  Uiso   1.00
O15    O     0.60080   0.04300   0.01560   0.01267  Uiso   1.00
O16    O     0.71230   0.21440   0.07470   0.01267  Uiso   1.00
O17    O     0.93450   0.89090   0.20980   0.01267  Uiso   1.00
O18    O     0.86770   0.83780   0.30110   0.01267  Uiso   1.00
O19    O     0.84030   0.94550   0.44800   0.01267  Uiso   1.00
O20    O     0.87520   0.10220   0.50440   0.01267  Uiso   1.00
O21    O     0.39360   0.84990   0.11530   0.01267  Uiso   1.00
O22    O     0.38660   0.88240   0.25120   0.01267  Uiso   1.00
O23    O     0.54300   0.02740   0.44220   0.01267  Uiso   1.00
O24    O     0.71440   0.13970   0.50210   0.01267  Uiso   1.00
O25    O     0.18110   0.72470   0.29020   0.01267  Uiso   1.00
O26    O     0.03670   0.56660   0.19890   0.01267  Uiso   1.00
O27    O     0.99750   0.39230   0.05200   0.01267  Uiso   1.00
O28    O     0.09780   0.37080   0.99560   0.01267  Uiso   1.00
O29    O     0.23460   0.27830   0.38470   0.01267  Uiso   1.00
O30    O     0.13120   0.13540   0.24880   0.01267  Uiso   1.00
O31    O     0.08520   0.10080   0.05780   0.01267  Uiso   1.00
O32    O     0.13760   0.21230   0.99790   0.01267  Uiso   1.00
O33    O     0.60910   0.31890   0.04360   0.01267  Uiso   1.00
O34    O     0.66220   0.46330   0.02990   0.01267  Uiso   1.00
O35    O     0.55450   0.50250   0.89480   0.01267  Uiso   1.00
O36    O     0.39780   0.40220   0.77300   0.01267  Uiso   1.00
O37    O     0.65010   0.26540   0.54370   0.01267  Uiso   1.00
O38    O     0.61760   0.36880   0.50420   0.01267  Uiso   1.00
O39    O     0.47260   0.41480   0.51560   0.01267  Uiso   1.00
O40    O     0.36030   0.36240   0.57470   0.01267  Uiso   1.00
O41    O     0.77530   0.56550   0.45640   0.01267  Uiso   1.00
O42    O     0.93340   0.63230   0.47010   0.01267  Uiso   1.00
O43    O     0.10770   0.65970   0.60520   0.01267  Uiso   1.00
O44    O     0.12920   0.62480   0.72700   0.01267  Uiso   1.00
O45    O     0.22170   0.10640   0.95630   0.01267  Uiso   1.00
O46    O     0.36460   0.11340   0.99580   0.01267  Uiso   1.00
O47    O     0.39920   0.95700   0.98440   0.01267  Uiso   1.00
O48    O     0.28770   0.78560   0.92530   0.01267  Uiso   1.00
O49    O     0.06550   0.10910   0.79020   0.01267  Uiso   1.00
O50    O     0.13230   0.16220   0.69890   0.01267  Uiso   1.00
O51    O     0.15970   0.05450   0.55200   0.01267  Uiso   1.00
O52    O     0.12480   0.89780   0.49560   0.01267  Uiso   1.00
O53    O     0.60640   0.15010   0.88470   0.01267  Uiso   1.00
O54    O     0.61340   0.11760   0.74880   0.01267  Uiso   1.00
O55    O     0.45700   0.97260   0.55780   0.01267  Uiso   1.00
O56    O     0.28560   0.86030   0.49790   0.01267  Uiso   1.00
O57    O     0.81890   0.27530   0.70980   0.01267  Uiso   1.00
O58    O     0.96330   0.43340   0.80110   0.01267  Uiso   1.00
O59    O     0.00250   0.60770   0.94800   0.01267  Uiso   1.00
O60    O     0.90220   0.62920   0.00440   0.01267  Uiso   1.00
O61    O     0.76540   0.72170   0.61530   0.01267  Uiso   1.00
O62    O     0.86880   0.86460   0.75120   0.01267  Uiso   1.00
O63    O     0.91480   0.89920   0.94220   0.01267  Uiso   1.00
O64    O     0.86240   0.78770   0.00210   0.01267  Uiso   1.00
