data_image0
_cell_length_a       20.1547
_cell_length_b       20.1547
_cell_length_c       15.905
_cell_angle_alpha    90
_cell_angle_beta     90
_cell_angle_gamma    90

_symmetry_space_group_name_H-M    "P 1"
_symmetry_int_tables_number       1

loop_
  _symmetry_equiv_pos_as_xyz
  'x, y, z'

loop_
  _atom_site_label
  _atom_site_occupancy
  _atom_site_fract_x
  _atom_site_fract_y
  _atom_site_fract_z
  _atom_site_thermal_displace_type
  _atom_site_B_iso_or_equiv
  _atom_site_type_symbol
  Y1       1.0000 0.29266  0.17302  0.90881  Biso   1.000  Y
  Y2       1.0000 0.29327  0.81910  0.83083  Biso   1.000  Y
  C1       1.0000 0.27790  0.99810  0.84870  Biso   1.000  C
  H1       1.0000 0.24620  0.00310  0.80670  Biso   1.000  H
  C2       1.0000 0.34720  0.01940  0.94310  Biso   1.000  C
  C3       1.0000 0.34360  0.95080  0.93580  Biso   1.000  C
  C4       1.0000 0.37810  0.89490  0.97430  Biso   1.000  C
  C5       1.0000 0.38280  0.06290  0.99960  Biso   1.000  C
  C6       1.0000 0.16250  0.07800  0.97360  Biso   1.000  C
  H2       1.0000 0.15770  0.05900  0.92070  Biso   1.000  H
  C7       1.0000 0.19670  0.14060  0.07330  Biso   1.000  C
  C8       1.0000 0.14710  0.09960  0.10300  Biso   1.000  C
  C9       1.0000 0.11860  0.08700  0.18720  Biso   1.000  C
  C10      1.0000 0.23790  0.19280  0.10890  Biso   1.000  C
  N1       1.0000 0.29950  0.93690  0.87340  Biso   1.000  N
  N2       1.0000 0.30360  0.04850  0.88620  Biso   1.000  N
  N3       1.0000 0.20610  0.12550  0.98980  Biso   1.000  N
  N4       1.0000 0.12650  0.05990  0.03910  Biso   1.000  N
  O1       1.0000 0.36570  0.83830  0.94310  Biso   1.000  O
  O2       1.0000 0.41770  0.90090  0.03480  Biso   1.000  O
  O3       1.0000 0.41430  0.04240  0.06260  Biso   1.000  O
  O4       1.0000 0.37990  0.12480  0.98360  Biso   1.000  O
  O5       1.0000 0.08080  0.03670  0.19250  Biso   1.000  O
  O6       1.0000 0.13270  0.12500  0.24720  Biso   1.000  O
  O7       1.0000 0.22980  0.21670  0.18240  Biso   1.000  O
  O8       1.0000 0.28270  0.21650  0.06230  Biso   1.000  O
  Y3       1.0000 0.79266  0.67302  0.40881  Biso   1.000  Y
  Y4       1.0000 0.79327  0.31910  0.33083  Biso   1.000  Y
  C11      1.0000 0.77790  0.49810  0.34870  Biso   1.000  C
  H3       1.0000 0.74620  0.50310  0.30670  Biso   1.000  H
  C12      1.0000 0.84720  0.51940  0.44310  Biso   1.000  C
  C13      1.0000 0.84360  0.45080  0.43580  Biso   1.000  C
  C14      1.0000 0.87810  0.39490  0.47430  Biso   1.000  C
  C15      1.0000 0.88280  0.56290  0.49960  Biso   1.000  C
  C16      1.0000 0.66250  0.57800  0.47360  Biso   1.000  C
  H4       1.0000 0.65770  0.55900  0.42070  Biso   1.000  H
  C17      1.0000 0.69670  0.64060  0.57330  Biso   1.000  C
  C18      1.0000 0.64710  0.59960  0.60300  Biso   1.000  C
  C19      1.0000 0.61860  0.58700  0.68720  Biso   1.000  C
  C20      1.0000 0.73790  0.69280  0.60890  Biso   1.000  C
  N5       1.0000 0.79950  0.43690  0.37340  Biso   1.000  N
  N6       1.0000 0.80360  0.54850  0.38620  Biso   1.000  N
  N7       1.0000 0.70610  0.62550  0.48980  Biso   1.000  N
  N8       1.0000 0.62650  0.55990  0.53910  Biso   1.000  N
  O9       1.0000 0.86570  0.33830  0.44310  Biso   1.000  O
  O10      1.0000 0.91770  0.40090  0.53480  Biso   1.000  O
  O11      1.0000 0.91430  0.54240  0.56260  Biso   1.000  O
  O12      1.0000 0.87990  0.62480  0.48360  Biso   1.000  O
  O13      1.0000 0.58080  0.53670  0.69250  Biso   1.000  O
  O14      1.0000 0.63270  0.62500  0.74720  Biso   1.000  O
  O15      1.0000 0.72980  0.71670  0.68240  Biso   1.000  O
  O16      1.0000 0.78270  0.71650  0.56230  Biso   1.000  O
  Y5       1.0000 0.20734  0.82698  0.40881  Biso   1.000  Y
  Y6       1.0000 0.20673  0.18090  0.33083  Biso   1.000  Y
  C21      1.0000 0.22210  0.00190  0.34870  Biso   1.000  C
  H5       1.0000 0.25380  0.99690  0.30670  Biso   1.000  H
  C22      1.0000 0.15280  0.98060  0.44310  Biso   1.000  C
  C23      1.0000 0.15640  0.04920  0.43580  Biso   1.000  C
  C24      1.0000 0.12190  0.10510  0.47430  Biso   1.000  C
  C25      1.0000 0.11720  0.93710  0.49960  Biso   1.000  C
  C26      1.0000 0.33750  0.92200  0.47360  Biso   1.000  C
  H6       1.0000 0.34230  0.94100  0.42070  Biso   1.000  H
  C27      1.0000 0.30330  0.85940  0.57330  Biso   1.000  C
  C28      1.0000 0.35290  0.90040  0.60300  Biso   1.000  C
  C29      1.0000 0.38140  0.91300  0.68720  Biso   1.000  C
  C30      1.0000 0.26210  0.80720  0.60890  Biso   1.000  C
  N9       1.0000 0.20050  0.06310  0.37340  Biso   1.000  N
  N10      1.0000 0.19640  0.95150  0.38620  Biso   1.000  N
  N11      1.0000 0.29390  0.87450  0.48980  Biso   1.000  N
  N12      1.0000 0.37350  0.94010  0.53910  Biso   1.000  N
  O17      1.0000 0.13430  0.16170  0.44310  Biso   1.000  O
  O18      1.0000 0.08230  0.09910  0.53480  Biso   1.000  O
  O19      1.0000 0.08570  0.95760  0.56260  Biso   1.000  O
  O20      1.0000 0.12010  0.87520  0.48360  Biso   1.000  O
  O21      1.0000 0.41920  0.96330  0.69250  Biso   1.000  O
  O22      1.0000 0.36730  0.87500  0.74720  Biso   1.000  O
  O23      1.0000 0.27020  0.78330  0.68240  Biso   1.000  O
  O24      1.0000 0.21730  0.78350  0.56230  Biso   1.000  O
  Y7       1.0000 0.70734  0.32698  0.90881  Biso   1.000  Y
  Y8       1.0000 0.70673  0.68090  0.83083  Biso   1.000  Y
  C31      1.0000 0.72210  0.50190  0.84870  Biso   1.000  C
  H7       1.0000 0.75380  0.49690  0.80670  Biso   1.000  H
  C32      1.0000 0.65280  0.48060  0.94310  Biso   1.000  C
  C33      1.0000 0.65640  0.54920  0.93580  Biso   1.000  C
  C34      1.0000 0.62190  0.60510  0.97430  Biso   1.000  C
  C35      1.0000 0.61720  0.43710  0.99960  Biso   1.000  C
  C36      1.0000 0.83750  0.42200  0.97360  Biso   1.000  C
  H8       1.0000 0.84230  0.44100  0.92070  Biso   1.000  H
  C37      1.0000 0.80330  0.35940  0.07330  Biso   1.000  C
  C38      1.0000 0.85290  0.40040  0.10300  Biso   1.000  C
  C39      1.0000 0.88140  0.41300  0.18720  Biso   1.000  C
  C40      1.0000 0.76210  0.30720  0.10890  Biso   1.000  C
  N13      1.0000 0.70050  0.56310  0.87340  Biso   1.000  N
  N14      1.0000 0.69640  0.45150  0.88620  Biso   1.000  N
  N15      1.0000 0.79390  0.37450  0.98980  Biso   1.000  N
  N16      1.0000 0.87350  0.44010  0.03910  Biso   1.000  N
  O25      1.0000 0.63430  0.66170  0.94310  Biso   1.000  O
  O26      1.0000 0.58230  0.59910  0.03480  Biso   1.000  O
  O27      1.0000 0.58570  0.45760  0.06260  Biso   1.000  O
  O28      1.0000 0.62010  0.37520  0.98360  Biso   1.000  O
  O29      1.0000 0.91920  0.46330  0.19250  Biso   1.000  O
  O30      1.0000 0.86730  0.37500  0.24720  Biso   1.000  O
  O31      1.0000 0.77020  0.28330  0.18240  Biso   1.000  O
  O32      1.0000 0.71730  0.28350  0.06230  Biso   1.000  O
  Y9       1.0000 0.57698  0.54266  0.15881  Biso   1.000  Y
  Y10      1.0000 0.93090  0.54327  0.08083  Biso   1.000  Y
  C41      1.0000 0.75190  0.52790  0.09870  Biso   1.000  C
  H9       1.0000 0.74690  0.49620  0.05670  Biso   1.000  H
  C42      1.0000 0.73060  0.59720  0.19310  Biso   1.000  C
  C43      1.0000 0.79920  0.59360  0.18580  Biso   1.000  C
  C44      1.0000 0.85510  0.62810  0.22430  Biso   1.000  C
  C45      1.0000 0.68710  0.63280  0.24960  Biso   1.000  C
  C46      1.0000 0.67200  0.41250  0.22360  Biso   1.000  C
  H10      1.0000 0.69100  0.40770  0.17070  Biso   1.000  H
  C47      1.0000 0.60940  0.44670  0.32330  Biso   1.000  C
  C48      1.0000 0.65040  0.39710  0.35300  Biso   1.000  C
  C49      1.0000 0.66300  0.36860  0.43720  Biso   1.000  C
  C50      1.0000 0.55720  0.48790  0.35890  Biso   1.000  C
  N17      1.0000 0.81310  0.54950  0.12340  Biso   1.000  N
  N18      1.0000 0.70150  0.55360  0.13620  Biso   1.000  N
  N19      1.0000 0.62450  0.45610  0.23980  Biso   1.000  N
  N20      1.0000 0.69010  0.37650  0.28910  Biso   1.000  N
  O33      1.0000 0.91170  0.61570  0.19310  Biso   1.000  O
  O34      1.0000 0.84910  0.66770  0.28480  Biso   1.000  O
  O35      1.0000 0.70760  0.66430  0.31260  Biso   1.000  O
  O36      1.0000 0.62520  0.62990  0.23360  Biso   1.000  O
  O37      1.0000 0.71330  0.33080  0.44250  Biso   1.000  O
  O38      1.0000 0.62500  0.38270  0.49720  Biso   1.000  O
  O39      1.0000 0.53330  0.47980  0.43240  Biso   1.000  O
  O40      1.0000 0.53350  0.53270  0.31230  Biso   1.000  O
  Y11      1.0000 0.07698  0.04266  0.65881  Biso   1.000  Y
  Y12      1.0000 0.43090  0.04327  0.58083  Biso   1.000  Y
  C51      1.0000 0.25190  0.02790  0.59870  Biso   1.000  C
  H11      1.0000 0.24690  0.99620  0.55670  Biso   1.000  H
  C52      1.0000 0.23060  0.09720  0.69310  Biso   1.000  C
  C53      1.0000 0.29920  0.09360  0.68580  Biso   1.000  C
  C54      1.0000 0.35510  0.12810  0.72430  Biso   1.000  C
  C55      1.0000 0.18710  0.13280  0.74960  Biso   1.000  C
  C56      1.0000 0.17200  0.91250  0.72360  Biso   1.000  C
  H12      1.0000 0.19100  0.90770  0.67070  Biso   1.000  H
  C57      1.0000 0.10940  0.94670  0.82330  Biso   1.000  C
  C58      1.0000 0.15040  0.89710  0.85300  Biso   1.000  C
  C59      1.0000 0.16300  0.86860  0.93720  Biso   1.000  C
  C60      1.0000 0.05720  0.98790  0.85890  Biso   1.000  C
  N21      1.0000 0.31310  0.04950  0.62340  Biso   1.000  N
  N22      1.0000 0.20150  0.05360  0.63620  Biso   1.000  N
  N23      1.0000 0.12450  0.95610  0.73980  Biso   1.000  N
  N24      1.0000 0.19010  0.87650  0.78910  Biso   1.000  N
  O41      1.0000 0.41170  0.11570  0.69310  Biso   1.000  O
  O42      1.0000 0.34910  0.16770  0.78480  Biso   1.000  O
  O43      1.0000 0.20760  0.16430  0.81260  Biso   1.000  O
  O44      1.0000 0.12520  0.12990  0.73360  Biso   1.000  O
  O45      1.0000 0.21330  0.83080  0.94250  Biso   1.000  O
  O46      1.0000 0.12500  0.88270  0.99720  Biso   1.000  O
  O47      1.0000 0.03330  0.97980  0.93240  Biso   1.000  O
  O48      1.0000 0.03350  0.03270  0.81230  Biso   1.000  O
  Y13      1.0000 0.92302  0.45734  0.65881  Biso   1.000  Y
  Y14      1.0000 0.56910  0.45673  0.58083  Biso   1.000  Y
  C61      1.0000 0.74810  0.47210  0.59870  Biso   1.000  C
  H13      1.0000 0.75310  0.50380  0.55670  Biso   1.000  H
  C62      1.0000 0.76940  0.40280  0.69310  Biso   1.000  C
  C63      1.0000 0.70080  0.40640  0.68580  Biso   1.000  C
  C64      1.0000 0.64490  0.37190  0.72430  Biso   1.000  C
  C65      1.0000 0.81290  0.36720  0.74960  Biso   1.000  C
  C66      1.0000 0.82800  0.58750  0.72360  Biso   1.000  C
  H14      1.0000 0.80900  0.59230  0.67070  Biso   1.000  H
  C67      1.0000 0.89060  0.55330  0.82330  Biso   1.000  C
  C68      1.0000 0.84960  0.60290  0.85300  Biso   1.000  C
  C69      1.0000 0.83700  0.63140  0.93720  Biso   1.000  C
  C70      1.0000 0.94280  0.51210  0.85890  Biso   1.000  C
  N25      1.0000 0.68690  0.45050  0.62340  Biso   1.000  N
  N26      1.0000 0.79850  0.44640  0.63620  Biso   1.000  N
  N27      1.0000 0.87550  0.54390  0.73980  Biso   1.000  N
  N28      1.0000 0.80990  0.62350  0.78910  Biso   1.000  N
  O49      1.0000 0.58830  0.38430  0.69310  Biso   1.000  O
  O50      1.0000 0.65090  0.33230  0.78480  Biso   1.000  O
  O51      1.0000 0.79240  0.33570  0.81260  Biso   1.000  O
  O52      1.0000 0.87480  0.37010  0.73360  Biso   1.000  O
  O53      1.0000 0.78670  0.66920  0.94250  Biso   1.000  O
  O54      1.0000 0.87500  0.61730  0.99720  Biso   1.000  O
  O55      1.0000 0.96670  0.52020  0.93240  Biso   1.000  O
  O56      1.0000 0.96650  0.46730  0.81230  Biso   1.000  O
  Y15      1.0000 0.42302  0.95734  0.15881  Biso   1.000  Y
  Y16      1.0000 0.06910  0.95673  0.08083  Biso   1.000  Y
  C71      1.0000 0.24810  0.97210  0.09870  Biso   1.000  C
  H15      1.0000 0.25310  0.00380  0.05670  Biso   1.000  H
  C72      1.0000 0.26940  0.90280  0.19310  Biso   1.000  C
  C73      1.0000 0.20080  0.90640  0.18580  Biso   1.000  C
  C74      1.0000 0.14490  0.87190  0.22430  Biso   1.000  C
  C75      1.0000 0.31290  0.86720  0.24960  Biso   1.000  C
  C76      1.0000 0.32800  0.08750  0.22360  Biso   1.000  C
  H16      1.0000 0.30900  0.09230  0.17070  Biso   1.000  H
  C77      1.0000 0.39060  0.05330  0.32330  Biso   1.000  C
  C78      1.0000 0.34960  0.10290  0.35300  Biso   1.000  C
  C79      1.0000 0.33700  0.13140  0.43720  Biso   1.000  C
  C80      1.0000 0.44280  0.01210  0.35890  Biso   1.000  C
  N29      1.0000 0.18690  0.95050  0.12340  Biso   1.000  N
  N30      1.0000 0.29850  0.94640  0.13620  Biso   1.000  N
  N31      1.0000 0.37550  0.04390  0.23980  Biso   1.000  N
  N32      1.0000 0.30990  0.12350  0.28910  Biso   1.000  N
  O57      1.0000 0.08830  0.88430  0.19310  Biso   1.000  O
  O58      1.0000 0.15090  0.83230  0.28480  Biso   1.000  O
  O59      1.0000 0.29240  0.83570  0.31260  Biso   1.000  O
  O60      1.0000 0.37480  0.87010  0.23360  Biso   1.000  O
  O61      1.0000 0.28670  0.16920  0.44250  Biso   1.000  O
  O62      1.0000 0.37500  0.11730  0.49720  Biso   1.000  O
  O63      1.0000 0.46670  0.02020  0.43240  Biso   1.000  O
  O64      1.0000 0.46650  0.96730  0.31230  Biso   1.000  O
  Y17      1.0000 0.70734  0.82698  0.09119  Biso   1.000  Y
  Y18      1.0000 0.70673  0.18090  0.16917  Biso   1.000  Y
  C81      1.0000 0.72210  0.00190  0.15130  Biso   1.000  C
  H17      1.0000 0.75380  0.99690  0.19330  Biso   1.000  H
  C82      1.0000 0.65280  0.98060  0.05690  Biso   1.000  C
  C83      1.0000 0.65640  0.04920  0.06420  Biso   1.000  C
  C84      1.0000 0.62190  0.10510  0.02570  Biso   1.000  C
  C85      1.0000 0.61720  0.93710  0.00040  Biso   1.000  C
  C86      1.0000 0.83750  0.92200  0.02640  Biso   1.000  C
  H18      1.0000 0.84230  0.94100  0.07930  Biso   1.000  H
  C87      1.0000 0.80330  0.85940  0.92670  Biso   1.000  C
  C88      1.0000 0.85290  0.90040  0.89700  Biso   1.000  C
  C89      1.0000 0.88140  0.91300  0.81280  Biso   1.000  C
  C90      1.0000 0.76210  0.80720  0.89110  Biso   1.000  C
  N33      1.0000 0.70050  0.06310  0.12660  Biso   1.000  N
  N34      1.0000 0.69640  0.95150  0.11380  Biso   1.000  N
  N35      1.0000 0.79390  0.87450  0.01020  Biso   1.000  N
  N36      1.0000 0.87350  0.94010  0.96090  Biso   1.000  N
  O65      1.0000 0.63430  0.16170  0.05690  Biso   1.000  O
  O66      1.0000 0.58230  0.09910  0.96520  Biso   1.000  O
  O67      1.0000 0.58570  0.95760  0.93740  Biso   1.000  O
  O68      1.0000 0.62010  0.87520  0.01640  Biso   1.000  O
  O69      1.0000 0.91920  0.96330  0.80750  Biso   1.000  O
  O70      1.0000 0.86730  0.87500  0.75280  Biso   1.000  O
  O71      1.0000 0.77020  0.78330  0.81760  Biso   1.000  O
  O72      1.0000 0.71730  0.78350  0.93770  Biso   1.000  O
  Y19      1.0000 0.20734  0.32698  0.59119  Biso   1.000  Y
  Y20      1.0000 0.20673  0.68090  0.66917  Biso   1.000  Y
  C91      1.0000 0.22210  0.50190  0.65130  Biso   1.000  C
  H19      1.0000 0.25380  0.49690  0.69330  Biso   1.000  H
  C92      1.0000 0.15280  0.48060  0.55690  Biso   1.000  C
  C93      1.0000 0.15640  0.54920  0.56420  Biso   1.000  C
  C94      1.0000 0.12190  0.60510  0.52570  Biso   1.000  C
  C95      1.0000 0.11720  0.43710  0.50040  Biso   1.000  C
  C96      1.0000 0.33750  0.42200  0.52640  Biso   1.000  C
  H20      1.0000 0.34230  0.44100  0.57930  Biso   1.000  H
  C97      1.0000 0.30330  0.35940  0.42670  Biso   1.000  C
  C98      1.0000 0.35290  0.40040  0.39700  Biso   1.000  C
  C99      1.0000 0.38140  0.41300  0.31280  Biso   1.000  C
  C100     1.0000 0.26210  0.30720  0.39110  Biso   1.000  C
  N37      1.0000 0.20050  0.56310  0.62660  Biso   1.000  N
  N38      1.0000 0.19640  0.45150  0.61380  Biso   1.000  N
  N39      1.0000 0.29390  0.37450  0.51020  Biso   1.000  N
  N40      1.0000 0.37350  0.44010  0.46090  Biso   1.000  N
  O73      1.0000 0.13430  0.66170  0.55690  Biso   1.000  O
  O74      1.0000 0.08230  0.59910  0.46520  Biso   1.000  O
  O75      1.0000 0.08570  0.45760  0.43740  Biso   1.000  O
  O76      1.0000 0.12010  0.37520  0.51640  Biso   1.000  O
  O77      1.0000 0.41920  0.46330  0.30750  Biso   1.000  O
  O78      1.0000 0.36730  0.37500  0.25280  Biso   1.000  O
  O79      1.0000 0.27020  0.28330  0.31760  Biso   1.000  O
  O80      1.0000 0.21730  0.28350  0.43770  Biso   1.000  O
  Y21      1.0000 0.79266  0.17302  0.59119  Biso   1.000  Y
  Y22      1.0000 0.79327  0.81910  0.66917  Biso   1.000  Y
  C101     1.0000 0.77790  0.99810  0.65130  Biso   1.000  C
  H21      1.0000 0.74620  0.00310  0.69330  Biso   1.000  H
  C102     1.0000 0.84720  0.01940  0.55690  Biso   1.000  C
  C103     1.0000 0.84360  0.95080  0.56420  Biso   1.000  C
  C104     1.0000 0.87810  0.89490  0.52570  Biso   1.000  C
  C105     1.0000 0.88280  0.06290  0.50040  Biso   1.000  C
  C106     1.0000 0.66250  0.07800  0.52640  Biso   1.000  C
  H22      1.0000 0.65770  0.05900  0.57930  Biso   1.000  H
  C107     1.0000 0.69670  0.14060  0.42670  Biso   1.000  C
  C108     1.0000 0.64710  0.09960  0.39700  Biso   1.000  C
  C109     1.0000 0.61860  0.08700  0.31280  Biso   1.000  C
  C110     1.0000 0.73790  0.19280  0.39110  Biso   1.000  C
  N41      1.0000 0.79950  0.93690  0.62660  Biso   1.000  N
  N42      1.0000 0.80360  0.04850  0.61380  Biso   1.000  N
  N43      1.0000 0.70610  0.12550  0.51020  Biso   1.000  N
  N44      1.0000 0.62650  0.05990  0.46090  Biso   1.000  N
  O81      1.0000 0.86570  0.83830  0.55690  Biso   1.000  O
  O82      1.0000 0.91770  0.90090  0.46520  Biso   1.000  O
  O83      1.0000 0.91430  0.04240  0.43740  Biso   1.000  O
  O84      1.0000 0.87990  0.12480  0.51640  Biso   1.000  O
  O85      1.0000 0.58080  0.03670  0.30750  Biso   1.000  O
  O86      1.0000 0.63270  0.12500  0.25280  Biso   1.000  O
  O87      1.0000 0.72980  0.21670  0.31760  Biso   1.000  O
  O88      1.0000 0.78270  0.21650  0.43770  Biso   1.000  O
  Y23      1.0000 0.29266  0.67302  0.09119  Biso   1.000  Y
  Y24      1.0000 0.29327  0.31910  0.16917  Biso   1.000  Y
  C111     1.0000 0.27790  0.49810  0.15130  Biso   1.000  C
  H23      1.0000 0.24620  0.50310  0.19330  Biso   1.000  H
  C112     1.0000 0.34720  0.51940  0.05690  Biso   1.000  C
  C113     1.0000 0.34360  0.45080  0.06420  Biso   1.000  C
  C114     1.0000 0.37810  0.39490  0.02570  Biso   1.000  C
  C115     1.0000 0.38280  0.56290  0.00040  Biso   1.000  C
  C116     1.0000 0.16250  0.57800  0.02640  Biso   1.000  C
  H24      1.0000 0.15770  0.55900  0.07930  Biso   1.000  H
  C117     1.0000 0.19670  0.64060  0.92670  Biso   1.000  C
  C118     1.0000 0.14710  0.59960  0.89700  Biso   1.000  C
  C119     1.0000 0.11860  0.58700  0.81280  Biso   1.000  C
  C120     1.0000 0.23790  0.69280  0.89110  Biso   1.000  C
  N45      1.0000 0.29950  0.43690  0.12660  Biso   1.000  N
  N46      1.0000 0.30360  0.54850  0.11380  Biso   1.000  N
  N47      1.0000 0.20610  0.62550  0.01020  Biso   1.000  N
  N48      1.0000 0.12650  0.55990  0.96090  Biso   1.000  N
  O89      1.0000 0.36570  0.33830  0.05690  Biso   1.000  O
  O90      1.0000 0.41770  0.40090  0.96520  Biso   1.000  O
  O91      1.0000 0.41430  0.54240  0.93740  Biso   1.000  O
  O92      1.0000 0.37990  0.62480  0.01640  Biso   1.000  O
  O93      1.0000 0.08080  0.53670  0.80750  Biso   1.000  O
  O94      1.0000 0.13270  0.62500  0.75280  Biso   1.000  O
  O95      1.0000 0.22980  0.71670  0.81760  Biso   1.000  O
  O96      1.0000 0.28270  0.71650  0.93770  Biso   1.000  O
  Y25      1.0000 0.42302  0.45734  0.84119  Biso   1.000  Y
  Y26      1.0000 0.06910  0.45673  0.91917  Biso   1.000  Y
  C121     1.0000 0.24810  0.47210  0.90130  Biso   1.000  C
  H25      1.0000 0.25310  0.50380  0.94330  Biso   1.000  H
  C122     1.0000 0.26940  0.40280  0.80690  Biso   1.000  C
  C123     1.0000 0.20080  0.40640  0.81420  Biso   1.000  C
  C124     1.0000 0.14490  0.37190  0.77570  Biso   1.000  C
  C125     1.0000 0.31290  0.36720  0.75040  Biso   1.000  C
  C126     1.0000 0.32800  0.58750  0.77640  Biso   1.000  C
  H26      1.0000 0.30900  0.59230  0.82930  Biso   1.000  H
  C127     1.0000 0.39060  0.55330  0.67670  Biso   1.000  C
  C128     1.0000 0.34960  0.60290  0.64700  Biso   1.000  C
  C129     1.0000 0.33700  0.63140  0.56280  Biso   1.000  C
  C130     1.0000 0.44280  0.51210  0.64110  Biso   1.000  C
  N49      1.0000 0.18690  0.45050  0.87660  Biso   1.000  N
  N50      1.0000 0.29850  0.44640  0.86380  Biso   1.000  N
  N51      1.0000 0.37550  0.54390  0.76020  Biso   1.000  N
  N52      1.0000 0.30990  0.62350  0.71090  Biso   1.000  N
  O97      1.0000 0.08830  0.38430  0.80690  Biso   1.000  O
  O98      1.0000 0.15090  0.33230  0.71520  Biso   1.000  O
  O99      1.0000 0.29240  0.33570  0.68740  Biso   1.000  O
  O100     1.0000 0.37480  0.37010  0.76640  Biso   1.000  O
  O101     1.0000 0.28670  0.66920  0.55750  Biso   1.000  O
  O102     1.0000 0.37500  0.61730  0.50280  Biso   1.000  O
  O103     1.0000 0.46670  0.52020  0.56760  Biso   1.000  O
  O104     1.0000 0.46650  0.46730  0.68770  Biso   1.000  O
  Y27      1.0000 0.92302  0.95734  0.34119  Biso   1.000  Y
  Y28      1.0000 0.56910  0.95673  0.41917  Biso   1.000  Y
  C131     1.0000 0.74810  0.97210  0.40130  Biso   1.000  C
  H27      1.0000 0.75310  0.00380  0.44330  Biso   1.000  H
  C132     1.0000 0.76940  0.90280  0.30690  Biso   1.000  C
  C133     1.0000 0.70080  0.90640  0.31420  Biso   1.000  C
  C134     1.0000 0.64490  0.87190  0.27570  Biso   1.000  C
  C135     1.0000 0.81290  0.86720  0.25040  Biso   1.000  C
  C136     1.0000 0.82800  0.08750  0.27640  Biso   1.000  C
  H28      1.0000 0.80900  0.09230  0.32930  Biso   1.000  H
  C137     1.0000 0.89060  0.05330  0.17670  Biso   1.000  C
  C138     1.0000 0.84960  0.10290  0.14700  Biso   1.000  C
  C139     1.0000 0.83700  0.13140  0.06280  Biso   1.000  C
  C140     1.0000 0.94280  0.01210  0.14110  Biso   1.000  C
  N53      1.0000 0.68690  0.95050  0.37660  Biso   1.000  N
  N54      1.0000 0.79850  0.94640  0.36380  Biso   1.000  N
  N55      1.0000 0.87550  0.04390  0.26020  Biso   1.000  N
  N56      1.0000 0.80990  0.12350  0.21090  Biso   1.000  N
  O105     1.0000 0.58830  0.88430  0.30690  Biso   1.000  O
  O106     1.0000 0.65090  0.83230  0.21520  Biso   1.000  O
  O107     1.0000 0.79240  0.83570  0.18740  Biso   1.000  O
  O108     1.0000 0.87480  0.87010  0.26640  Biso   1.000  O
  O109     1.0000 0.78670  0.16920  0.05750  Biso   1.000  O
  O110     1.0000 0.87500  0.11730  0.00280  Biso   1.000  O
  O111     1.0000 0.96670  0.02020  0.06760  Biso   1.000  O
  O112     1.0000 0.96650  0.96730  0.18770  Biso   1.000  O
  Y29      1.0000 0.07698  0.54266  0.34119  Biso   1.000  Y
  Y30      1.0000 0.43090  0.54327  0.41917  Biso   1.000  Y
  C141     1.0000 0.25190  0.52790  0.40130  Biso   1.000  C
  H29      1.0000 0.24690  0.49620  0.44330  Biso   1.000  H
  C142     1.0000 0.23060  0.59720  0.30690  Biso   1.000  C
  C143     1.0000 0.29920  0.59360  0.31420  Biso   1.000  C
  C144     1.0000 0.35510  0.62810  0.27570  Biso   1.000  C
  C145     1.0000 0.18710  0.63280  0.25040  Biso   1.000  C
  C146     1.0000 0.17200  0.41250  0.27640  Biso   1.000  C
  H30      1.0000 0.19100  0.40770  0.32930  Biso   1.000  H
  C147     1.0000 0.10940  0.44670  0.17670  Biso   1.000  C
  C148     1.0000 0.15040  0.39710  0.14700  Biso   1.000  C
  C149     1.0000 0.16300  0.36860  0.06280  Biso   1.000  C
  C150     1.0000 0.05720  0.48790  0.14110  Biso   1.000  C
  N57      1.0000 0.31310  0.54950  0.37660  Biso   1.000  N
  N58      1.0000 0.20150  0.55360  0.36380  Biso   1.000  N
  N59      1.0000 0.12450  0.45610  0.26020  Biso   1.000  N
  N60      1.0000 0.19010  0.37650  0.21090  Biso   1.000  N
  O113     1.0000 0.41170  0.61570  0.30690  Biso   1.000  O
  O114     1.0000 0.34910  0.66770  0.21520  Biso   1.000  O
  O115     1.0000 0.20760  0.66430  0.18740  Biso   1.000  O
  O116     1.0000 0.12520  0.62990  0.26640  Biso   1.000  O
  O117     1.0000 0.21330  0.33080  0.05750  Biso   1.000  O
  O118     1.0000 0.12500  0.38270  0.00280  Biso   1.000  O
  O119     1.0000 0.03330  0.47980  0.06760  Biso   1.000  O
  O120     1.0000 0.03350  0.53270  0.18770  Biso   1.000  O
  Y31      1.0000 0.57698  0.04266  0.84119  Biso   1.000  Y
  Y32      1.0000 0.93090  0.04327  0.91917  Biso   1.000  Y
  C151     1.0000 0.75190  0.02790  0.90130  Biso   1.000  C
  H31      1.0000 0.74690  0.99620  0.94330  Biso   1.000  H
  C152     1.0000 0.73060  0.09720  0.80690  Biso   1.000  C
  C153     1.0000 0.79920  0.09360  0.81420  Biso   1.000  C
  C154     1.0000 0.85510  0.12810  0.77570  Biso   1.000  C
  C155     1.0000 0.68710  0.13280  0.75040  Biso   1.000  C
  C156     1.0000 0.67200  0.91250  0.77640  Biso   1.000  C
  H32      1.0000 0.69100  0.90770  0.82930  Biso   1.000  H
  C157     1.0000 0.60940  0.94670  0.67670  Biso   1.000  C
  C158     1.0000 0.65040  0.89710  0.64700  Biso   1.000  C
  C159     1.0000 0.66300  0.86860  0.56280  Biso   1.000  C
  C160     1.0000 0.55720  0.98790  0.64110  Biso   1.000  C
  N61      1.0000 0.81310  0.04950  0.87660  Biso   1.000  N
  N62      1.0000 0.70150  0.05360  0.86380  Biso   1.000  N
  N63      1.0000 0.62450  0.95610  0.76020  Biso   1.000  N
  N64      1.0000 0.69010  0.87650  0.71090  Biso   1.000  N
  O121     1.0000 0.91170  0.11570  0.80690  Biso   1.000  O
  O122     1.0000 0.84910  0.16770  0.71520  Biso   1.000  O
  O123     1.0000 0.70760  0.16430  0.68740  Biso   1.000  O
  O124     1.0000 0.62520  0.12990  0.76640  Biso   1.000  O
  O125     1.0000 0.71330  0.83080  0.55750  Biso   1.000  O
  O126     1.0000 0.62500  0.88270  0.50280  Biso   1.000  O
  O127     1.0000 0.53330  0.97980  0.56760  Biso   1.000  O
  O128     1.0000 0.53350  0.03270  0.68770  Biso   1.000  O
