data_PEGQUP_clean
_audit_creation_date              2014-07-02
_audit_creation_method            'Materials Studio'
_symmetry_space_group_name_H-M    'P1'
_symmetry_Int_Tables_number       1
_symmetry_cell_setting            triclinic
loop_
_symmetry_equiv_pos_as_xyz
  x,y,z
_cell_length_a                    15.8730
_cell_length_b                    16.3062
_cell_length_c                    16.3062
_cell_angle_alpha                 76.2967
_cell_angle_beta                  60.8750
_cell_angle_gamma                 60.8750
loop_
_atom_site_label
_atom_site_type_symbol
_atom_site_fract_x
_atom_site_fract_y
_atom_site_fract_z
_atom_site_U_iso_or_equiv
_atom_site_adp_type
_atom_site_occupancy
Er1    Er    0.73569   0.46531   0.88016   0.01267  Uiso   1.00
Er2    Er    0.01111   0.11265   0.52625   0.01267  Uiso   1.00
Er3    Er    0.58115   0.03469   0.61984   0.01267  Uiso   1.00
Er4    Er    0.15001   0.38735   0.97375   0.01267  Uiso   1.00
Er5    Er    0.61584   0.11984   0.96532   0.01267  Uiso   1.00
Er6    Er    0.53736   0.47375   0.61265   0.01267  Uiso   1.00
Er7    Er    0.20100   0.38016   0.53468   0.01267  Uiso   1.00
Er8    Er    0.12376   0.02625   0.88735   0.01267  Uiso   1.00
Er9    Er    0.26431   0.53469   0.11984   0.01267  Uiso   1.00
Er10   Er    0.98889   0.88735   0.47375   0.01267  Uiso   1.00
Er11   Er    0.41885   0.96531   0.38016   0.01267  Uiso   1.00
Er12   Er    0.84999   0.61265   0.02625   0.01267  Uiso   1.00
Er13   Er    0.38416   0.88016   0.03468   0.01267  Uiso   1.00
Er14   Er    0.46264   0.52625   0.38735   0.01267  Uiso   1.00
Er15   Er    0.79900   0.61984   0.46532   0.01267  Uiso   1.00
Er16   Er    0.87624   0.97375   0.11265   0.01267  Uiso   1.00
H1     H     0.80450   0.24590   0.75610   0.01267  Uiso   1.00
H2     H     0.85910   0.21660   0.90360   0.01267  Uiso   1.00
H3     H     0.30650   0.25410   0.74390   0.01267  Uiso   1.00
H4     H     0.47930   0.28340   0.59640   0.01267  Uiso   1.00
H5     H     0.56060   0.24390   0.74590   0.01267  Uiso   1.00
H6     H     0.76270   0.09640   0.71660   0.01267  Uiso   1.00
H7     H     0.05040   0.25610   0.75410   0.01267  Uiso   1.00
H8     H     0.07570   0.40360   0.78340   0.01267  Uiso   1.00
H9     H     0.19550   0.75410   0.24390   0.01267  Uiso   1.00
H10    H     0.14090   0.78340   0.09640   0.01267  Uiso   1.00
H11    H     0.69350   0.74590   0.25610   0.01267  Uiso   1.00
H12    H     0.52070   0.71660   0.40360   0.01267  Uiso   1.00
H13    H     0.43940   0.75610   0.25410   0.01267  Uiso   1.00
H14    H     0.23730   0.90360   0.28340   0.01267  Uiso   1.00
H15    H     0.94960   0.74390   0.24590   0.01267  Uiso   1.00
H16    H     0.92430   0.59640   0.21660   0.01267  Uiso   1.00
C1     C     0.85080   0.27340   0.71960   0.01267  Uiso   1.00
C2     C     0.92390   0.36690   0.67290   0.01267  Uiso   1.00
C3     C     0.98340   0.29560   0.60720   0.01267  Uiso   1.00
C4     C     0.07780   0.27460   0.51700   0.01267  Uiso   1.00
C5     C     0.93610   0.44770   0.68070   0.01267  Uiso   1.00
C6     C     0.89420   0.24010   0.91670   0.01267  Uiso   1.00
C7     C     0.93200   0.33750   0.94450   0.01267  Uiso   1.00
C8     C     0.00460   0.24590   0.95130   0.01267  Uiso   1.00
C9     C     0.10050   0.20620   0.96820   0.01267  Uiso   1.00
C10    C     0.91510   0.43120   0.95560   0.01267  Uiso   1.00
C11    C     0.34380   0.22660   0.78040   0.01267  Uiso   1.00
C12    C     0.46370   0.13310   0.82710   0.01267  Uiso   1.00
C13    C     0.38620   0.20440   0.89280   0.01267  Uiso   1.00
C14    C     0.36940   0.22540   0.98300   0.01267  Uiso   1.00
C15    C     0.56450   0.05230   0.81930   0.01267  Uiso   1.00
C16    C     0.55100   0.25990   0.58330   0.01267  Uiso   1.00
C17    C     0.71400   0.16250   0.55550   0.01267  Uiso   1.00
C18    C     0.70180   0.25410   0.54870   0.01267  Uiso   1.00
C19    C     0.77490   0.29380   0.53180   0.01267  Uiso   1.00
C20    C     0.80190   0.06880   0.54440   0.01267  Uiso   1.00
C21    C     0.57040   0.28040   0.77340   0.01267  Uiso   1.00
C22    C     0.59680   0.32710   0.86690   0.01267  Uiso   1.00
C23    C     0.59060   0.39280   0.79560   0.01267  Uiso   1.00
C24    C     0.59480   0.48300   0.77460   0.01267  Uiso   1.00
C25    C     0.61680   0.31930   0.94770   0.01267  Uiso   1.00
C26    C     0.81090   0.08330   0.74010   0.01267  Uiso   1.00
C27    C     0.87650   0.05550   0.83750   0.01267  Uiso   1.00
C28    C     0.95590   0.04870   0.74590   0.01267  Uiso   1.00
C29    C     0.06870   0.03180   0.70620   0.01267  Uiso   1.00
C30    C     0.87070   0.04440   0.93120   0.01267  Uiso   1.00
C31    C     0.12420   0.21960   0.72660   0.01267  Uiso   1.00
C32    C     0.29080   0.17290   0.63310   0.01267  Uiso   1.00
C33    C     0.27900   0.10720   0.70440   0.01267  Uiso   1.00
C34    C     0.35240   0.01700   0.72540   0.01267  Uiso   1.00
C35    C     0.38380   0.18070   0.55230   0.01267  Uiso   1.00
C36    C     0.13430   0.41670   0.75990   0.01267  Uiso   1.00
C37    C     0.26950   0.44450   0.66250   0.01267  Uiso   1.00
C38    C     0.25050   0.45130   0.75410   0.01267  Uiso   1.00
C39    C     0.30670   0.46820   0.79380   0.01267  Uiso   1.00
C40    C     0.34630   0.45560   0.56880   0.01267  Uiso   1.00
C41    C     0.14920   0.72660   0.28040   0.01267  Uiso   1.00
C42    C     0.07610   0.63310   0.32710   0.01267  Uiso   1.00
C43    C     0.01660   0.70440   0.39280   0.01267  Uiso   1.00
C44    C     0.92220   0.72540   0.48300   0.01267  Uiso   1.00
C45    C     0.06390   0.55230   0.31930   0.01267  Uiso   1.00
C46    C     0.10580   0.75990   0.08330   0.01267  Uiso   1.00
C47    C     0.06800   0.66250   0.05550   0.01267  Uiso   1.00
C48    C     0.99540   0.75410   0.04870   0.01267  Uiso   1.00
C49    C     0.89950   0.79380   0.03180   0.01267  Uiso   1.00
C50    C     0.08490   0.56880   0.04440   0.01267  Uiso   1.00
C51    C     0.65620   0.77340   0.21960   0.01267  Uiso   1.00
C52    C     0.53630   0.86690   0.17290   0.01267  Uiso   1.00
C53    C     0.61380   0.79560   0.10720   0.01267  Uiso   1.00
C54    C     0.63060   0.77460   0.01700   0.01267  Uiso   1.00
C55    C     0.43550   0.94770   0.18070   0.01267  Uiso   1.00
C56    C     0.44900   0.74010   0.41670   0.01267  Uiso   1.00
C57    C     0.28600   0.83750   0.44450   0.01267  Uiso   1.00
C58    C     0.29820   0.74590   0.45130   0.01267  Uiso   1.00
C59    C     0.22510   0.70620   0.46820   0.01267  Uiso   1.00
C60    C     0.19810   0.93120   0.45560   0.01267  Uiso   1.00
C61    C     0.42960   0.71960   0.22660   0.01267  Uiso   1.00
C62    C     0.40320   0.67290   0.13310   0.01267  Uiso   1.00
C63    C     0.40940   0.60720   0.20440   0.01267  Uiso   1.00
C64    C     0.40520   0.51700   0.22540   0.01267  Uiso   1.00
C65    C     0.38320   0.68070   0.05230   0.01267  Uiso   1.00
C66    C     0.18910   0.91670   0.25990   0.01267  Uiso   1.00
C67    C     0.12350   0.94450   0.16250   0.01267  Uiso   1.00
C68    C     0.04410   0.95130   0.25410   0.01267  Uiso   1.00
C69    C     0.93130   0.96820   0.29380   0.01267  Uiso   1.00
C70    C     0.12930   0.95560   0.06880   0.01267  Uiso   1.00
C71    C     0.87580   0.78040   0.27340   0.01267  Uiso   1.00
C72    C     0.70920   0.82710   0.36690   0.01267  Uiso   1.00
C73    C     0.72100   0.89280   0.29560   0.01267  Uiso   1.00
C74    C     0.64760   0.98300   0.27460   0.01267  Uiso   1.00
C75    C     0.61620   0.81930   0.44770   0.01267  Uiso   1.00
C76    C     0.86570   0.58330   0.24010   0.01267  Uiso   1.00
C77    C     0.73050   0.55550   0.33750   0.01267  Uiso   1.00
C78    C     0.74950   0.54870   0.24590   0.01267  Uiso   1.00
C79    C     0.69330   0.53180   0.20620   0.01267  Uiso   1.00
C80    C     0.65370   0.54440   0.43120   0.01267  Uiso   1.00
N1     N     0.93580   0.23640   0.63820   0.01267  Uiso   1.00
N2     N     0.83760   0.35340   0.74440   0.01267  Uiso   1.00
N3     N     0.86310   0.33190   0.91990   0.01267  Uiso   1.00
N4     N     0.97900   0.18460   0.93340   0.01267  Uiso   1.00
N5     N     0.31040   0.26360   0.86180   0.01267  Uiso   1.00
N6     N     0.43540   0.14660   0.75560   0.01267  Uiso   1.00
N7     N     0.61490   0.16810   0.58010   0.01267  Uiso   1.00
N8     N     0.59700   0.31540   0.56660   0.01267  Uiso   1.00
N9     N     0.57400   0.36180   0.73640   0.01267  Uiso   1.00
N10    N     0.58200   0.25560   0.85340   0.01267  Uiso   1.00
N11    N     0.78300   0.08010   0.83190   0.01267  Uiso   1.00
N12    N     0.91240   0.06660   0.68460   0.01267  Uiso   1.00
N13    N     0.17220   0.13820   0.76360   0.01267  Uiso   1.00
N14    N     0.19100   0.24440   0.64660   0.01267  Uiso   1.00
N15    N     0.19500   0.41990   0.66810   0.01267  Uiso   1.00
N16    N     0.16360   0.43340   0.81540   0.01267  Uiso   1.00
N17    N     0.06420   0.76360   0.36180   0.01267  Uiso   1.00
N18    N     0.16240   0.64660   0.25560   0.01267  Uiso   1.00
N19    N     0.13690   0.66810   0.08010   0.01267  Uiso   1.00
N20    N     0.02100   0.81540   0.06660   0.01267  Uiso   1.00
N21    N     0.68960   0.73640   0.13820   0.01267  Uiso   1.00
N22    N     0.56460   0.85340   0.24440   0.01267  Uiso   1.00
N23    N     0.38510   0.83190   0.41990   0.01267  Uiso   1.00
N24    N     0.40300   0.68460   0.43340   0.01267  Uiso   1.00
N25    N     0.42600   0.63820   0.26360   0.01267  Uiso   1.00
N26    N     0.41800   0.74440   0.14660   0.01267  Uiso   1.00
N27    N     0.21700   0.91990   0.16810   0.01267  Uiso   1.00
N28    N     0.08760   0.93340   0.31540   0.01267  Uiso   1.00
N29    N     0.82780   0.86180   0.23640   0.01267  Uiso   1.00
N30    N     0.80900   0.75560   0.35340   0.01267  Uiso   1.00
N31    N     0.80500   0.58010   0.33190   0.01267  Uiso   1.00
N32    N     0.83640   0.56660   0.18460   0.01267  Uiso   1.00
O1     O     0.10460   0.20370   0.47170   0.01267  Uiso   1.00
O2     O     0.13410   0.31900   0.48280   0.01267  Uiso   1.00
O3     O     0.02090   0.45580   0.62760   0.01267  Uiso   1.00
O4     O     0.85760   0.50560   0.74560   0.01267  Uiso   1.00
O5     O     0.15530   0.11840   0.95620   0.01267  Uiso   1.00
O6     O     0.12100   0.25760   0.99440   0.01267  Uiso   1.00
O7     O     0.96470   0.44710   0.98790   0.01267  Uiso   1.00
O8     O     0.84580   0.49970   0.93310   0.01267  Uiso   1.00
O9     O     0.28000   0.29630   0.02830   0.01267  Uiso   1.00
O10    O     0.43590   0.18100   0.01720   0.01267  Uiso   1.00
O11    O     0.60430   0.04420   0.87240   0.01267  Uiso   1.00
O12    O     0.60880   0.99440   0.75440   0.01267  Uiso   1.00
O13    O     0.72990   0.38160   0.54380   0.01267  Uiso   1.00
O14    O     0.87300   0.24240   0.50560   0.01267  Uiso   1.00
O15    O     0.89970   0.05290   0.51210   0.01267  Uiso   1.00
O16    O     0.77860   0.00030   0.56690   0.01267  Uiso   1.00
O17    O     0.57630   0.52830   0.70370   0.01267  Uiso   1.00
O18    O     0.61690   0.51720   0.81900   0.01267  Uiso   1.00
O19    O     0.64850   0.37240   0.95580   0.01267  Uiso   1.00
O20    O     0.60320   0.25440   0.00560   0.01267  Uiso   1.00
O21    O     0.11150   0.04380   0.61840   0.01267  Uiso   1.00
O22    O     0.11540   0.00560   0.75760   0.01267  Uiso   1.00
O23    O     0.95260   0.01210   0.94710   0.01267  Uiso   1.00
O24    O     0.77890   0.06690   0.99970   0.01267  Uiso   1.00
O25    O     0.30830   0.97170   0.79630   0.01267  Uiso   1.00
O26    O     0.45310   0.98280   0.68100   0.01267  Uiso   1.00
O27    O     0.47670   0.12760   0.54420   0.01267  Uiso   1.00
O28    O     0.36320   0.24560   0.49440   0.01267  Uiso   1.00
O29    O     0.27370   0.45620   0.88160   0.01267  Uiso   1.00
O30    O     0.37860   0.49440   0.74240   0.01267  Uiso   1.00
O31    O     0.41180   0.48790   0.55290   0.01267  Uiso   1.00
O32    O     0.34550   0.43310   0.50030   0.01267  Uiso   1.00
O33    O     0.89540   0.79630   0.52830   0.01267  Uiso   1.00
O34    O     0.86590   0.68100   0.51720   0.01267  Uiso   1.00
O35    O     0.97910   0.54420   0.37240   0.01267  Uiso   1.00
O36    O     0.14240   0.49440   0.25440   0.01267  Uiso   1.00
O37    O     0.84470   0.88160   0.04380   0.01267  Uiso   1.00
O38    O     0.87900   0.74240   0.00560   0.01267  Uiso   1.00
O39    O     0.03530   0.55290   0.01210   0.01267  Uiso   1.00
O40    O     0.15420   0.50030   0.06690   0.01267  Uiso   1.00
O41    O     0.72000   0.70370   0.97170   0.01267  Uiso   1.00
O42    O     0.56410   0.81900   0.98280   0.01267  Uiso   1.00
O43    O     0.39570   0.95580   0.12760   0.01267  Uiso   1.00
O44    O     0.39120   0.00560   0.24560   0.01267  Uiso   1.00
O45    O     0.27010   0.61840   0.45620   0.01267  Uiso   1.00
O46    O     0.12700   0.75760   0.49440   0.01267  Uiso   1.00
O47    O     0.10030   0.94710   0.48790   0.01267  Uiso   1.00
O48    O     0.22140   0.99970   0.43310   0.01267  Uiso   1.00
O49    O     0.42370   0.47170   0.29630   0.01267  Uiso   1.00
O50    O     0.38310   0.48280   0.18100   0.01267  Uiso   1.00
O51    O     0.35150   0.62760   0.04420   0.01267  Uiso   1.00
O52    O     0.39680   0.74560   0.99440   0.01267  Uiso   1.00
O53    O     0.88850   0.95620   0.38160   0.01267  Uiso   1.00
O54    O     0.88460   0.99440   0.24240   0.01267  Uiso   1.00
O55    O     0.04740   0.98790   0.05290   0.01267  Uiso   1.00
O56    O     0.22110   0.93310   0.00030   0.01267  Uiso   1.00
O57    O     0.69170   0.02830   0.20370   0.01267  Uiso   1.00
O58    O     0.54690   0.01720   0.31900   0.01267  Uiso   1.00
O59    O     0.52330   0.87240   0.45580   0.01267  Uiso   1.00
O60    O     0.63680   0.75440   0.50560   0.01267  Uiso   1.00
O61    O     0.72630   0.54380   0.11840   0.01267  Uiso   1.00
O62    O     0.62140   0.50560   0.25760   0.01267  Uiso   1.00
O63    O     0.58820   0.51210   0.44710   0.01267  Uiso   1.00
O64    O     0.65450   0.56690   0.49970   0.01267  Uiso   1.00
