data_PEGQAV_clean
_audit_creation_date              2014-07-02
_audit_creation_method            'Materials Studio'
_symmetry_space_group_name_H-M    'P1'
_symmetry_Int_Tables_number       1
_symmetry_cell_setting            triclinic
loop_
_symmetry_equiv_pos_as_xyz
  x,y,z
_cell_length_a                    16.5441
_cell_length_b                    16.5441
_cell_length_c                    16.5441
_cell_angle_alpha                 60.1036
_cell_angle_beta                  75.4761
_cell_angle_gamma                 104.5240
loop_
_atom_site_label
_atom_site_type_symbol
_atom_site_fract_x
_atom_site_fract_y
_atom_site_fract_z
_atom_site_U_iso_or_equiv
_atom_site_adp_type
_atom_site_occupancy
Nd1    Nd    0.63902   0.40079   0.61579   0.01267  Uiso   1.00
Nd2    Nd    0.98184   0.85283   0.52945   0.01267  Uiso   1.00
Nd3    Nd    0.86098   0.24519   0.23823   0.01267  Uiso   1.00
Nd4    Nd    0.51816   0.98871   0.12901   0.01267  Uiso   1.00
Nd5    Nd    0.98342   0.38421   0.75481   0.01267  Uiso   1.00
Nd6    Nd    0.61772   0.47055   0.01129   0.01267  Uiso   1.00
Nd7    Nd    0.51658   0.76177   0.59921   0.01267  Uiso   1.00
Nd8    Nd    0.88228   0.87099   0.14717   0.01267  Uiso   1.00
Nd9    Nd    0.36098   0.59921   0.38421   0.01267  Uiso   1.00
Nd10   Nd    0.01816   0.14717   0.47055   0.01267  Uiso   1.00
Nd11   Nd    0.13902   0.75481   0.76177   0.01267  Uiso   1.00
Nd12   Nd    0.48184   0.01129   0.87099   0.01267  Uiso   1.00
Nd13   Nd    0.01658   0.61579   0.24519   0.01267  Uiso   1.00
Nd14   Nd    0.38228   0.52945   0.98871   0.01267  Uiso   1.00
Nd15   Nd    0.48342   0.23823   0.40079   0.01267  Uiso   1.00
Nd16   Nd    0.11772   0.12901   0.85283   0.01267  Uiso   1.00
H1     H     0.76050   0.67850   0.55060   0.01267  Uiso   1.00
H2     H     0.61550   0.51420   0.76190   0.01267  Uiso   1.00
H3     H     0.73950   0.18890   0.08200   0.01267  Uiso   1.00
H4     H     0.88450   0.12260   0.10130   0.01267  Uiso   1.00
H5     H     0.77090   0.44940   0.81110   0.01267  Uiso   1.00
H6     H     0.72390   0.23810   0.87740   0.01267  Uiso   1.00
H7     H     0.72910   0.91800   0.32150   0.01267  Uiso   1.00
H8     H     0.77610   0.89870   0.48580   0.01267  Uiso   1.00
H9     H     0.23950   0.32150   0.44940   0.01267  Uiso   1.00
H10    H     0.38450   0.48580   0.23810   0.01267  Uiso   1.00
H11    H     0.26050   0.81110   0.91800   0.01267  Uiso   1.00
H12    H     0.11550   0.87740   0.89870   0.01267  Uiso   1.00
H13    H     0.22910   0.55060   0.18890   0.01267  Uiso   1.00
H14    H     0.27610   0.76190   0.12260   0.01267  Uiso   1.00
H15    H     0.27090   0.08200   0.67850   0.01267  Uiso   1.00
H16    H     0.22390   0.10130   0.51420   0.01267  Uiso   1.00
C1     C     0.79630   0.64290   0.56580   0.01267  Uiso   1.00
C2     C     0.84470   0.52430   0.60400   0.01267  Uiso   1.00
C3     C     0.90810   0.60770   0.59300   0.01267  Uiso   1.00
C4     C     0.99680   0.63220   0.59980   0.01267  Uiso   1.00
C5     C     0.83850   0.42260   0.63050   0.01267  Uiso   1.00
C6     C     0.59960   0.44430   0.81010   0.01267  Uiso   1.00
C7     C     0.56740   0.28270   0.87770   0.01267  Uiso   1.00
C8     C     0.55750   0.30000   0.95470   0.01267  Uiso   1.00
C9     C     0.53520   0.23250   0.06590   0.01267  Uiso   1.00
C10    C     0.55270   0.19620   0.87390   0.01267  Uiso   1.00
C11    C     0.70370   0.13790   0.15340   0.01267  Uiso   1.00
C12    C     0.65530   0.05130   0.32040   0.01267  Uiso   1.00
C13    C     0.59190   0.99890   0.30040   0.01267  Uiso   1.00
C14    C     0.50320   0.90340   0.36460   0.01267  Uiso   1.00
C15    C     0.66150   0.03100   0.41590   0.01267  Uiso   1.00
C16    C     0.90040   0.09030   0.15530   0.01267  Uiso   1.00
C17    C     0.93260   0.05490   0.28470   0.01267  Uiso   1.00
C18    C     0.94250   0.98780   0.25750   0.01267  Uiso   1.00
C19    C     0.96480   0.89890   0.30270   0.01267  Uiso   1.00
C20    C     0.94730   0.07340   0.35650   0.01267  Uiso   1.00
C21    C     0.79130   0.43420   0.86210   0.01267  Uiso   1.00
C22    C     0.87170   0.39600   0.94870   0.01267  Uiso   1.00
C23    C     0.79930   0.40700   0.00110   0.01267  Uiso   1.00
C24    C     0.76800   0.40020   0.09660   0.01267  Uiso   1.00
C25    C     0.94690   0.36950   0.96900   0.01267  Uiso   1.00
C26    C     0.74560   0.18990   0.90970   0.01267  Uiso   1.00
C27    C     0.83960   0.12230   0.94510   0.01267  Uiso   1.00
C28    C     0.74530   0.04530   0.01220   0.01267  Uiso   1.00
C29    C     0.70160   0.93410   0.10110   0.01267  Uiso   1.00
C30    C     0.92990   0.12610   0.92660   0.01267  Uiso   1.00
C31    C     0.70870   0.84660   0.35710   0.01267  Uiso   1.00
C32    C     0.62830   0.67960   0.47570   0.01267  Uiso   1.00
C33    C     0.70070   0.69960   0.39230   0.01267  Uiso   1.00
C34    C     0.73200   0.63540   0.36780   0.01267  Uiso   1.00
C35    C     0.55310   0.58410   0.57740   0.01267  Uiso   1.00
C36    C     0.75440   0.84470   0.55570   0.01267  Uiso   1.00
C37    C     0.66040   0.71530   0.71730   0.01267  Uiso   1.00
C38    C     0.75470   0.74250   0.70000   0.01267  Uiso   1.00
C39    C     0.79840   0.69730   0.76750   0.01267  Uiso   1.00
C40    C     0.57010   0.64350   0.80380   0.01267  Uiso   1.00
C41    C     0.20370   0.35710   0.43420   0.01267  Uiso   1.00
C42    C     0.15530   0.47570   0.39600   0.01267  Uiso   1.00
C43    C     0.09190   0.39230   0.40700   0.01267  Uiso   1.00
C44    C     0.00320   0.36780   0.40020   0.01267  Uiso   1.00
C45    C     0.16150   0.57740   0.36950   0.01267  Uiso   1.00
C46    C     0.40040   0.55570   0.18990   0.01267  Uiso   1.00
C47    C     0.43260   0.71730   0.12230   0.01267  Uiso   1.00
C48    C     0.44250   0.70000   0.04530   0.01267  Uiso   1.00
C49    C     0.46480   0.76750   0.93410   0.01267  Uiso   1.00
C50    C     0.44730   0.80380   0.12610   0.01267  Uiso   1.00
C51    C     0.29630   0.86210   0.84660   0.01267  Uiso   1.00
C52    C     0.34470   0.94870   0.67960   0.01267  Uiso   1.00
C53    C     0.40810   0.00110   0.69960   0.01267  Uiso   1.00
C54    C     0.49680   0.09660   0.63540   0.01267  Uiso   1.00
C55    C     0.33850   0.96900   0.58410   0.01267  Uiso   1.00
C56    C     0.09960   0.90970   0.84470   0.01267  Uiso   1.00
C57    C     0.06740   0.94510   0.71530   0.01267  Uiso   1.00
C58    C     0.05750   0.01220   0.74250   0.01267  Uiso   1.00
C59    C     0.03520   0.10110   0.69730   0.01267  Uiso   1.00
C60    C     0.05270   0.92660   0.64350   0.01267  Uiso   1.00
C61    C     0.20870   0.56580   0.13790   0.01267  Uiso   1.00
C62    C     0.12830   0.60400   0.05130   0.01267  Uiso   1.00
C63    C     0.20070   0.59300   0.99890   0.01267  Uiso   1.00
C64    C     0.23200   0.59980   0.90340   0.01267  Uiso   1.00
C65    C     0.05310   0.63050   0.03100   0.01267  Uiso   1.00
C66    C     0.25440   0.81010   0.09030   0.01267  Uiso   1.00
C67    C     0.16040   0.87770   0.05490   0.01267  Uiso   1.00
C68    C     0.25470   0.95470   0.98780   0.01267  Uiso   1.00
C69    C     0.29840   0.06590   0.89890   0.01267  Uiso   1.00
C70    C     0.07010   0.87390   0.07340   0.01267  Uiso   1.00
C71    C     0.29130   0.15340   0.64290   0.01267  Uiso   1.00
C72    C     0.37170   0.32040   0.52430   0.01267  Uiso   1.00
C73    C     0.29930   0.30040   0.60770   0.01267  Uiso   1.00
C74    C     0.26800   0.36460   0.63220   0.01267  Uiso   1.00
C75    C     0.44690   0.41590   0.42260   0.01267  Uiso   1.00
C76    C     0.24560   0.15530   0.44430   0.01267  Uiso   1.00
C77    C     0.33960   0.28470   0.28270   0.01267  Uiso   1.00
C78    C     0.24530   0.25750   0.30000   0.01267  Uiso   1.00
C79    C     0.20160   0.30270   0.23250   0.01267  Uiso   1.00
C80    C     0.42990   0.35650   0.19620   0.01267  Uiso   1.00
N1     N     0.87540   0.67980   0.56940   0.01267  Uiso   1.00
N2     N     0.77370   0.54890   0.58640   0.01267  Uiso   1.00
N3     N     0.59660   0.37990   0.78370   0.01267  Uiso   1.00
N4     N     0.57840   0.40270   0.90910   0.01267  Uiso   1.00
N5     N     0.62460   0.05520   0.19560   0.01267  Uiso   1.00
N6     N     0.72630   0.13990   0.22480   0.01267  Uiso   1.00
N7     N     0.90340   0.11970   0.21670   0.01267  Uiso   1.00
N8     N     0.92160   0.01250   0.17570   0.01267  Uiso   1.00
N9     N     0.75080   0.43060   0.94480   0.01267  Uiso   1.00
N10    N     0.86470   0.41360   0.86010   0.01267  Uiso   1.00
N11    N     0.83640   0.21630   0.88030   0.01267  Uiso   1.00
N12    N     0.68820   0.09090   0.98750   0.01267  Uiso   1.00
N13    N     0.74920   0.80440   0.32020   0.01267  Uiso   1.00
N14    N     0.63530   0.77520   0.45110   0.01267  Uiso   1.00
N15    N     0.66360   0.78330   0.62010   0.01267  Uiso   1.00
N16    N     0.81180   0.82430   0.59730   0.01267  Uiso   1.00
N17    N     0.12460   0.32020   0.43060   0.01267  Uiso   1.00
N18    N     0.22630   0.45110   0.41360   0.01267  Uiso   1.00
N19    N     0.40340   0.62010   0.21630   0.01267  Uiso   1.00
N20    N     0.42160   0.59730   0.09090   0.01267  Uiso   1.00
N21    N     0.37540   0.94480   0.80440   0.01267  Uiso   1.00
N22    N     0.27370   0.86010   0.77520   0.01267  Uiso   1.00
N23    N     0.09660   0.88030   0.78330   0.01267  Uiso   1.00
N24    N     0.07840   0.98750   0.82430   0.01267  Uiso   1.00
N25    N     0.24920   0.56940   0.05520   0.01267  Uiso   1.00
N26    N     0.13530   0.58640   0.13990   0.01267  Uiso   1.00
N27    N     0.16360   0.78370   0.11970   0.01267  Uiso   1.00
N28    N     0.31180   0.90910   0.01250   0.01267  Uiso   1.00
N29    N     0.25080   0.19560   0.67980   0.01267  Uiso   1.00
N30    N     0.36470   0.22480   0.54890   0.01267  Uiso   1.00
N31    N     0.33640   0.21670   0.37990   0.01267  Uiso   1.00
N32    N     0.18820   0.17570   0.40270   0.01267  Uiso   1.00
O1     O     0.04230   0.72520   0.56670   0.01267  Uiso   1.00
O2     O     0.02730   0.56560   0.63330   0.01267  Uiso   1.00
O3     O     0.89250   0.38980   0.66350   0.01267  Uiso   1.00
O4     O     0.77180   0.37010   0.62830   0.01267  Uiso   1.00
O5     O     0.54680   0.28030   0.10670   0.01267  Uiso   1.00
O6     O     0.50380   0.13440   0.11480   0.01267  Uiso   1.00
O7     O     0.51610   0.10140   0.95690   0.01267  Uiso   1.00
O8     O     0.57320   0.21200   0.78660   0.01267  Uiso   1.00
O9     O     0.45770   0.89100   0.31710   0.01267  Uiso   1.00
O10    O     0.47270   0.83940   0.46170   0.01267  Uiso   1.00
O11    O     0.60750   0.94400   0.50270   0.01267  Uiso   1.00
O12    O     0.72820   0.09990   0.40170   0.01267  Uiso   1.00
O13    O     0.95320   0.84650   0.26650   0.01267  Uiso   1.00
O14    O     0.99620   0.88140   0.36940   0.01267  Uiso   1.00
O15    O     0.98390   0.02700   0.41470   0.01267  Uiso   1.00
O16    O     0.92680   0.14020   0.36120   0.01267  Uiso   1.00
O17    O     0.70810   0.43330   0.10900   0.01267  Uiso   1.00
O18    O     0.80110   0.36670   0.16060   0.01267  Uiso   1.00
O19    O     0.94670   0.33650   0.05600   0.01267  Uiso   1.00
O20    O     0.00160   0.37170   0.90010   0.01267  Uiso   1.00
O21    O     0.61300   0.89330   0.15350   0.01267  Uiso   1.00
O22    O     0.75080   0.88520   0.11860   0.01267  Uiso   1.00
O23    O     0.94170   0.04310   0.97300   0.01267  Uiso   1.00
O24    O     0.00140   0.21340   0.85980   0.01267  Uiso   1.00
O25    O     0.79190   0.68290   0.27480   0.01267  Uiso   1.00
O26    O     0.69890   0.53830   0.43440   0.01267  Uiso   1.00
O27    O     0.55330   0.49730   0.61020   0.01267  Uiso   1.00
O28    O     0.49840   0.59830   0.62990   0.01267  Uiso   1.00
O29    O     0.88700   0.73350   0.71970   0.01267  Uiso   1.00
O30    O     0.74920   0.63060   0.86560   0.01267  Uiso   1.00
O31    O     0.55830   0.58530   0.89860   0.01267  Uiso   1.00
O32    O     0.49860   0.63880   0.78800   0.01267  Uiso   1.00
O33    O     0.95770   0.27480   0.43330   0.01267  Uiso   1.00
O34    O     0.97270   0.43440   0.36670   0.01267  Uiso   1.00
O35    O     0.10750   0.61020   0.33650   0.01267  Uiso   1.00
O36    O     0.22820   0.62990   0.37170   0.01267  Uiso   1.00
O37    O     0.45320   0.71970   0.89330   0.01267  Uiso   1.00
O38    O     0.49620   0.86560   0.88520   0.01267  Uiso   1.00
O39    O     0.48390   0.89860   0.04310   0.01267  Uiso   1.00
O40    O     0.42680   0.78800   0.21340   0.01267  Uiso   1.00
O41    O     0.54230   0.10900   0.68290   0.01267  Uiso   1.00
O42    O     0.52730   0.16060   0.53830   0.01267  Uiso   1.00
O43    O     0.39250   0.05600   0.49730   0.01267  Uiso   1.00
O44    O     0.27180   0.90010   0.59830   0.01267  Uiso   1.00
O45    O     0.04680   0.15350   0.73350   0.01267  Uiso   1.00
O46    O     0.00380   0.11860   0.63060   0.01267  Uiso   1.00
O47    O     0.01610   0.97300   0.58530   0.01267  Uiso   1.00
O48    O     0.07320   0.85980   0.63880   0.01267  Uiso   1.00
O49    O     0.29190   0.56670   0.89100   0.01267  Uiso   1.00
O50    O     0.19890   0.63330   0.83940   0.01267  Uiso   1.00
O51    O     0.05330   0.66350   0.94400   0.01267  Uiso   1.00
O52    O     0.99840   0.62830   0.09990   0.01267  Uiso   1.00
O53    O     0.38700   0.10670   0.84650   0.01267  Uiso   1.00
O54    O     0.24920   0.11480   0.88140   0.01267  Uiso   1.00
O55    O     0.05830   0.95690   0.02700   0.01267  Uiso   1.00
O56    O     0.99860   0.78660   0.14020   0.01267  Uiso   1.00
O57    O     0.20810   0.31710   0.72520   0.01267  Uiso   1.00
O58    O     0.30110   0.46170   0.56560   0.01267  Uiso   1.00
O59    O     0.44670   0.50270   0.38980   0.01267  Uiso   1.00
O60    O     0.50160   0.40170   0.37010   0.01267  Uiso   1.00
O61    O     0.11300   0.26650   0.28030   0.01267  Uiso   1.00
O62    O     0.25080   0.36940   0.13440   0.01267  Uiso   1.00
O63    O     0.44170   0.41470   0.10140   0.01267  Uiso   1.00
O64    O     0.50140   0.36120   0.21200   0.01267  Uiso   1.00
