data_image0
_cell_length_a       9.2091
_cell_length_b       22.7532
_cell_length_c       23.0902
_cell_angle_alpha    90
_cell_angle_beta     90
_cell_angle_gamma    90

_symmetry_space_group_name_H-M    "P 1"
_symmetry_int_tables_number       1

loop_
  _symmetry_equiv_pos_as_xyz
  'x, y, z'

loop_
  _atom_site_label
  _atom_site_occupancy
  _atom_site_fract_x
  _atom_site_fract_y
  _atom_site_fract_z
  _atom_site_thermal_displace_type
  _atom_site_B_iso_or_equiv
  _atom_site_type_symbol
  Cu1      1.0000 0.38884  0.03282  0.53264  Biso   1.000  Cu
  N1       1.0000 0.49130  0.05180  0.60270  Biso   1.000  N
  N2       1.0000 0.25990  0.00570  0.98780  Biso   1.000  N
  C1       1.0000 0.55060  0.01010  0.63560  Biso   1.000  C
  H1       1.0000 0.55090  0.97160  0.62220  Biso   1.000  H
  C2       1.0000 0.61180  0.02220  0.68890  Biso   1.000  C
  H2       1.0000 0.65230  0.99160  0.71020  Biso   1.000  H
  C3       1.0000 0.61430  0.07660  0.71080  Biso   1.000  C
  C4       1.0000 0.55720  0.11980  0.67590  Biso   1.000  C
  H3       1.0000 0.55960  0.15870  0.68820  Biso   1.000  H
  C5       1.0000 0.49650  0.10610  0.62320  Biso   1.000  C
  H4       1.0000 0.45740  0.13640  0.60090  Biso   1.000  H
  C6       1.0000 0.66380  0.08870  0.77130  Biso   1.000  C
  H5       1.0000 0.68960  0.12980  0.77500  Biso   1.000  H
  H6       1.0000 0.74940  0.06540  0.77970  Biso   1.000  H
  C7       1.0000 0.54410  0.07370  0.81420  Biso   1.000  C
  H7       1.0000 0.46150  0.09910  0.80680  Biso   1.000  H
  H8       1.0000 0.51310  0.03350  0.80750  Biso   1.000  H
  C8       1.0000 0.58700  0.07990  0.87680  Biso   1.000  C
  H9       1.0000 0.60150  0.12120  0.88570  Biso   1.000  H
  H10      1.0000 0.67810  0.05960  0.88330  Biso   1.000  H
  C9       1.0000 0.27830  0.06300  0.98350  Biso   1.000  C
  H11      1.0000 0.21790  0.08730  0.00510  Biso   1.000  H
  C10      1.0000 0.38080  0.08860  0.94910  Biso   1.000  C
  H12      1.0000 0.38870  0.12930  0.94790  Biso   1.000  H
  C11      1.0000 0.47170  0.05480  0.91650  Biso   1.000  C
  C12      1.0000 0.45270  0.99430  0.92080  Biso   1.000  C
  H13      1.0000 0.51160  0.96920  0.89940  Biso   1.000  H
  C13      1.0000 0.34930  0.97180  0.95590  Biso   1.000  C
  H14      1.0000 0.33950  0.93110  0.95820  Biso   1.000  H
  Cu2      1.0000 0.11116  0.96718  0.03264  Biso   1.000  Cu
  N3       1.0000 0.00870  0.94820  0.10270  Biso   1.000  N
  N4       1.0000 0.24010  0.99430  0.48780  Biso   1.000  N
  C14      1.0000 0.94940  0.98990  0.13560  Biso   1.000  C
  H15      1.0000 0.94910  0.02840  0.12220  Biso   1.000  H
  C15      1.0000 0.88820  0.97780  0.18890  Biso   1.000  C
  H16      1.0000 0.84770  0.00840  0.21020  Biso   1.000  H
  C16      1.0000 0.88570  0.92340  0.21080  Biso   1.000  C
  C17      1.0000 0.94280  0.88020  0.17590  Biso   1.000  C
  H17      1.0000 0.94040  0.84130  0.18820  Biso   1.000  H
  C18      1.0000 0.00350  0.89390  0.12320  Biso   1.000  C
  H18      1.0000 0.04260  0.86360  0.10090  Biso   1.000  H
  C19      1.0000 0.83620  0.91130  0.27130  Biso   1.000  C
  H19      1.0000 0.81040  0.87020  0.27500  Biso   1.000  H
  H20      1.0000 0.75060  0.93460  0.27970  Biso   1.000  H
  C20      1.0000 0.95590  0.92630  0.31420  Biso   1.000  C
  H21      1.0000 0.03850  0.90090  0.30680  Biso   1.000  H
  H22      1.0000 0.98690  0.96650  0.30750  Biso   1.000  H
  C21      1.0000 0.91300  0.92010  0.37680  Biso   1.000  C
  H23      1.0000 0.89850  0.87880  0.38570  Biso   1.000  H
  H24      1.0000 0.82190  0.94040  0.38330  Biso   1.000  H
  C22      1.0000 0.22170  0.93700  0.48350  Biso   1.000  C
  H25      1.0000 0.28210  0.91270  0.50510  Biso   1.000  H
  C23      1.0000 0.11920  0.91140  0.44910  Biso   1.000  C
  H26      1.0000 0.11130  0.87070  0.44790  Biso   1.000  H
  C24      1.0000 0.02830  0.94520  0.41650  Biso   1.000  C
  C25      1.0000 0.04730  0.00570  0.42080  Biso   1.000  C
  H27      1.0000 0.98840  0.03080  0.39940  Biso   1.000  H
  C26      1.0000 0.15070  0.02820  0.45590  Biso   1.000  C
  H28      1.0000 0.16050  0.06890  0.45820  Biso   1.000  H
  Cu3      1.0000 0.61116  0.53282  0.46736  Biso   1.000  Cu
  N5       1.0000 0.50870  0.55180  0.39730  Biso   1.000  N
  N6       1.0000 0.74010  0.50570  0.01220  Biso   1.000  N
  C27      1.0000 0.44940  0.51010  0.36440  Biso   1.000  C
  H29      1.0000 0.44910  0.47160  0.37780  Biso   1.000  H
  C28      1.0000 0.38820  0.52220  0.31110  Biso   1.000  C
  H30      1.0000 0.34770  0.49160  0.28980  Biso   1.000  H
  C29      1.0000 0.38570  0.57660  0.28920  Biso   1.000  C
  C30      1.0000 0.44280  0.61980  0.32410  Biso   1.000  C
  H31      1.0000 0.44040  0.65870  0.31180  Biso   1.000  H
  C31      1.0000 0.50350  0.60610  0.37680  Biso   1.000  C
  H32      1.0000 0.54260  0.63640  0.39910  Biso   1.000  H
  C32      1.0000 0.33620  0.58870  0.22870  Biso   1.000  C
  H33      1.0000 0.31040  0.62980  0.22500  Biso   1.000  H
  H34      1.0000 0.25060  0.56540  0.22030  Biso   1.000  H
  C33      1.0000 0.45590  0.57370  0.18580  Biso   1.000  C
  H35      1.0000 0.53850  0.59910  0.19320  Biso   1.000  H
  H36      1.0000 0.48690  0.53350  0.19250  Biso   1.000  H
  C34      1.0000 0.41300  0.57990  0.12320  Biso   1.000  C
  H37      1.0000 0.39850  0.62120  0.11430  Biso   1.000  H
  H38      1.0000 0.32190  0.55960  0.11670  Biso   1.000  H
  C35      1.0000 0.72170  0.56300  0.01650  Biso   1.000  C
  H39      1.0000 0.78210  0.58730  0.99490  Biso   1.000  H
  C36      1.0000 0.61920  0.58860  0.05090  Biso   1.000  C
  H40      1.0000 0.61130  0.62930  0.05210  Biso   1.000  H
  C37      1.0000 0.52830  0.55480  0.08350  Biso   1.000  C
  C38      1.0000 0.54730  0.49430  0.07920  Biso   1.000  C
  H41      1.0000 0.48840  0.46920  0.10060  Biso   1.000  H
  C39      1.0000 0.65070  0.47180  0.04410  Biso   1.000  C
  H42      1.0000 0.66050  0.43110  0.04180  Biso   1.000  H
  Cu4      1.0000 0.88884  0.46718  0.96736  Biso   1.000  Cu
  N7       1.0000 0.99130  0.44820  0.89730  Biso   1.000  N
  N8       1.0000 0.75990  0.49430  0.51220  Biso   1.000  N
  C40      1.0000 0.05060  0.48990  0.86440  Biso   1.000  C
  H43      1.0000 0.05090  0.52840  0.87780  Biso   1.000  H
  C41      1.0000 0.11180  0.47780  0.81110  Biso   1.000  C
  H44      1.0000 0.15230  0.50840  0.78980  Biso   1.000  H
  C42      1.0000 0.11430  0.42340  0.78920  Biso   1.000  C
  C43      1.0000 0.05720  0.38020  0.82410  Biso   1.000  C
  H45      1.0000 0.05960  0.34130  0.81180  Biso   1.000  H
  C44      1.0000 0.99650  0.39390  0.87680  Biso   1.000  C
  H46      1.0000 0.95740  0.36360  0.89910  Biso   1.000  H
  C45      1.0000 0.16380  0.41130  0.72870  Biso   1.000  C
  H47      1.0000 0.18960  0.37020  0.72500  Biso   1.000  H
  H48      1.0000 0.24940  0.43460  0.72030  Biso   1.000  H
  C46      1.0000 0.04410  0.42630  0.68580  Biso   1.000  C
  H49      1.0000 0.96150  0.40090  0.69320  Biso   1.000  H
  H50      1.0000 0.01310  0.46650  0.69250  Biso   1.000  H
  C47      1.0000 0.08700  0.42010  0.62320  Biso   1.000  C
  H51      1.0000 0.10150  0.37880  0.61430  Biso   1.000  H
  H52      1.0000 0.17810  0.44040  0.61670  Biso   1.000  H
  C48      1.0000 0.77830  0.43700  0.51650  Biso   1.000  C
  H53      1.0000 0.71790  0.41270  0.49490  Biso   1.000  H
  C49      1.0000 0.88080  0.41140  0.55090  Biso   1.000  C
  H54      1.0000 0.88870  0.37070  0.55210  Biso   1.000  H
  C50      1.0000 0.97170  0.44520  0.58350  Biso   1.000  C
  C51      1.0000 0.95270  0.50570  0.57920  Biso   1.000  C
  H55      1.0000 0.01160  0.53080  0.60060  Biso   1.000  H
  C52      1.0000 0.84930  0.52820  0.54410  Biso   1.000  C
  H56      1.0000 0.83950  0.56890  0.54180  Biso   1.000  H
  Cu5      1.0000 0.61116  0.96718  0.46736  Biso   1.000  Cu
  N9       1.0000 0.50870  0.94820  0.39730  Biso   1.000  N
  N10      1.0000 0.74010  0.99430  0.01220  Biso   1.000  N
  C53      1.0000 0.44940  0.98990  0.36440  Biso   1.000  C
  H57      1.0000 0.44910  0.02840  0.37780  Biso   1.000  H
  C54      1.0000 0.38820  0.97780  0.31110  Biso   1.000  C
  H58      1.0000 0.34770  0.00840  0.28980  Biso   1.000  H
  C55      1.0000 0.38570  0.92340  0.28920  Biso   1.000  C
  C56      1.0000 0.44280  0.88020  0.32410  Biso   1.000  C
  H59      1.0000 0.44040  0.84130  0.31180  Biso   1.000  H
  C57      1.0000 0.50350  0.89390  0.37680  Biso   1.000  C
  H60      1.0000 0.54260  0.86360  0.39910  Biso   1.000  H
  C58      1.0000 0.33620  0.91130  0.22870  Biso   1.000  C
  H61      1.0000 0.31040  0.87020  0.22500  Biso   1.000  H
  H62      1.0000 0.25060  0.93460  0.22030  Biso   1.000  H
  C59      1.0000 0.45590  0.92630  0.18580  Biso   1.000  C
  H63      1.0000 0.53850  0.90090  0.19320  Biso   1.000  H
  H64      1.0000 0.48690  0.96650  0.19250  Biso   1.000  H
  C60      1.0000 0.41300  0.92010  0.12320  Biso   1.000  C
  H65      1.0000 0.39850  0.87880  0.11430  Biso   1.000  H
  H66      1.0000 0.32190  0.94040  0.11670  Biso   1.000  H
  C61      1.0000 0.72170  0.93700  0.01650  Biso   1.000  C
  H67      1.0000 0.78210  0.91270  0.99490  Biso   1.000  H
  C62      1.0000 0.61920  0.91140  0.05090  Biso   1.000  C
  H68      1.0000 0.61130  0.87070  0.05210  Biso   1.000  H
  C63      1.0000 0.52830  0.94520  0.08350  Biso   1.000  C
  C64      1.0000 0.54730  0.00570  0.07920  Biso   1.000  C
  H69      1.0000 0.48840  0.03080  0.10060  Biso   1.000  H
  C65      1.0000 0.65070  0.02820  0.04410  Biso   1.000  C
  H70      1.0000 0.66050  0.06890  0.04180  Biso   1.000  H
  Cu6      1.0000 0.88884  0.03282  0.96736  Biso   1.000  Cu
  N11      1.0000 0.99130  0.05180  0.89730  Biso   1.000  N
  N12      1.0000 0.75990  0.00570  0.51220  Biso   1.000  N
  C66      1.0000 0.05060  0.01010  0.86440  Biso   1.000  C
  H71      1.0000 0.05090  0.97160  0.87780  Biso   1.000  H
  C67      1.0000 0.11180  0.02220  0.81110  Biso   1.000  C
  H72      1.0000 0.15230  0.99160  0.78980  Biso   1.000  H
  C68      1.0000 0.11430  0.07660  0.78920  Biso   1.000  C
  C69      1.0000 0.05720  0.11980  0.82410  Biso   1.000  C
  H73      1.0000 0.05960  0.15870  0.81180  Biso   1.000  H
  C70      1.0000 0.99650  0.10610  0.87680  Biso   1.000  C
  H74      1.0000 0.95740  0.13640  0.89910  Biso   1.000  H
  C71      1.0000 0.16380  0.08870  0.72870  Biso   1.000  C
  H75      1.0000 0.18960  0.12980  0.72500  Biso   1.000  H
  H76      1.0000 0.24940  0.06540  0.72030  Biso   1.000  H
  C72      1.0000 0.04410  0.07370  0.68580  Biso   1.000  C
  H77      1.0000 0.96150  0.09910  0.69320  Biso   1.000  H
  H78      1.0000 0.01310  0.03350  0.69250  Biso   1.000  H
  C73      1.0000 0.08700  0.07990  0.62320  Biso   1.000  C
  H79      1.0000 0.10150  0.12120  0.61430  Biso   1.000  H
  H80      1.0000 0.17810  0.05960  0.61670  Biso   1.000  H
  C74      1.0000 0.77830  0.06300  0.51650  Biso   1.000  C
  H81      1.0000 0.71790  0.08730  0.49490  Biso   1.000  H
  C75      1.0000 0.88080  0.08860  0.55090  Biso   1.000  C
  H82      1.0000 0.88870  0.12930  0.55210  Biso   1.000  H
  C76      1.0000 0.97170  0.05480  0.58350  Biso   1.000  C
  C77      1.0000 0.95270  0.99430  0.57920  Biso   1.000  C
  H83      1.0000 0.01160  0.96920  0.60060  Biso   1.000  H
  C78      1.0000 0.84930  0.97180  0.54410  Biso   1.000  C
  H84      1.0000 0.83950  0.93110  0.54180  Biso   1.000  H
  Cu7      1.0000 0.38884  0.46718  0.53264  Biso   1.000  Cu
  N13      1.0000 0.49130  0.44820  0.60270  Biso   1.000  N
  N14      1.0000 0.25990  0.49430  0.98780  Biso   1.000  N
  C79      1.0000 0.55060  0.48990  0.63560  Biso   1.000  C
  H85      1.0000 0.55090  0.52840  0.62220  Biso   1.000  H
  C80      1.0000 0.61180  0.47780  0.68890  Biso   1.000  C
  H86      1.0000 0.65230  0.50840  0.71020  Biso   1.000  H
  C81      1.0000 0.61430  0.42340  0.71080  Biso   1.000  C
  C82      1.0000 0.55720  0.38020  0.67590  Biso   1.000  C
  H87      1.0000 0.55960  0.34130  0.68820  Biso   1.000  H
  C83      1.0000 0.49650  0.39390  0.62320  Biso   1.000  C
  H88      1.0000 0.45740  0.36360  0.60090  Biso   1.000  H
  C84      1.0000 0.66380  0.41130  0.77130  Biso   1.000  C
  H89      1.0000 0.68960  0.37020  0.77500  Biso   1.000  H
  H90      1.0000 0.74940  0.43460  0.77970  Biso   1.000  H
  C85      1.0000 0.54410  0.42630  0.81420  Biso   1.000  C
  H91      1.0000 0.46150  0.40090  0.80680  Biso   1.000  H
  H92      1.0000 0.51310  0.46650  0.80750  Biso   1.000  H
  C86      1.0000 0.58700  0.42010  0.87680  Biso   1.000  C
  H93      1.0000 0.60150  0.37880  0.88570  Biso   1.000  H
  H94      1.0000 0.67810  0.44040  0.88330  Biso   1.000  H
  C87      1.0000 0.27830  0.43700  0.98350  Biso   1.000  C
  H95      1.0000 0.21790  0.41270  0.00510  Biso   1.000  H
  C88      1.0000 0.38080  0.41140  0.94910  Biso   1.000  C
  H96      1.0000 0.38870  0.37070  0.94790  Biso   1.000  H
  C89      1.0000 0.47170  0.44520  0.91650  Biso   1.000  C
  C90      1.0000 0.45270  0.50570  0.92080  Biso   1.000  C
  H97      1.0000 0.51160  0.53080  0.89940  Biso   1.000  H
  C91      1.0000 0.34930  0.52820  0.95590  Biso   1.000  C
  H98      1.0000 0.33950  0.56890  0.95820  Biso   1.000  H
  Cu8      1.0000 0.11116  0.53282  0.03264  Biso   1.000  Cu
  N15      1.0000 0.00870  0.55180  0.10270  Biso   1.000  N
  N16      1.0000 0.24010  0.50570  0.48780  Biso   1.000  N
  C92      1.0000 0.94940  0.51010  0.13560  Biso   1.000  C
  H99      1.0000 0.94910  0.47160  0.12220  Biso   1.000  H
  C93      1.0000 0.88820  0.52220  0.18890  Biso   1.000  C
  H100     1.0000 0.84770  0.49160  0.21020  Biso   1.000  H
  C94      1.0000 0.88570  0.57660  0.21080  Biso   1.000  C
  C95      1.0000 0.94280  0.61980  0.17590  Biso   1.000  C
  H101     1.0000 0.94040  0.65870  0.18820  Biso   1.000  H
  C96      1.0000 0.00350  0.60610  0.12320  Biso   1.000  C
  H102     1.0000 0.04260  0.63640  0.10090  Biso   1.000  H
  C97      1.0000 0.83620  0.58870  0.27130  Biso   1.000  C
  H103     1.0000 0.81040  0.62980  0.27500  Biso   1.000  H
  H104     1.0000 0.75060  0.56540  0.27970  Biso   1.000  H
  C98      1.0000 0.95590  0.57370  0.31420  Biso   1.000  C
  H105     1.0000 0.03850  0.59910  0.30680  Biso   1.000  H
  H106     1.0000 0.98690  0.53350  0.30750  Biso   1.000  H
  C99      1.0000 0.91300  0.57990  0.37680  Biso   1.000  C
  H107     1.0000 0.89850  0.62120  0.38570  Biso   1.000  H
  H108     1.0000 0.82190  0.55960  0.38330  Biso   1.000  H
  C100     1.0000 0.22170  0.56300  0.48350  Biso   1.000  C
  H109     1.0000 0.28210  0.58730  0.50510  Biso   1.000  H
  C101     1.0000 0.11920  0.58860  0.44910  Biso   1.000  C
  H110     1.0000 0.11130  0.62930  0.44790  Biso   1.000  H
  C102     1.0000 0.02830  0.55480  0.41650  Biso   1.000  C
  C103     1.0000 0.04730  0.49430  0.42080  Biso   1.000  C
  H111     1.0000 0.98840  0.46920  0.39940  Biso   1.000  H
  C104     1.0000 0.15070  0.47180  0.45590  Biso   1.000  C
  H112     1.0000 0.16050  0.43110  0.45820  Biso   1.000  H
  O1       1.0000 0.46260  0.09720  0.46270  Biso   1.000  O
  O2       1.0000 0.30730  0.15130  0.51190  Biso   1.000  O
  C105     1.0000 0.46400  0.19780  0.44600  Biso   1.000  C
  C106     1.0000 0.55770  0.19610  0.40120  Biso   1.000  C
  H113     1.0000 0.59040  0.16060  0.38610  Biso   1.000  H
  C107     1.0000 0.40550  0.14420  0.47660  Biso   1.000  C
  O3       1.0000 0.46260  0.40280  0.46270  Biso   1.000  O
  O4       1.0000 0.30730  0.34870  0.51190  Biso   1.000  O
  C108     1.0000 0.46400  0.30220  0.44600  Biso   1.000  C
  C109     1.0000 0.55770  0.30390  0.40120  Biso   1.000  C
  H114     1.0000 0.59040  0.33940  0.38610  Biso   1.000  H
  C110     1.0000 0.40550  0.35580  0.47660  Biso   1.000  C
  Cu9      1.0000 0.26482  0.25000  0.52734  Biso   1.000  Cu
  O5       1.0000 0.34820  0.25000  0.69910  Biso   1.000  O
  O6       1.0000 0.38320  0.25000  0.60380  Biso   1.000  O
  O7       1.0000 0.08420  0.25000  0.47380  Biso   1.000  O
  O8       1.0000 0.84320  0.25000  0.47600  Biso   1.000  O
  N17      1.0000 0.10750  0.25000  0.58330  Biso   1.000  N
  N18      1.0000 0.41720  0.25000  0.46720  Biso   1.000  N
  C111     1.0000 0.13940  0.25000  0.64020  Biso   1.000  C
  C112     1.0000 0.02400  0.25000  0.68120  Biso   1.000  C
  H115     1.0000 0.04190  0.25000  0.72090  Biso   1.000  H
  C113     1.0000 0.88800  0.25000  0.65970  Biso   1.000  C
  H116     1.0000 0.81130  0.25000  0.68600  Biso   1.000  H
  C114     1.0000 0.85500  0.25000  0.60400  Biso   1.000  C
  H117     1.0000 0.75890  0.25000  0.59140  Biso   1.000  H
  C115     1.0000 0.97300  0.25000  0.56410  Biso   1.000  C
  C116     1.0000 0.29400  0.25000  0.64950  Biso   1.000  C
  C117     1.0000 0.95800  0.25000  0.49970  Biso   1.000  C
  C118     1.0000 0.60390  0.25000  0.37810  Biso   1.000  C
  H118     1.0000 0.66710  0.25000  0.34670  Biso   1.000  H
  O9       1.0000 0.03740  0.90280  0.96270  Biso   1.000  O
  O10      1.0000 0.19270  0.84870  0.01190  Biso   1.000  O
  C119     1.0000 0.03600  0.80220  0.94600  Biso   1.000  C
  C120     1.0000 0.94230  0.80390  0.90120  Biso   1.000  C
  H119     1.0000 0.90960  0.83940  0.88610  Biso   1.000  H
  C121     1.0000 0.09450  0.85580  0.97660  Biso   1.000  C
  O11      1.0000 0.03740  0.59720  0.96270  Biso   1.000  O
  O12      1.0000 0.19270  0.65130  0.01190  Biso   1.000  O
  C122     1.0000 0.03600  0.69780  0.94600  Biso   1.000  C
  C123     1.0000 0.94230  0.69610  0.90120  Biso   1.000  C
  H120     1.0000 0.90960  0.66060  0.88610  Biso   1.000  H
  C124     1.0000 0.09450  0.64420  0.97660  Biso   1.000  C
  Cu10     1.0000 0.23518  0.75000  0.02734  Biso   1.000  Cu
  O13      1.0000 0.15180  0.75000  0.19910  Biso   1.000  O
  O14      1.0000 0.11680  0.75000  0.10380  Biso   1.000  O
  O15      1.0000 0.41580  0.75000  0.97380  Biso   1.000  O
  O16      1.0000 0.65680  0.75000  0.97600  Biso   1.000  O
  N19      1.0000 0.39250  0.75000  0.08330  Biso   1.000  N
  N20      1.0000 0.08280  0.75000  0.96720  Biso   1.000  N
  C125     1.0000 0.36060  0.75000  0.14020  Biso   1.000  C
  C126     1.0000 0.47600  0.75000  0.18120  Biso   1.000  C
  H121     1.0000 0.45810  0.75000  0.22090  Biso   1.000  H
  C127     1.0000 0.61200  0.75000  0.15970  Biso   1.000  C
  H122     1.0000 0.68870  0.75000  0.18600  Biso   1.000  H
  C128     1.0000 0.64500  0.75000  0.10400  Biso   1.000  C
  H123     1.0000 0.74110  0.75000  0.09140  Biso   1.000  H
  C129     1.0000 0.52700  0.75000  0.06410  Biso   1.000  C
  C130     1.0000 0.20600  0.75000  0.14950  Biso   1.000  C
  C131     1.0000 0.54200  0.75000  0.99970  Biso   1.000  C
  C132     1.0000 0.89610  0.75000  0.87810  Biso   1.000  C
  H124     1.0000 0.83290  0.75000  0.84670  Biso   1.000  H
  O17      1.0000 0.53740  0.59720  0.53730  Biso   1.000  O
  O18      1.0000 0.69270  0.65130  0.48810  Biso   1.000  O
  C133     1.0000 0.53600  0.69780  0.55400  Biso   1.000  C
  C134     1.0000 0.44230  0.69610  0.59880  Biso   1.000  C
  H125     1.0000 0.40960  0.66060  0.61390  Biso   1.000  H
  C135     1.0000 0.59450  0.64420  0.52340  Biso   1.000  C
  O19      1.0000 0.53740  0.90280  0.53730  Biso   1.000  O
  O20      1.0000 0.69270  0.84870  0.48810  Biso   1.000  O
  C136     1.0000 0.53600  0.80220  0.55400  Biso   1.000  C
  C137     1.0000 0.44230  0.80390  0.59880  Biso   1.000  C
  H126     1.0000 0.40960  0.83940  0.61390  Biso   1.000  H
  C138     1.0000 0.59450  0.85580  0.52340  Biso   1.000  C
  Cu11     1.0000 0.73518  0.75000  0.47266  Biso   1.000  Cu
  O21      1.0000 0.65180  0.75000  0.30090  Biso   1.000  O
  O22      1.0000 0.61680  0.75000  0.39620  Biso   1.000  O
  O23      1.0000 0.91580  0.75000  0.52620  Biso   1.000  O
  O24      1.0000 0.15680  0.75000  0.52400  Biso   1.000  O
  N21      1.0000 0.89250  0.75000  0.41670  Biso   1.000  N
  N22      1.0000 0.58280  0.75000  0.53280  Biso   1.000  N
  C139     1.0000 0.86060  0.75000  0.35980  Biso   1.000  C
  C140     1.0000 0.97600  0.75000  0.31880  Biso   1.000  C
  H127     1.0000 0.95810  0.75000  0.27910  Biso   1.000  H
  C141     1.0000 0.11200  0.75000  0.34030  Biso   1.000  C
  H128     1.0000 0.18870  0.75000  0.31400  Biso   1.000  H
  C142     1.0000 0.14500  0.75000  0.39600  Biso   1.000  C
  H129     1.0000 0.24110  0.75000  0.40860  Biso   1.000  H
  C143     1.0000 0.02700  0.75000  0.43590  Biso   1.000  C
  C144     1.0000 0.70600  0.75000  0.35050  Biso   1.000  C
  C145     1.0000 0.04200  0.75000  0.50030  Biso   1.000  C
  C146     1.0000 0.39610  0.75000  0.62190  Biso   1.000  C
  H130     1.0000 0.33290  0.75000  0.65330  Biso   1.000  H
  O25      1.0000 0.96260  0.40280  0.03730  Biso   1.000  O
  O26      1.0000 0.80730  0.34870  0.98810  Biso   1.000  O
  C147     1.0000 0.96400  0.30220  0.05400  Biso   1.000  C
  C148     1.0000 0.05770  0.30390  0.09880  Biso   1.000  C
  H131     1.0000 0.09040  0.33940  0.11390  Biso   1.000  H
  C149     1.0000 0.90550  0.35580  0.02340  Biso   1.000  C
  O27      1.0000 0.96260  0.09720  0.03730  Biso   1.000  O
  O28      1.0000 0.80730  0.15130  0.98810  Biso   1.000  O
  C150     1.0000 0.96400  0.19780  0.05400  Biso   1.000  C
  C151     1.0000 0.05770  0.19610  0.09880  Biso   1.000  C
  H132     1.0000 0.09040  0.16060  0.11390  Biso   1.000  H
  C152     1.0000 0.90550  0.14420  0.02340  Biso   1.000  C
  Cu12     1.0000 0.76482  0.25000  0.97266  Biso   1.000  Cu
  O29      1.0000 0.84820  0.25000  0.80090  Biso   1.000  O
  O30      1.0000 0.88320  0.25000  0.89620  Biso   1.000  O
  O31      1.0000 0.58420  0.25000  0.02620  Biso   1.000  O
  O32      1.0000 0.34320  0.25000  0.02400  Biso   1.000  O
  N23      1.0000 0.60750  0.25000  0.91670  Biso   1.000  N
  N24      1.0000 0.91720  0.25000  0.03280  Biso   1.000  N
  C153     1.0000 0.63940  0.25000  0.85980  Biso   1.000  C
  C154     1.0000 0.52400  0.25000  0.81880  Biso   1.000  C
  H133     1.0000 0.54190  0.25000  0.77910  Biso   1.000  H
  C155     1.0000 0.38800  0.25000  0.84030  Biso   1.000  C
  H134     1.0000 0.31130  0.25000  0.81400  Biso   1.000  H
  C156     1.0000 0.35500  0.25000  0.89600  Biso   1.000  C
  H135     1.0000 0.25890  0.25000  0.90860  Biso   1.000  H
  C157     1.0000 0.47300  0.25000  0.93590  Biso   1.000  C
  C158     1.0000 0.79400  0.25000  0.85050  Biso   1.000  C
  C159     1.0000 0.45800  0.25000  0.00030  Biso   1.000  C
  C160     1.0000 0.10390  0.25000  0.12190  Biso   1.000  C
  H136     1.0000 0.16710  0.25000  0.15330  Biso   1.000  H
