data_image0
_cell_length_a       7.973
_cell_length_b       8.423
_cell_length_c       8.834
_cell_angle_alpha    116.834
_cell_angle_beta     100.992
_cell_angle_gamma    103.428

_symmetry_space_group_name_H-M    "P 1"
_symmetry_int_tables_number       1

loop_
  _symmetry_equiv_pos_as_xyz
  'x, y, z'

loop_
  _atom_site_label
  _atom_site_occupancy
  _atom_site_fract_x
  _atom_site_fract_y
  _atom_site_fract_z
  _atom_site_thermal_displace_type
  _atom_site_B_iso_or_equiv
  _atom_site_type_symbol
  Ga1      1.0000 0.67761  0.27979  0.31353  Biso   1.000  Ga
  Ga2      1.0000 0.23079  0.46236  0.00653  Biso   1.000  Ga
  P1       1.0000 0.45955  0.19027  0.91224  Biso   1.000  P
  P2       1.0000 0.96110  0.50767  0.73468  Biso   1.000  P
  C1       1.0000 0.55850  0.58270  0.49610  Biso   1.000  C
  O1       1.0000 0.67350  0.55440  0.41950  Biso   1.000  O
  O2       1.0000 0.52710  0.73520  0.57160  Biso   1.000  O
  O3       1.0000 0.49480  0.21200  0.09590  Biso   1.000  O
  O4       1.0000 0.36860  0.98330  0.75740  Biso   1.000  O
  O5       1.0000 0.32970  0.29350  0.88500  Biso   1.000  O
  O6       1.0000 0.63630  0.28300  0.88770  Biso   1.000  O
  O7       1.0000 0.02520  0.39920  0.82450  Biso   1.000  O
  O8       1.0000 0.83060  0.59170  0.82810  Biso   1.000  O
  O9       1.0000 0.85510  0.35630  0.53930  Biso   1.000  O
  O10      1.0000 0.12210  0.67140  0.76990  Biso   1.000  O
  Ga3      1.0000 0.32239  0.72021  0.68647  Biso   1.000  Ga
  Ga4      1.0000 0.76921  0.53764  0.99347  Biso   1.000  Ga
  P3       1.0000 0.54045  0.80973  0.08776  Biso   1.000  P
  P4       1.0000 0.03890  0.49233  0.26532  Biso   1.000  P
  C2       1.0000 0.44150  0.41730  0.50390  Biso   1.000  C
  O11      1.0000 0.32650  0.44560  0.58050  Biso   1.000  O
  O12      1.0000 0.47290  0.26480  0.42840  Biso   1.000  O
  O13      1.0000 0.50520  0.78800  0.90410  Biso   1.000  O
  O14      1.0000 0.63140  0.01670  0.24260  Biso   1.000  O
  O15      1.0000 0.67030  0.70650  0.11500  Biso   1.000  O
  O16      1.0000 0.36370  0.71700  0.11230  Biso   1.000  O
  O17      1.0000 0.97480  0.60080  0.17550  Biso   1.000  O
  O18      1.0000 0.16940  0.40830  0.17190  Biso   1.000  O
  O19      1.0000 0.14490  0.64370  0.46070  Biso   1.000  O
  O20      1.0000 0.87790  0.32860  0.23010  Biso   1.000  O
