data_image0
_cell_length_a       20.131
_cell_length_b       15.67
_cell_length_c       9.097
_cell_angle_alpha    90
_cell_angle_beta     105.988
_cell_angle_gamma    90

_symmetry_space_group_name_H-M    "P 1"
_symmetry_int_tables_number       1

loop_
  _symmetry_equiv_pos_as_xyz
  'x, y, z'

loop_
  _atom_site_label
  _atom_site_occupancy
  _atom_site_fract_x
  _atom_site_fract_y
  _atom_site_fract_z
  _atom_site_thermal_displace_type
  _atom_site_B_iso_or_equiv
  _atom_site_type_symbol
  Ga1      1.0000 0.16196  0.13569  0.33238  Biso   1.000  Ga
  Ga2      1.0000 0.25196  0.88372  0.43563  Biso   1.000  Ga
  P1       1.0000 0.21073  0.97965  0.13595  Biso   1.000  P
  P2       1.0000 0.14413  0.23309  0.00449  Biso   1.000  P
  C1       1.0000 0.21980  0.27570  0.51130  Biso   1.000  C
  O1       1.0000 0.16080  0.24590  0.45850  Biso   1.000  O
  O2       1.0000 0.23390  0.34580  0.58260  Biso   1.000  O
  O3       1.0000 0.06300  0.13340  0.26960  Biso   1.000  O
  O4       1.0000 0.16970  0.21360  0.17260  Biso   1.000  O
  O5       1.0000 0.17070  0.03510  0.21780  Biso   1.000  O
  O6       1.0000 0.25660  0.91600  0.24770  Biso   1.000  O
  O7       1.0000 0.15960  0.93280  0.00820  Biso   1.000  O
  O8       1.0000 0.26250  0.03080  0.07450  Biso   1.000  O
  O9       1.0000 0.16780  0.16460  0.90950  Biso   1.000  O
  O10      1.0000 0.17400  0.31900  0.97250  Biso   1.000  O
  O11      1.0000 0.06630  0.23810  0.94380  Biso   1.000  O
  O12      1.0000 0.00730  0.24890  0.38670  Biso   1.000  O
  Ga3      1.0000 0.66196  0.63569  0.33238  Biso   1.000  Ga
  Ga4      1.0000 0.75196  0.38372  0.43563  Biso   1.000  Ga
  P3       1.0000 0.71073  0.47965  0.13595  Biso   1.000  P
  P4       1.0000 0.64413  0.73309  0.00449  Biso   1.000  P
  C2       1.0000 0.71980  0.77570  0.51130  Biso   1.000  C
  O13      1.0000 0.66080  0.74590  0.45850  Biso   1.000  O
  O14      1.0000 0.73390  0.84580  0.58260  Biso   1.000  O
  O15      1.0000 0.56300  0.63340  0.26960  Biso   1.000  O
  O16      1.0000 0.66970  0.71360  0.17260  Biso   1.000  O
  O17      1.0000 0.67070  0.53510  0.21780  Biso   1.000  O
  O18      1.0000 0.75660  0.41600  0.24770  Biso   1.000  O
  O19      1.0000 0.65960  0.43280  0.00820  Biso   1.000  O
  O20      1.0000 0.76250  0.53080  0.07450  Biso   1.000  O
  O21      1.0000 0.66780  0.66460  0.90950  Biso   1.000  O
  O22      1.0000 0.67400  0.81900  0.97250  Biso   1.000  O
  O23      1.0000 0.56630  0.73810  0.94380  Biso   1.000  O
  O24      1.0000 0.50730  0.74890  0.38670  Biso   1.000  O
  Ga5      1.0000 0.83804  0.13569  0.16762  Biso   1.000  Ga
  Ga6      1.0000 0.74804  0.88372  0.06437  Biso   1.000  Ga
  P5       1.0000 0.78927  0.97965  0.36405  Biso   1.000  P
  P6       1.0000 0.85587  0.23309  0.49551  Biso   1.000  P
  C3       1.0000 0.78020  0.27570  0.98870  Biso   1.000  C
  O25      1.0000 0.83920  0.24590  0.04150  Biso   1.000  O
  O26      1.0000 0.76610  0.34580  0.91740  Biso   1.000  O
  O27      1.0000 0.93700  0.13340  0.23040  Biso   1.000  O
  O28      1.0000 0.83030  0.21360  0.32740  Biso   1.000  O
  O29      1.0000 0.82930  0.03510  0.28220  Biso   1.000  O
  O30      1.0000 0.74340  0.91600  0.25230  Biso   1.000  O
  O31      1.0000 0.84040  0.93280  0.49180  Biso   1.000  O
  O32      1.0000 0.73750  0.03080  0.42550  Biso   1.000  O
  O33      1.0000 0.83220  0.16460  0.59050  Biso   1.000  O
  O34      1.0000 0.82600  0.31900  0.52750  Biso   1.000  O
  O35      1.0000 0.93370  0.23810  0.55620  Biso   1.000  O
  O36      1.0000 0.99270  0.24890  0.11330  Biso   1.000  O
  Ga7      1.0000 0.33804  0.63569  0.16762  Biso   1.000  Ga
  Ga8      1.0000 0.24804  0.38372  0.06437  Biso   1.000  Ga
  P7       1.0000 0.28927  0.47965  0.36405  Biso   1.000  P
  P8       1.0000 0.35587  0.73309  0.49551  Biso   1.000  P
  C4       1.0000 0.28020  0.77570  0.98870  Biso   1.000  C
  O37      1.0000 0.33920  0.74590  0.04150  Biso   1.000  O
  O38      1.0000 0.26610  0.84580  0.91740  Biso   1.000  O
  O39      1.0000 0.43700  0.63340  0.23040  Biso   1.000  O
  O40      1.0000 0.33030  0.71360  0.32740  Biso   1.000  O
  O41      1.0000 0.32930  0.53510  0.28220  Biso   1.000  O
  O42      1.0000 0.24340  0.41600  0.25230  Biso   1.000  O
  O43      1.0000 0.34040  0.43280  0.49180  Biso   1.000  O
  O44      1.0000 0.23750  0.53080  0.42550  Biso   1.000  O
  O45      1.0000 0.33220  0.66460  0.59050  Biso   1.000  O
  O46      1.0000 0.32600  0.81900  0.52750  Biso   1.000  O
  O47      1.0000 0.43370  0.73810  0.55620  Biso   1.000  O
  O48      1.0000 0.49270  0.74890  0.11330  Biso   1.000  O
  Ga9      1.0000 0.83804  0.86431  0.66762  Biso   1.000  Ga
  Ga10     1.0000 0.74804  0.11628  0.56437  Biso   1.000  Ga
  P9       1.0000 0.78927  0.02035  0.86405  Biso   1.000  P
  P10      1.0000 0.85587  0.76691  0.99551  Biso   1.000  P
  C5       1.0000 0.78020  0.72430  0.48870  Biso   1.000  C
  O49      1.0000 0.83920  0.75410  0.54150  Biso   1.000  O
  O50      1.0000 0.76610  0.65420  0.41740  Biso   1.000  O
  O51      1.0000 0.93700  0.86660  0.73040  Biso   1.000  O
  O52      1.0000 0.83030  0.78640  0.82740  Biso   1.000  O
  O53      1.0000 0.82930  0.96490  0.78220  Biso   1.000  O
  O54      1.0000 0.74340  0.08400  0.75230  Biso   1.000  O
  O55      1.0000 0.84040  0.06720  0.99180  Biso   1.000  O
  O56      1.0000 0.73750  0.96920  0.92550  Biso   1.000  O
  O57      1.0000 0.83220  0.83540  0.09050  Biso   1.000  O
  O58      1.0000 0.82600  0.68100  0.02750  Biso   1.000  O
  O59      1.0000 0.93370  0.76190  0.05620  Biso   1.000  O
  O60      1.0000 0.99270  0.75110  0.61330  Biso   1.000  O
  Ga11     1.0000 0.33804  0.36431  0.66762  Biso   1.000  Ga
  Ga12     1.0000 0.24804  0.61628  0.56437  Biso   1.000  Ga
  P11      1.0000 0.28927  0.52035  0.86405  Biso   1.000  P
  P12      1.0000 0.35587  0.26691  0.99551  Biso   1.000  P
  C6       1.0000 0.28020  0.22430  0.48870  Biso   1.000  C
  O61      1.0000 0.33920  0.25410  0.54150  Biso   1.000  O
  O62      1.0000 0.26610  0.15420  0.41740  Biso   1.000  O
  O63      1.0000 0.43700  0.36660  0.73040  Biso   1.000  O
  O64      1.0000 0.33030  0.28640  0.82740  Biso   1.000  O
  O65      1.0000 0.32930  0.46490  0.78220  Biso   1.000  O
  O66      1.0000 0.24340  0.58400  0.75230  Biso   1.000  O
  O67      1.0000 0.34040  0.56720  0.99180  Biso   1.000  O
  O68      1.0000 0.23750  0.46920  0.92550  Biso   1.000  O
  O69      1.0000 0.33220  0.33540  0.09050  Biso   1.000  O
  O70      1.0000 0.32600  0.18100  0.02750  Biso   1.000  O
  O71      1.0000 0.43370  0.26190  0.05620  Biso   1.000  O
  O72      1.0000 0.49270  0.25110  0.61330  Biso   1.000  O
  Ga13     1.0000 0.16196  0.86431  0.83238  Biso   1.000  Ga
  Ga14     1.0000 0.25196  0.11628  0.93563  Biso   1.000  Ga
  P13      1.0000 0.21073  0.02035  0.63595  Biso   1.000  P
  P14      1.0000 0.14413  0.76691  0.50449  Biso   1.000  P
  C7       1.0000 0.21980  0.72430  0.01130  Biso   1.000  C
  O73      1.0000 0.16080  0.75410  0.95850  Biso   1.000  O
  O74      1.0000 0.23390  0.65420  0.08260  Biso   1.000  O
  O75      1.0000 0.06300  0.86660  0.76960  Biso   1.000  O
  O76      1.0000 0.16970  0.78640  0.67260  Biso   1.000  O
  O77      1.0000 0.17070  0.96490  0.71780  Biso   1.000  O
  O78      1.0000 0.25660  0.08400  0.74770  Biso   1.000  O
  O79      1.0000 0.15960  0.06720  0.50820  Biso   1.000  O
  O80      1.0000 0.26250  0.96920  0.57450  Biso   1.000  O
  O81      1.0000 0.16780  0.83540  0.40950  Biso   1.000  O
  O82      1.0000 0.17400  0.68100  0.47250  Biso   1.000  O
  O83      1.0000 0.06630  0.76190  0.44380  Biso   1.000  O
  O84      1.0000 0.00730  0.75110  0.88670  Biso   1.000  O
  Ga15     1.0000 0.66196  0.36431  0.83238  Biso   1.000  Ga
  Ga16     1.0000 0.75196  0.61628  0.93563  Biso   1.000  Ga
  P15      1.0000 0.71073  0.52035  0.63595  Biso   1.000  P
  P16      1.0000 0.64413  0.26691  0.50449  Biso   1.000  P
  C8       1.0000 0.71980  0.22430  0.01130  Biso   1.000  C
  O85      1.0000 0.66080  0.25410  0.95850  Biso   1.000  O
  O86      1.0000 0.73390  0.15420  0.08260  Biso   1.000  O
  O87      1.0000 0.56300  0.36660  0.76960  Biso   1.000  O
  O88      1.0000 0.66970  0.28640  0.67260  Biso   1.000  O
  O89      1.0000 0.67070  0.46490  0.71780  Biso   1.000  O
  O90      1.0000 0.75660  0.58400  0.74770  Biso   1.000  O
  O91      1.0000 0.65960  0.56720  0.50820  Biso   1.000  O
  O92      1.0000 0.76250  0.46920  0.57450  Biso   1.000  O
  O93      1.0000 0.66780  0.33540  0.40950  Biso   1.000  O
  O94      1.0000 0.67400  0.18100  0.47250  Biso   1.000  O
  O95      1.0000 0.56630  0.26190  0.44380  Biso   1.000  O
  O96      1.0000 0.50730  0.25110  0.88670  Biso   1.000  O
  P17      1.0000 0.00000  0.18896  0.25000  Biso   1.000  P
  P18      1.0000 0.50000  0.68896  0.25000  Biso   1.000  P
  P19      1.0000 0.00000  0.81104  0.75000  Biso   1.000  P
  P20      1.0000 0.50000  0.31104  0.75000  Biso   1.000  P
