data_PEJFOA_clean
_audit_creation_date              2014-07-02
_audit_creation_method            'Materials Studio'
_symmetry_space_group_name_H-M    'P1'
_symmetry_Int_Tables_number       1
_symmetry_cell_setting            triclinic
loop_
_symmetry_equiv_pos_as_xyz
  x,y,z
_cell_length_a                    9.0390
_cell_length_b                    15.6410
_cell_length_c                    19.3700
_cell_angle_alpha                 90.0000
_cell_angle_beta                  90.0000
_cell_angle_gamma                 90.0000
loop_
_atom_site_label
_atom_site_type_symbol
_atom_site_fract_x
_atom_site_fract_y
_atom_site_fract_z
_atom_site_U_iso_or_equiv
_atom_site_adp_type
_atom_site_occupancy
Ga1    Ga    0.38750   0.88715   0.58871   0.01267  Uiso   1.00
Ga2    Ga    0.93420   0.86703   0.50253   0.01267  Uiso   1.00
Ga3    Ga    0.11250   0.38715   0.41129   0.01267  Uiso   1.00
Ga4    Ga    0.56580   0.36703   0.49747   0.01267  Uiso   1.00
Ga5    Ga    0.61250   0.11285   0.08871   0.01267  Uiso   1.00
Ga6    Ga    0.06580   0.13297   0.00253   0.01267  Uiso   1.00
Ga7    Ga    0.88750   0.61285   0.91129   0.01267  Uiso   1.00
Ga8    Ga    0.43420   0.63297   0.99747   0.01267  Uiso   1.00
Ga9    Ga    0.61250   0.11285   0.41129   0.01267  Uiso   1.00
Ga10   Ga    0.06580   0.13297   0.49747   0.01267  Uiso   1.00
Ga11   Ga    0.88750   0.61285   0.58871   0.01267  Uiso   1.00
Ga12   Ga    0.43420   0.63297   0.50253   0.01267  Uiso   1.00
Ga13   Ga    0.38750   0.88715   0.91129   0.01267  Uiso   1.00
Ga14   Ga    0.93420   0.86703   0.99747   0.01267  Uiso   1.00
Ga15   Ga    0.11250   0.38715   0.08871   0.01267  Uiso   1.00
Ga16   Ga    0.56580   0.36703   0.00253   0.01267  Uiso   1.00
Ga17   Ga    0.14760   0.07110   0.75000   0.01267  Uiso   1.00
Ga18   Ga    0.35240   0.57110   0.25000   0.01267  Uiso   1.00
Ga19   Ga    0.85240   0.92890   0.25000   0.01267  Uiso   1.00
Ga20   Ga    0.64760   0.42890   0.75000   0.01267  Uiso   1.00
P1     P     0.15890   0.72920   0.54140   0.01267  Uiso   1.00
P2     P     0.07310   0.98540   0.60480   0.01267  Uiso   1.00
P3     P     0.34110   0.22920   0.45860   0.01267  Uiso   1.00
P4     P     0.42690   0.48540   0.39520   0.01267  Uiso   1.00
P5     P     0.84110   0.27080   0.04140   0.01267  Uiso   1.00
P6     P     0.92690   0.01460   0.10480   0.01267  Uiso   1.00
P7     P     0.65890   0.77080   0.95860   0.01267  Uiso   1.00
P8     P     0.57310   0.51460   0.89520   0.01267  Uiso   1.00
P9     P     0.84110   0.27080   0.45860   0.01267  Uiso   1.00
P10    P     0.92690   0.01460   0.39520   0.01267  Uiso   1.00
P11    P     0.65890   0.77080   0.54140   0.01267  Uiso   1.00
P12    P     0.57310   0.51460   0.60480   0.01267  Uiso   1.00
P13    P     0.15890   0.72920   0.95860   0.01267  Uiso   1.00
P14    P     0.07310   0.98540   0.89520   0.01267  Uiso   1.00
P15    P     0.34110   0.22920   0.04140   0.01267  Uiso   1.00
P16    P     0.42690   0.48540   0.10480   0.01267  Uiso   1.00
P17    P     0.41130   0.94160   0.75000   0.01267  Uiso   1.00
P18    P     0.08870   0.44160   0.25000   0.01267  Uiso   1.00
P19    P     0.58870   0.05840   0.25000   0.01267  Uiso   1.00
P20    P     0.91130   0.55840   0.75000   0.01267  Uiso   1.00
C1     C     0.46680   0.97310   0.46930   0.01267  Uiso   1.00
C2     C     0.03320   0.47310   0.53070   0.01267  Uiso   1.00
C3     C     0.53320   0.02690   0.96930   0.01267  Uiso   1.00
C4     C     0.96680   0.52690   0.03070   0.01267  Uiso   1.00
C5     C     0.53320   0.02690   0.53070   0.01267  Uiso   1.00
C6     C     0.96680   0.52690   0.46930   0.01267  Uiso   1.00
C7     C     0.46680   0.97310   0.03070   0.01267  Uiso   1.00
C8     C     0.03320   0.47310   0.96930   0.01267  Uiso   1.00
O1     O     0.40990   0.90420   0.48430   0.01267  Uiso   1.00
O2     O     0.48690   0.00520   0.41010   0.01267  Uiso   1.00
O3     O     0.37520   0.88820   0.68700   0.01267  Uiso   1.00
O4     O     0.22220   0.96580   0.57640   0.01267  Uiso   1.00
O5     O     0.26500   0.78680   0.58150   0.01267  Uiso   1.00
O6     O     0.24250   0.66560   0.49470   0.01267  Uiso   1.00
O7     O     0.06110   0.68230   0.59310   0.01267  Uiso   1.00
O8     O     0.06290   0.77930   0.48950   0.01267  Uiso   1.00
O9     O     0.96400   0.91060   0.58770   0.01267  Uiso   1.00
O10    O     0.01280   0.06780   0.56900   0.01267  Uiso   1.00
O11    O     0.06770   0.99560   0.68230   0.01267  Uiso   1.00
O12    O     0.09010   0.40420   0.51570   0.01267  Uiso   1.00
O13    O     0.01310   0.50520   0.58990   0.01267  Uiso   1.00
O14    O     0.12480   0.38820   0.31300   0.01267  Uiso   1.00
O15    O     0.27780   0.46580   0.42360   0.01267  Uiso   1.00
O16    O     0.23500   0.28680   0.41850   0.01267  Uiso   1.00
O17    O     0.25750   0.16560   0.50530   0.01267  Uiso   1.00
O18    O     0.43890   0.18230   0.40690   0.01267  Uiso   1.00
O19    O     0.43710   0.27930   0.51050   0.01267  Uiso   1.00
O20    O     0.53600   0.41060   0.41230   0.01267  Uiso   1.00
O21    O     0.48720   0.56780   0.43100   0.01267  Uiso   1.00
O22    O     0.43230   0.49560   0.31770   0.01267  Uiso   1.00
O23    O     0.59010   0.09580   0.98430   0.01267  Uiso   1.00
O24    O     0.51310   0.99480   0.91010   0.01267  Uiso   1.00
O25    O     0.62480   0.11180   0.18700   0.01267  Uiso   1.00
O26    O     0.77780   0.03420   0.07640   0.01267  Uiso   1.00
O27    O     0.73500   0.21320   0.08150   0.01267  Uiso   1.00
O28    O     0.75750   0.33440   0.99470   0.01267  Uiso   1.00
O29    O     0.93890   0.31770   0.09310   0.01267  Uiso   1.00
O30    O     0.93710   0.22070   0.98950   0.01267  Uiso   1.00
O31    O     0.03600   0.08940   0.08770   0.01267  Uiso   1.00
O32    O     0.98720   0.93220   0.06900   0.01267  Uiso   1.00
O33    O     0.93230   0.00440   0.18230   0.01267  Uiso   1.00
O34    O     0.90990   0.59580   0.01570   0.01267  Uiso   1.00
O35    O     0.98690   0.49480   0.08990   0.01267  Uiso   1.00
O36    O     0.87520   0.61180   0.81300   0.01267  Uiso   1.00
O37    O     0.72220   0.53420   0.92360   0.01267  Uiso   1.00
O38    O     0.76500   0.71320   0.91850   0.01267  Uiso   1.00
O39    O     0.74250   0.83440   0.00530   0.01267  Uiso   1.00
O40    O     0.56110   0.81770   0.90690   0.01267  Uiso   1.00
O41    O     0.56290   0.72070   0.01050   0.01267  Uiso   1.00
O42    O     0.46400   0.58940   0.91230   0.01267  Uiso   1.00
O43    O     0.51280   0.43220   0.93100   0.01267  Uiso   1.00
O44    O     0.56770   0.50440   0.81770   0.01267  Uiso   1.00
O45    O     0.59010   0.09580   0.51570   0.01267  Uiso   1.00
O46    O     0.51310   0.99480   0.58990   0.01267  Uiso   1.00
O47    O     0.62480   0.11180   0.31300   0.01267  Uiso   1.00
O48    O     0.77780   0.03420   0.42360   0.01267  Uiso   1.00
O49    O     0.73500   0.21320   0.41850   0.01267  Uiso   1.00
O50    O     0.75750   0.33440   0.50530   0.01267  Uiso   1.00
O51    O     0.93890   0.31770   0.40690   0.01267  Uiso   1.00
O52    O     0.93710   0.22070   0.51050   0.01267  Uiso   1.00
O53    O     0.03600   0.08940   0.41230   0.01267  Uiso   1.00
O54    O     0.98720   0.93220   0.43100   0.01267  Uiso   1.00
O55    O     0.93230   0.00440   0.31770   0.01267  Uiso   1.00
O56    O     0.90990   0.59580   0.48430   0.01267  Uiso   1.00
O57    O     0.98690   0.49480   0.41010   0.01267  Uiso   1.00
O58    O     0.87520   0.61180   0.68700   0.01267  Uiso   1.00
O59    O     0.72220   0.53420   0.57640   0.01267  Uiso   1.00
O60    O     0.76500   0.71320   0.58150   0.01267  Uiso   1.00
O61    O     0.74250   0.83440   0.49470   0.01267  Uiso   1.00
O62    O     0.56110   0.81770   0.59310   0.01267  Uiso   1.00
O63    O     0.56290   0.72070   0.48950   0.01267  Uiso   1.00
O64    O     0.46400   0.58940   0.58770   0.01267  Uiso   1.00
O65    O     0.51280   0.43220   0.56900   0.01267  Uiso   1.00
O66    O     0.56770   0.50440   0.68230   0.01267  Uiso   1.00
O67    O     0.40990   0.90420   0.01570   0.01267  Uiso   1.00
O68    O     0.48690   0.00520   0.08990   0.01267  Uiso   1.00
O69    O     0.37520   0.88820   0.81300   0.01267  Uiso   1.00
O70    O     0.22220   0.96580   0.92360   0.01267  Uiso   1.00
O71    O     0.26500   0.78680   0.91850   0.01267  Uiso   1.00
O72    O     0.24250   0.66560   0.00530   0.01267  Uiso   1.00
O73    O     0.06110   0.68230   0.90690   0.01267  Uiso   1.00
O74    O     0.06290   0.77930   0.01050   0.01267  Uiso   1.00
O75    O     0.96400   0.91060   0.91230   0.01267  Uiso   1.00
O76    O     0.01280   0.06780   0.93100   0.01267  Uiso   1.00
O77    O     0.06770   0.99560   0.81770   0.01267  Uiso   1.00
O78    O     0.09010   0.40420   0.98430   0.01267  Uiso   1.00
O79    O     0.01310   0.50520   0.91010   0.01267  Uiso   1.00
O80    O     0.12480   0.38820   0.18700   0.01267  Uiso   1.00
O81    O     0.27780   0.46580   0.07640   0.01267  Uiso   1.00
O82    O     0.23500   0.28680   0.08150   0.01267  Uiso   1.00
O83    O     0.25750   0.16560   0.99470   0.01267  Uiso   1.00
O84    O     0.43890   0.18230   0.09310   0.01267  Uiso   1.00
O85    O     0.43710   0.27930   0.98950   0.01267  Uiso   1.00
O86    O     0.53600   0.41060   0.08770   0.01267  Uiso   1.00
O87    O     0.48720   0.56780   0.06900   0.01267  Uiso   1.00
O88    O     0.43230   0.49560   0.18230   0.01267  Uiso   1.00
O89    O     0.33700   0.02620   0.75000   0.01267  Uiso   1.00
O90    O     0.58300   0.96070   0.75000   0.01267  Uiso   1.00
O91    O     0.16300   0.52620   0.25000   0.01267  Uiso   1.00
O92    O     0.91700   0.46070   0.25000   0.01267  Uiso   1.00
O93    O     0.66300   0.97380   0.25000   0.01267  Uiso   1.00
O94    O     0.41700   0.03930   0.25000   0.01267  Uiso   1.00
O95    O     0.83700   0.47380   0.75000   0.01267  Uiso   1.00
O96    O     0.08300   0.53930   0.75000   0.01267  Uiso   1.00
