data_image0
_cell_length_a       10.807
_cell_length_b       14.066
_cell_length_c       13.084
_cell_angle_alpha    90
_cell_angle_beta     96.342
_cell_angle_gamma    90

_symmetry_space_group_name_H-M    "P 1"
_symmetry_int_tables_number       1

loop_
  _symmetry_equiv_pos_as_xyz
  'x, y, z'

loop_
  _atom_site_label
  _atom_site_occupancy
  _atom_site_fract_x
  _atom_site_fract_y
  _atom_site_fract_z
  _atom_site_thermal_displace_type
  _atom_site_B_iso_or_equiv
  _atom_site_type_symbol
  Ga1      1.0000 0.13120  0.38305  0.93900  Biso   1.000  Ga
  Ga2      1.0000 0.15087  0.23357  0.36637  Biso   1.000  Ga
  P1       1.0000 0.13356  0.22613  0.12294  Biso   1.000  P
  O1       1.0000 0.97000  0.39140  0.98610  Biso   1.000  O
  P2       1.0000 0.83258  0.40275  0.98333  Biso   1.000  P
  O2       1.0000 0.05240  0.28330  0.82950  Biso   1.000  O
  O3       1.0000 0.06570  0.47220  0.82190  Biso   1.000  O
  O4       1.0000 0.17500  0.30400  0.05460  Biso   1.000  O
  O5       1.0000 0.21530  0.13790  0.12150  Biso   1.000  O
  O6       1.0000 0.14220  0.26920  0.23240  Biso   1.000  O
  O7       1.0000 0.99680  0.19450  0.09350  Biso   1.000  O
  O8       1.0000 0.78420  0.34160  0.07000  Biso   1.000  O
  O9       1.0000 0.79360  0.50570  0.99290  Biso   1.000  O
  O10      1.0000 0.76310  0.36530  0.88050  Biso   1.000  O
  Ga3      1.0000 0.63120  0.88305  0.93900  Biso   1.000  Ga
  Ga4      1.0000 0.65087  0.73357  0.36637  Biso   1.000  Ga
  P3       1.0000 0.63356  0.72613  0.12294  Biso   1.000  P
  O11      1.0000 0.47000  0.89140  0.98610  Biso   1.000  O
  P4       1.0000 0.33258  0.90275  0.98333  Biso   1.000  P
  O12      1.0000 0.55240  0.78330  0.82950  Biso   1.000  O
  O13      1.0000 0.56570  0.97220  0.82190  Biso   1.000  O
  O14      1.0000 0.67500  0.80400  0.05460  Biso   1.000  O
  O15      1.0000 0.71530  0.63790  0.12150  Biso   1.000  O
  O16      1.0000 0.64220  0.76920  0.23240  Biso   1.000  O
  O17      1.0000 0.49680  0.69450  0.09350  Biso   1.000  O
  O18      1.0000 0.28420  0.84160  0.07000  Biso   1.000  O
  O19      1.0000 0.29360  0.00570  0.99290  Biso   1.000  O
  O20      1.0000 0.26310  0.86530  0.88050  Biso   1.000  O
  Ga5      1.0000 0.86880  0.38305  0.56100  Biso   1.000  Ga
  Ga6      1.0000 0.84913  0.23357  0.13363  Biso   1.000  Ga
  P5       1.0000 0.86644  0.22613  0.37706  Biso   1.000  P
  O21      1.0000 0.03000  0.39140  0.51390  Biso   1.000  O
  P6       1.0000 0.16742  0.40275  0.51667  Biso   1.000  P
  O22      1.0000 0.94760  0.28330  0.67050  Biso   1.000  O
  O23      1.0000 0.93430  0.47220  0.67810  Biso   1.000  O
  O24      1.0000 0.82500  0.30400  0.44540  Biso   1.000  O
  O25      1.0000 0.78470  0.13790  0.37850  Biso   1.000  O
  O26      1.0000 0.85780  0.26920  0.26760  Biso   1.000  O
  O27      1.0000 0.00320  0.19450  0.40650  Biso   1.000  O
  O28      1.0000 0.21580  0.34160  0.43000  Biso   1.000  O
  O29      1.0000 0.20640  0.50570  0.50710  Biso   1.000  O
  O30      1.0000 0.23690  0.36530  0.61950  Biso   1.000  O
  Ga7      1.0000 0.36880  0.88305  0.56100  Biso   1.000  Ga
  Ga8      1.0000 0.34913  0.73357  0.13363  Biso   1.000  Ga
  P7       1.0000 0.36644  0.72613  0.37706  Biso   1.000  P
  O31      1.0000 0.53000  0.89140  0.51390  Biso   1.000  O
  P8       1.0000 0.66742  0.90275  0.51667  Biso   1.000  P
  O32      1.0000 0.44760  0.78330  0.67050  Biso   1.000  O
  O33      1.0000 0.43430  0.97220  0.67810  Biso   1.000  O
  O34      1.0000 0.32500  0.80400  0.44540  Biso   1.000  O
  O35      1.0000 0.28470  0.63790  0.37850  Biso   1.000  O
  O36      1.0000 0.35780  0.76920  0.26760  Biso   1.000  O
  O37      1.0000 0.50320  0.69450  0.40650  Biso   1.000  O
  O38      1.0000 0.71580  0.84160  0.43000  Biso   1.000  O
  O39      1.0000 0.70640  0.00570  0.50710  Biso   1.000  O
  O40      1.0000 0.73690  0.86530  0.61950  Biso   1.000  O
  Ga9      1.0000 0.86880  0.61695  0.06100  Biso   1.000  Ga
  Ga10     1.0000 0.84913  0.76643  0.63363  Biso   1.000  Ga
  P9       1.0000 0.86644  0.77387  0.87706  Biso   1.000  P
  O41      1.0000 0.03000  0.60860  0.01390  Biso   1.000  O
  P10      1.0000 0.16742  0.59725  0.01667  Biso   1.000  P
  O42      1.0000 0.94760  0.71670  0.17050  Biso   1.000  O
  O43      1.0000 0.93430  0.52780  0.17810  Biso   1.000  O
  O44      1.0000 0.82500  0.69600  0.94540  Biso   1.000  O
  O45      1.0000 0.78470  0.86210  0.87850  Biso   1.000  O
  O46      1.0000 0.85780  0.73080  0.76760  Biso   1.000  O
  O47      1.0000 0.00320  0.80550  0.90650  Biso   1.000  O
  O48      1.0000 0.21580  0.65840  0.93000  Biso   1.000  O
  O49      1.0000 0.20640  0.49430  0.00710  Biso   1.000  O
  O50      1.0000 0.23690  0.63470  0.11950  Biso   1.000  O
  Ga11     1.0000 0.36880  0.11695  0.06100  Biso   1.000  Ga
  Ga12     1.0000 0.34913  0.26643  0.63363  Biso   1.000  Ga
  P11      1.0000 0.36644  0.27387  0.87706  Biso   1.000  P
  O51      1.0000 0.53000  0.10860  0.01390  Biso   1.000  O
  P12      1.0000 0.66742  0.09725  0.01667  Biso   1.000  P
  O52      1.0000 0.44760  0.21670  0.17050  Biso   1.000  O
  O53      1.0000 0.43430  0.02780  0.17810  Biso   1.000  O
  O54      1.0000 0.32500  0.19600  0.94540  Biso   1.000  O
  O55      1.0000 0.28470  0.36210  0.87850  Biso   1.000  O
  O56      1.0000 0.35780  0.23080  0.76760  Biso   1.000  O
  O57      1.0000 0.50320  0.30550  0.90650  Biso   1.000  O
  O58      1.0000 0.71580  0.15840  0.93000  Biso   1.000  O
  O59      1.0000 0.70640  0.99430  0.00710  Biso   1.000  O
  O60      1.0000 0.73690  0.13470  0.11950  Biso   1.000  O
  Ga13     1.0000 0.13120  0.61695  0.43900  Biso   1.000  Ga
  Ga14     1.0000 0.15087  0.76643  0.86637  Biso   1.000  Ga
  P13      1.0000 0.13356  0.77387  0.62294  Biso   1.000  P
  O61      1.0000 0.97000  0.60860  0.48610  Biso   1.000  O
  P14      1.0000 0.83258  0.59725  0.48333  Biso   1.000  P
  O62      1.0000 0.05240  0.71670  0.32950  Biso   1.000  O
  O63      1.0000 0.06570  0.52780  0.32190  Biso   1.000  O
  O64      1.0000 0.17500  0.69600  0.55460  Biso   1.000  O
  O65      1.0000 0.21530  0.86210  0.62150  Biso   1.000  O
  O66      1.0000 0.14220  0.73080  0.73240  Biso   1.000  O
  O67      1.0000 0.99680  0.80550  0.59350  Biso   1.000  O
  O68      1.0000 0.78420  0.65840  0.57000  Biso   1.000  O
  O69      1.0000 0.79360  0.49430  0.49290  Biso   1.000  O
  O70      1.0000 0.76310  0.63470  0.38050  Biso   1.000  O
  Ga15     1.0000 0.63120  0.11695  0.43900  Biso   1.000  Ga
  Ga16     1.0000 0.65087  0.26643  0.86637  Biso   1.000  Ga
  P15      1.0000 0.63356  0.27387  0.62294  Biso   1.000  P
  O71      1.0000 0.47000  0.10860  0.48610  Biso   1.000  O
  P16      1.0000 0.33258  0.09725  0.48333  Biso   1.000  P
  O72      1.0000 0.55240  0.21670  0.32950  Biso   1.000  O
  O73      1.0000 0.56570  0.02780  0.32190  Biso   1.000  O
  O74      1.0000 0.67500  0.19600  0.55460  Biso   1.000  O
  O75      1.0000 0.71530  0.36210  0.62150  Biso   1.000  O
  O76      1.0000 0.64220  0.23080  0.73240  Biso   1.000  O
  O77      1.0000 0.49680  0.30550  0.59350  Biso   1.000  O
  O78      1.0000 0.28420  0.15840  0.57000  Biso   1.000  O
  O79      1.0000 0.29360  0.99430  0.49290  Biso   1.000  O
  O80      1.0000 0.26310  0.13470  0.38050  Biso   1.000  O
  C1       1.0000 0.00000  0.32240  0.75000  Biso   1.000  C
  C2       1.0000 0.00000  0.43210  0.75000  Biso   1.000  C
  C3       1.0000 0.50000  0.82240  0.75000  Biso   1.000  C
  C4       1.0000 0.50000  0.93210  0.75000  Biso   1.000  C
  C5       1.0000 0.00000  0.67760  0.25000  Biso   1.000  C
  C6       1.0000 0.00000  0.56790  0.25000  Biso   1.000  C
  C7       1.0000 0.50000  0.17760  0.25000  Biso   1.000  C
  C8       1.0000 0.50000  0.06790  0.25000  Biso   1.000  C
