data_PEJMOI_clean
_audit_creation_date              2014-07-02
_audit_creation_method            'Materials Studio'
_symmetry_space_group_name_H-M    'P1'
_symmetry_Int_Tables_number       1
_symmetry_cell_setting            triclinic
loop_
_symmetry_equiv_pos_as_xyz
  x,y,z
_cell_length_a                    16.0550
_cell_length_b                    17.9369
_cell_length_c                    17.9369
_cell_angle_alpha                 72.8827
_cell_angle_beta                  63.4139
_cell_angle_gamma                 63.4138
loop_
_atom_site_label
_atom_site_type_symbol
_atom_site_fract_x
_atom_site_fract_y
_atom_site_fract_z
_atom_site_U_iso_or_equiv
_atom_site_adp_type
_atom_site_occupancy
K1     K     0.25890   0.58838   0.91162   0.01267  Uiso   1.00
K2     K     0.25890   0.91162   0.58838   0.01267  Uiso   1.00
K3     K     0.74110   0.41162   0.08838   0.01267  Uiso   1.00
K4     K     0.74110   0.08838   0.41162   0.01267  Uiso   1.00
Cd1    Cd    0.12341   0.26738   0.95502   0.01267  Uiso   1.00
Cd2    Cd    0.38761   0.37067   0.82005   0.01267  Uiso   1.00
Cd3    Cd    0.84581   0.23262   0.54498   0.01267  Uiso   1.00
Cd4    Cd    0.07833   0.12933   0.67995   0.01267  Uiso   1.00
Cd5    Cd    0.15419   0.45502   0.76738   0.01267  Uiso   1.00
Cd6    Cd    0.92167   0.32005   0.87067   0.01267  Uiso   1.00
Cd7    Cd    0.87659   0.04498   0.73262   0.01267  Uiso   1.00
Cd8    Cd    0.61239   0.17995   0.62933   0.01267  Uiso   1.00
Cd9    Cd    0.87659   0.73262   0.04498   0.01267  Uiso   1.00
Cd10   Cd    0.61239   0.62933   0.17995   0.01267  Uiso   1.00
Cd11   Cd    0.15419   0.76738   0.45502   0.01267  Uiso   1.00
Cd12   Cd    0.92167   0.87067   0.32005   0.01267  Uiso   1.00
Cd13   Cd    0.84581   0.54498   0.23262   0.01267  Uiso   1.00
Cd14   Cd    0.07833   0.67995   0.12933   0.01267  Uiso   1.00
Cd15   Cd    0.12341   0.95502   0.26738   0.01267  Uiso   1.00
Cd16   Cd    0.38761   0.82005   0.37067   0.01267  Uiso   1.00
C1     C     0.10240   0.41570   0.02670   0.01267  Uiso   1.00
C2     C     0.20020   0.39900   0.95520   0.01267  Uiso   1.00
C3     C     0.00130   0.15780   0.09260   0.01267  Uiso   1.00
C4     C     0.92640   0.21700   0.05320   0.01267  Uiso   1.00
C5     C     0.24030   0.81080   0.15100   0.01267  Uiso   1.00
C6     C     0.22700   0.75500   0.12120   0.01267  Uiso   1.00
C7     C     0.32250   0.84010   0.13210   0.01267  Uiso   1.00
C8     C     0.28900   0.69740   0.05400   0.01267  Uiso   1.00
C9     C     0.04480   0.08430   0.47330   0.01267  Uiso   1.00
C10    C     0.05440   0.10100   0.54480   0.01267  Uiso   1.00
C11    C     0.75170   0.34220   0.40740   0.01267  Uiso   1.00
C12    C     0.69660   0.28300   0.44680   0.01267  Uiso   1.00
C13    C     0.70210   0.68920   0.34900   0.01267  Uiso   1.00
C14    C     0.60320   0.74500   0.37880   0.01267  Uiso   1.00
C15    C     0.79470   0.65990   0.36790   0.01267  Uiso   1.00
C16    C     0.54040   0.80260   0.44600   0.01267  Uiso   1.00
C17    C     0.95520   0.52670   0.91570   0.01267  Uiso   1.00
C18    C     0.94560   0.45520   0.89900   0.01267  Uiso   1.00
C19    C     0.24830   0.59260   0.65780   0.01267  Uiso   1.00
C20    C     0.30340   0.55320   0.71700   0.01267  Uiso   1.00
C21    C     0.29790   0.65100   0.31080   0.01267  Uiso   1.00
C22    C     0.39680   0.62120   0.25500   0.01267  Uiso   1.00
C23    C     0.20530   0.63210   0.34010   0.01267  Uiso   1.00
C24    C     0.45960   0.55400   0.19740   0.01267  Uiso   1.00
C25    C     0.89760   0.97330   0.58430   0.01267  Uiso   1.00
C26    C     0.79980   0.04480   0.60100   0.01267  Uiso   1.00
C27    C     0.99870   0.90740   0.84220   0.01267  Uiso   1.00
C28    C     0.07360   0.94680   0.78300   0.01267  Uiso   1.00
C29    C     0.75970   0.84900   0.18920   0.01267  Uiso   1.00
C30    C     0.77300   0.87880   0.24500   0.01267  Uiso   1.00
C31    C     0.67750   0.86790   0.15990   0.01267  Uiso   1.00
C32    C     0.71100   0.94600   0.30260   0.01267  Uiso   1.00
C33    C     0.89760   0.58430   0.97330   0.01267  Uiso   1.00
C34    C     0.79980   0.60100   0.04480   0.01267  Uiso   1.00
C35    C     0.99870   0.84220   0.90740   0.01267  Uiso   1.00
C36    C     0.07360   0.78300   0.94680   0.01267  Uiso   1.00
C37    C     0.75970   0.18920   0.84900   0.01267  Uiso   1.00
C38    C     0.77300   0.24500   0.87880   0.01267  Uiso   1.00
C39    C     0.67750   0.15990   0.86790   0.01267  Uiso   1.00
C40    C     0.71100   0.30260   0.94600   0.01267  Uiso   1.00
C41    C     0.95520   0.91570   0.52670   0.01267  Uiso   1.00
C42    C     0.94560   0.89900   0.45520   0.01267  Uiso   1.00
C43    C     0.24830   0.65780   0.59260   0.01267  Uiso   1.00
C44    C     0.30340   0.71700   0.55320   0.01267  Uiso   1.00
C45    C     0.29790   0.31080   0.65100   0.01267  Uiso   1.00
C46    C     0.39680   0.25500   0.62120   0.01267  Uiso   1.00
C47    C     0.20530   0.34010   0.63210   0.01267  Uiso   1.00
C48    C     0.45960   0.19740   0.55400   0.01267  Uiso   1.00
C49    C     0.04480   0.47330   0.08430   0.01267  Uiso   1.00
C50    C     0.05440   0.54480   0.10100   0.01267  Uiso   1.00
C51    C     0.75170   0.40740   0.34220   0.01267  Uiso   1.00
C52    C     0.69660   0.44680   0.28300   0.01267  Uiso   1.00
C53    C     0.70210   0.34900   0.68920   0.01267  Uiso   1.00
C54    C     0.60320   0.37880   0.74500   0.01267  Uiso   1.00
C55    C     0.79470   0.36790   0.65990   0.01267  Uiso   1.00
C56    C     0.54040   0.44600   0.80260   0.01267  Uiso   1.00
C57    C     0.10240   0.02670   0.41570   0.01267  Uiso   1.00
C58    C     0.20020   0.95520   0.39900   0.01267  Uiso   1.00
C59    C     0.00130   0.09260   0.15780   0.01267  Uiso   1.00
C60    C     0.92640   0.05320   0.21700   0.01267  Uiso   1.00
C61    C     0.24030   0.15100   0.81080   0.01267  Uiso   1.00
C62    C     0.22700   0.12120   0.75500   0.01267  Uiso   1.00
C63    C     0.32250   0.13210   0.84010   0.01267  Uiso   1.00
C64    C     0.28900   0.05400   0.69740   0.01267  Uiso   1.00
N1     N     0.04900   0.36890   0.04090   0.01267  Uiso   1.00
N2     N     0.09150   0.16450   0.06290   0.01267  Uiso   1.00
N3     N     0.15240   0.84440   0.21300   0.01267  Uiso   1.00
N4     N     0.08630   0.81400   0.22180   0.01267  Uiso   1.00
N5     N     0.13130   0.75940   0.16560   0.01267  Uiso   1.00
N6     N     0.95880   0.13110   0.45910   0.01267  Uiso   1.00
N7     N     0.81890   0.33550   0.43710   0.01267  Uiso   1.00
N8     N     0.70980   0.65560   0.28700   0.01267  Uiso   1.00
N9     N     0.62210   0.68600   0.27820   0.01267  Uiso   1.00
N10    N     0.55630   0.74060   0.33440   0.01267  Uiso   1.00
N11    N     0.04120   0.54090   0.86890   0.01267  Uiso   1.00
N12    N     0.18110   0.56290   0.66450   0.01267  Uiso   1.00
N13    N     0.29020   0.71300   0.34440   0.01267  Uiso   1.00
N14    N     0.37790   0.72180   0.31400   0.01267  Uiso   1.00
N15    N     0.44370   0.66560   0.25940   0.01267  Uiso   1.00
N16    N     0.95100   0.95910   0.63110   0.01267  Uiso   1.00
N17    N     0.90850   0.93710   0.83550   0.01267  Uiso   1.00
N18    N     0.84760   0.78700   0.15560   0.01267  Uiso   1.00
N19    N     0.91370   0.77820   0.18600   0.01267  Uiso   1.00
N20    N     0.86870   0.83440   0.24060   0.01267  Uiso   1.00
N21    N     0.95100   0.63110   0.95910   0.01267  Uiso   1.00
N22    N     0.90850   0.83550   0.93710   0.01267  Uiso   1.00
N23    N     0.84760   0.15560   0.78700   0.01267  Uiso   1.00
N24    N     0.91370   0.18600   0.77820   0.01267  Uiso   1.00
N25    N     0.86870   0.24060   0.83440   0.01267  Uiso   1.00
N26    N     0.04120   0.86890   0.54090   0.01267  Uiso   1.00
N27    N     0.18110   0.66450   0.56290   0.01267  Uiso   1.00
N28    N     0.29020   0.34440   0.71300   0.01267  Uiso   1.00
N29    N     0.37790   0.31400   0.72180   0.01267  Uiso   1.00
N30    N     0.44370   0.25940   0.66560   0.01267  Uiso   1.00
N31    N     0.95880   0.45910   0.13110   0.01267  Uiso   1.00
N32    N     0.81890   0.43710   0.33550   0.01267  Uiso   1.00
N33    N     0.70980   0.28700   0.65560   0.01267  Uiso   1.00
N34    N     0.62210   0.27820   0.68600   0.01267  Uiso   1.00
N35    N     0.55630   0.33440   0.74060   0.01267  Uiso   1.00
N36    N     0.04900   0.04090   0.36890   0.01267  Uiso   1.00
N37    N     0.09150   0.06290   0.16450   0.01267  Uiso   1.00
N38    N     0.15240   0.21300   0.84440   0.01267  Uiso   1.00
N39    N     0.08630   0.22180   0.81400   0.01267  Uiso   1.00
N40    N     0.13130   0.16560   0.75940   0.01267  Uiso   1.00
N41    N     0.96090   0.39500   0.10500   0.01267  Uiso   1.00
N42    N     0.96090   0.10500   0.39500   0.01267  Uiso   1.00
N43    N     0.03910   0.60500   0.89500   0.01267  Uiso   1.00
N44    N     0.03910   0.89500   0.60500   0.01267  Uiso   1.00
N45    N     0.14520   0.10670   0.10670   0.01267  Uiso   1.00
N46    N     0.85860   0.39330   0.39330   0.01267  Uiso   1.00
N47    N     0.14140   0.60670   0.60670   0.01267  Uiso   1.00
N48    N     0.85480   0.89330   0.89330   0.01267  Uiso   1.00
O1     O     0.21577   0.35743   0.90043   0.01267  Uiso   1.00
O2     O     0.26345   0.42545   0.94905   0.01267  Uiso   1.00
O3     O     0.95600   0.26780   0.99120   0.01267  Uiso   1.00
O4     O     0.85950   0.19400   0.05880   0.01267  Uiso   1.00
O5     O     0.29770   0.90060   0.16940   0.01267  Uiso   1.00
O6     O     0.40770   0.80330   0.08330   0.01267  Uiso   1.00
O7     O     0.25400   0.64730   0.05530   0.01267  Uiso   1.00
O8     O     0.36850   0.70420   0.00120   0.01267  Uiso   1.00
O9     O     0.97363   0.14257   0.59957   0.01267  Uiso   1.00
O10    O     0.13795   0.07455   0.55095   0.01267  Uiso   1.00
O11    O     0.71500   0.23220   0.50880   0.01267  Uiso   1.00
O12    O     0.61230   0.30600   0.44120   0.01267  Uiso   1.00
O13    O     0.86770   0.59940   0.33060   0.01267  Uiso   1.00
O14    O     0.79430   0.69670   0.41670   0.01267  Uiso   1.00
O15    O     0.45660   0.85270   0.44470   0.01267  Uiso   1.00
O16    O     0.57390   0.79580   0.49880   0.01267  Uiso   1.00
O17    O     0.02637   0.40043   0.85743   0.01267  Uiso   1.00
O18    O     0.86205   0.44905   0.92545   0.01267  Uiso   1.00
O19    O     0.28500   0.49120   0.76780   0.01267  Uiso   1.00
O20    O     0.38770   0.55880   0.69400   0.01267  Uiso   1.00
O21    O     0.13230   0.66940   0.40060   0.01267  Uiso   1.00
O22    O     0.20570   0.58330   0.30330   0.01267  Uiso   1.00
O23    O     0.54340   0.55530   0.14730   0.01267  Uiso   1.00
O24    O     0.42610   0.50120   0.20420   0.01267  Uiso   1.00
O25    O     0.78423   0.09957   0.64257   0.01267  Uiso   1.00
O26    O     0.73655   0.05095   0.57455   0.01267  Uiso   1.00
O27    O     0.04400   0.00880   0.73220   0.01267  Uiso   1.00
O28    O     0.14050   0.94120   0.80600   0.01267  Uiso   1.00
O29    O     0.70230   0.83060   0.09940   0.01267  Uiso   1.00
O30    O     0.59230   0.91670   0.19670   0.01267  Uiso   1.00
O31    O     0.74600   0.94470   0.35270   0.01267  Uiso   1.00
O32    O     0.63150   0.99880   0.29580   0.01267  Uiso   1.00
O33    O     0.78423   0.64257   0.09957   0.01267  Uiso   1.00
O34    O     0.73655   0.57455   0.05095   0.01267  Uiso   1.00
O35    O     0.04400   0.73220   0.00880   0.01267  Uiso   1.00
O36    O     0.14050   0.80600   0.94120   0.01267  Uiso   1.00
O37    O     0.70230   0.09940   0.83060   0.01267  Uiso   1.00
O38    O     0.59230   0.19670   0.91670   0.01267  Uiso   1.00
O39    O     0.74600   0.35270   0.94470   0.01267  Uiso   1.00
O40    O     0.63150   0.29580   0.99880   0.01267  Uiso   1.00
O41    O     0.02637   0.85743   0.40043   0.01267  Uiso   1.00
O42    O     0.86205   0.92545   0.44905   0.01267  Uiso   1.00
O43    O     0.28500   0.76780   0.49120   0.01267  Uiso   1.00
O44    O     0.38770   0.69400   0.55880   0.01267  Uiso   1.00
O45    O     0.13230   0.40060   0.66940   0.01267  Uiso   1.00
O46    O     0.20570   0.30330   0.58330   0.01267  Uiso   1.00
O47    O     0.54340   0.14730   0.55530   0.01267  Uiso   1.00
O48    O     0.42610   0.20420   0.50120   0.01267  Uiso   1.00
O49    O     0.97363   0.59957   0.14257   0.01267  Uiso   1.00
O50    O     0.13795   0.55095   0.07455   0.01267  Uiso   1.00
O51    O     0.71500   0.50880   0.23220   0.01267  Uiso   1.00
O52    O     0.61230   0.44120   0.30600   0.01267  Uiso   1.00
O53    O     0.86770   0.33060   0.59940   0.01267  Uiso   1.00
O54    O     0.79430   0.41670   0.69670   0.01267  Uiso   1.00
O55    O     0.45660   0.44470   0.85270   0.01267  Uiso   1.00
O56    O     0.57390   0.49880   0.79580   0.01267  Uiso   1.00
O57    O     0.21577   0.90043   0.35743   0.01267  Uiso   1.00
O58    O     0.26345   0.94905   0.42545   0.01267  Uiso   1.00
O59    O     0.95600   0.99120   0.26780   0.01267  Uiso   1.00
O60    O     0.85950   0.05880   0.19400   0.01267  Uiso   1.00
O61    O     0.29770   0.16940   0.90060   0.01267  Uiso   1.00
O62    O     0.40770   0.08330   0.80330   0.01267  Uiso   1.00
O63    O     0.25400   0.05530   0.64730   0.01267  Uiso   1.00
O64    O     0.36850   0.00120   0.70420   0.01267  Uiso   1.00
