data_PEJRED_clean
_audit_creation_date              2014-07-02
_audit_creation_method            'Materials Studio'
_symmetry_space_group_name_H-M    'P1'
_symmetry_Int_Tables_number       1
_symmetry_cell_setting            triclinic
loop_
_symmetry_equiv_pos_as_xyz
  x,y,z
_cell_length_a                    9.0384
_cell_length_b                    16.3407
_cell_length_c                    18.5050
_cell_angle_alpha                 73.3940
_cell_angle_beta                  76.3940
_cell_angle_gamma                 86.2980
loop_
_atom_site_label
_atom_site_type_symbol
_atom_site_fract_x
_atom_site_fract_y
_atom_site_fract_z
_atom_site_U_iso_or_equiv
_atom_site_adp_type
_atom_site_occupancy
Co1    Co    0.74533   0.03266   0.17712   0.01267  Uiso   1.00
Co2    Co    0.84788   0.27939   0.60876   0.01267  Uiso   1.00
Co3    Co    0.25467   0.96734   0.82288   0.01267  Uiso   1.00
Co4    Co    0.15212   0.72061   0.39124   0.01267  Uiso   1.00
H1     H     0.86960   0.46100   0.02550   0.01267  Uiso   1.00
H2     H     0.69260   0.47580   0.04420   0.01267  Uiso   1.00
H3     H     0.84300   0.28250   0.15290   0.01267  Uiso   1.00
H4     H     0.87800   0.32080   0.21610   0.01267  Uiso   1.00
H5     H     0.91890   0.50380   0.13060   0.01267  Uiso   1.00
H6     H     0.81990   0.46920   0.21530   0.01267  Uiso   1.00
H7     H     0.58320   0.32710   0.17430   0.01267  Uiso   1.00
H8     H     0.53660   0.42150   0.17460   0.01267  Uiso   1.00
H9     H     0.91910   0.60100   0.20200   0.01267  Uiso   1.00
H10    H     0.74770   0.24240   0.97280   0.01267  Uiso   1.00
H11    H     0.76050   0.24560   0.84830   0.01267  Uiso   1.00
H12    H     0.77110   0.50140   0.78830   0.01267  Uiso   1.00
H13    H     0.75910   0.49940   0.91240   0.01267  Uiso   1.00
H14    H     0.01790   0.21310   0.22510   0.01267  Uiso   1.00
H15    H     0.21730   0.11870   0.24590   0.01267  Uiso   1.00
H16    H     0.49760   0.27170   0.06450   0.01267  Uiso   1.00
H17    H     0.29820   0.36370   0.04210   0.01267  Uiso   1.00
H18    H     0.93710   0.18640   0.04750   0.01267  Uiso   1.00
H19    H     0.08810   0.95390   0.12000   0.01267  Uiso   1.00
H20    H     0.20580   0.18560   0.98380   0.01267  Uiso   1.00
H21    H     0.29590   0.90980   0.02570   0.01267  Uiso   1.00
H22    H     0.45840   0.13690   0.01180   0.01267  Uiso   1.00
H23    H     0.91640   0.72890   0.23380   0.01267  Uiso   1.00
H24    H     0.54870   0.80220   0.14900   0.01267  Uiso   1.00
H25    H     0.53980   0.67240   0.12550   0.01267  Uiso   1.00
H26    H     0.12570   0.29340   0.35910   0.01267  Uiso   1.00
H27    H     0.66440   0.17510   0.27410   0.01267  Uiso   1.00
H28    H     0.77090   0.17590   0.38190   0.01267  Uiso   1.00
H29    H     0.91210   0.96880   0.31700   0.01267  Uiso   1.00
H30    H     0.62010   0.96590   0.60260   0.01267  Uiso   1.00
H31    H     0.34150   0.31850   0.25350   0.01267  Uiso   1.00
H32    H     0.58050   0.36580   0.39750   0.01267  Uiso   1.00
H33    H     0.36410   0.34870   0.49860   0.01267  Uiso   1.00
H34    H     0.75640   0.12670   0.56150   0.01267  Uiso   1.00
H35    H     0.46720   0.27170   0.64740   0.01267  Uiso   1.00
H36    H     0.32280   0.17270   0.61330   0.01267  Uiso   1.00
H37    H     0.40430   0.13710   0.46060   0.01267  Uiso   1.00
H38    H     0.13040   0.53900   0.97450   0.01267  Uiso   1.00
H39    H     0.30740   0.52420   0.95580   0.01267  Uiso   1.00
H40    H     0.15700   0.71750   0.84710   0.01267  Uiso   1.00
H41    H     0.12200   0.67920   0.78390   0.01267  Uiso   1.00
H42    H     0.08110   0.49620   0.86940   0.01267  Uiso   1.00
H43    H     0.18010   0.53080   0.78470   0.01267  Uiso   1.00
H44    H     0.41680   0.67290   0.82570   0.01267  Uiso   1.00
H45    H     0.46340   0.57850   0.82540   0.01267  Uiso   1.00
H46    H     0.08090   0.39900   0.79800   0.01267  Uiso   1.00
H47    H     0.25230   0.75760   0.02720   0.01267  Uiso   1.00
H48    H     0.23950   0.75440   0.15170   0.01267  Uiso   1.00
H49    H     0.22890   0.49860   0.21170   0.01267  Uiso   1.00
H50    H     0.24090   0.50060   0.08760   0.01267  Uiso   1.00
H51    H     0.98210   0.78690   0.77490   0.01267  Uiso   1.00
H52    H     0.78270   0.88130   0.75410   0.01267  Uiso   1.00
H53    H     0.50240   0.72830   0.93550   0.01267  Uiso   1.00
H54    H     0.70180   0.63630   0.95790   0.01267  Uiso   1.00
H55    H     0.06290   0.81360   0.95250   0.01267  Uiso   1.00
H56    H     0.91190   0.04610   0.88000   0.01267  Uiso   1.00
H57    H     0.79420   0.81440   0.01620   0.01267  Uiso   1.00
H58    H     0.70410   0.09020   0.97430   0.01267  Uiso   1.00
H59    H     0.54160   0.86310   0.98820   0.01267  Uiso   1.00
H60    H     0.08360   0.27110   0.76620   0.01267  Uiso   1.00
H61    H     0.45130   0.19780   0.85100   0.01267  Uiso   1.00
H62    H     0.46020   0.32760   0.87450   0.01267  Uiso   1.00
H63    H     0.87430   0.70660   0.64090   0.01267  Uiso   1.00
H64    H     0.33560   0.82490   0.72590   0.01267  Uiso   1.00
H65    H     0.22910   0.82410   0.61810   0.01267  Uiso   1.00
H66    H     0.08790   0.03120   0.68300   0.01267  Uiso   1.00
H67    H     0.37990   0.03410   0.39740   0.01267  Uiso   1.00
H68    H     0.65850   0.68150   0.74650   0.01267  Uiso   1.00
H69    H     0.41950   0.63420   0.60250   0.01267  Uiso   1.00
H70    H     0.63590   0.65130   0.50140   0.01267  Uiso   1.00
H71    H     0.24360   0.87330   0.43850   0.01267  Uiso   1.00
H72    H     0.53280   0.72830   0.35260   0.01267  Uiso   1.00
H73    H     0.67720   0.82730   0.38670   0.01267  Uiso   1.00
H74    H     0.59570   0.86290   0.53940   0.01267  Uiso   1.00
C1     C     0.76930   0.40770   0.13970   0.01267  Uiso   1.00
C2     C     0.77250   0.43450   0.05460   0.01267  Uiso   1.00
C3     C     0.87730   0.33320   0.16160   0.01267  Uiso   1.00
C4     C     0.81800   0.48470   0.16090   0.01267  Uiso   1.00
C5     C     0.61060   0.37700   0.18690   0.01267  Uiso   1.00
C6     C     0.48120   0.34460   0.31810   0.01267  Uiso   1.00
C7     C     0.72380   0.62350   0.16370   0.01267  Uiso   1.00
C8     C     0.84220   0.64070   0.19320   0.01267  Uiso   1.00
C9     C     0.75520   0.36870   0.95540   0.01267  Uiso   1.00
C10    C     0.75390   0.29460   0.93510   0.01267  Uiso   1.00
C11    C     0.76130   0.29640   0.86130   0.01267  Uiso   1.00
C12    C     0.77010   0.37370   0.80430   0.01267  Uiso   1.00
C13    C     0.78350   0.37680   0.72200   0.01267  Uiso   1.00
C14    C     0.76770   0.44930   0.82590   0.01267  Uiso   1.00
C15    C     0.76050   0.44870   0.89900   0.01267  Uiso   1.00
C16    C     0.13770   0.29790   0.13170   0.01267  Uiso   1.00
C17    C     0.11390   0.22490   0.19230   0.01267  Uiso   1.00
C18    C     0.23410   0.16810   0.20470   0.01267  Uiso   1.00
C19    C     0.37800   0.18470   0.15630   0.01267  Uiso   1.00
C20    C     0.40110   0.25880   0.09650   0.01267  Uiso   1.00
C21    C     0.28160   0.31460   0.08350   0.01267  Uiso   1.00
C22    C     0.50430   0.12380   0.17340   0.01267  Uiso   1.00
C23    C     0.00060   0.13910   0.05410   0.01267  Uiso   1.00
C24    C     0.08230   0.01140   0.09410   0.01267  Uiso   1.00
C25    C     0.14940   0.13930   0.01860   0.01267  Uiso   1.00
C26    C     0.35380   0.02900   0.02060   0.01267  Uiso   1.00
C27    C     0.37800   0.94620   0.01500   0.01267  Uiso   1.00
C28    C     0.47500   0.08180   0.00670   0.01267  Uiso   1.00
C29    C     0.75690   0.86850   0.19750   0.01267  Uiso   1.00
C30    C     0.74020   0.78020   0.19040   0.01267  Uiso   1.00
C31    C     0.84330   0.71880   0.20940   0.01267  Uiso   1.00
C32    C     0.62320   0.76160   0.16010   0.01267  Uiso   1.00
C33    C     0.61730   0.68390   0.14660   0.01267  Uiso   1.00
C34    C     0.08950   0.29880   0.50620   0.01267  Uiso   1.00
C35    C     0.23240   0.31780   0.43960   0.01267  Uiso   1.00
C36    C     0.21870   0.30870   0.36490   0.01267  Uiso   1.00
C37    C     0.51510   0.06020   0.53720   0.01267  Uiso   1.00
C38    C     0.94710   0.94240   0.46960   0.01267  Uiso   1.00
C39    C     0.00780   0.91230   0.53390   0.01267  Uiso   1.00
C40    C     0.93810   0.02900   0.43710   0.01267  Uiso   1.00
C41    C     0.72880   0.13370   0.29610   0.01267  Uiso   1.00
C42    C     0.78520   0.13410   0.35580   0.01267  Uiso   1.00
C43    C     0.86330   0.02020   0.31920   0.01267  Uiso   1.00
C44    C     0.57200   0.97970   0.56150   0.01267  Uiso   1.00
C45    C     0.34610   0.32300   0.30190   0.01267  Uiso   1.00
C46    C     0.48790   0.35240   0.38990   0.01267  Uiso   1.00
C47    C     0.35960   0.34060   0.45140   0.01267  Uiso   1.00
C48    C     0.66350   0.15140   0.57770   0.01267  Uiso   1.00
C49    C     0.51010   0.22970   0.62400   0.01267  Uiso   1.00
C50    C     0.42800   0.17490   0.60610   0.01267  Uiso   1.00
C51    C     0.44270   0.08230   0.47640   0.01267  Uiso   1.00
C52    C     0.23070   0.59230   0.86030   0.01267  Uiso   1.00
C53    C     0.22750   0.56550   0.94540   0.01267  Uiso   1.00
C54    C     0.12270   0.66680   0.83840   0.01267  Uiso   1.00
C55    C     0.18200   0.51530   0.83910   0.01267  Uiso   1.00
C56    C     0.38940   0.62300   0.81310   0.01267  Uiso   1.00
C57    C     0.51880   0.65540   0.68190   0.01267  Uiso   1.00
C58    C     0.27620   0.37650   0.83630   0.01267  Uiso   1.00
C59    C     0.15780   0.35930   0.80680   0.01267  Uiso   1.00
C60    C     0.24480   0.63130   0.04460   0.01267  Uiso   1.00
C61    C     0.24610   0.70540   0.06490   0.01267  Uiso   1.00
C62    C     0.23870   0.70360   0.13870   0.01267  Uiso   1.00
C63    C     0.22990   0.62630   0.19570   0.01267  Uiso   1.00
C64    C     0.21650   0.62320   0.27800   0.01267  Uiso   1.00
C65    C     0.23230   0.55070   0.17410   0.01267  Uiso   1.00
C66    C     0.23950   0.55130   0.10100   0.01267  Uiso   1.00
C67    C     0.86230   0.70210   0.86830   0.01267  Uiso   1.00
C68    C     0.88610   0.77510   0.80770   0.01267  Uiso   1.00
C69    C     0.76590   0.83190   0.79530   0.01267  Uiso   1.00
C70    C     0.62200   0.81530   0.84370   0.01267  Uiso   1.00
C71    C     0.59890   0.74120   0.90350   0.01267  Uiso   1.00
C72    C     0.71840   0.68540   0.91650   0.01267  Uiso   1.00
C73    C     0.49570   0.87620   0.82660   0.01267  Uiso   1.00
C74    C     0.99940   0.86090   0.94590   0.01267  Uiso   1.00
C75    C     0.91770   0.98860   0.90590   0.01267  Uiso   1.00
C76    C     0.85060   0.86070   0.98140   0.01267  Uiso   1.00
C77    C     0.64620   0.97100   0.97940   0.01267  Uiso   1.00
C78    C     0.62200   0.05380   0.98500   0.01267  Uiso   1.00
C79    C     0.52500   0.91820   0.99330   0.01267  Uiso   1.00
C80    C     0.24310   0.13150   0.80250   0.01267  Uiso   1.00
C81    C     0.25980   0.21980   0.80960   0.01267  Uiso   1.00
C82    C     0.15670   0.28120   0.79060   0.01267  Uiso   1.00
C83    C     0.37680   0.23840   0.83990   0.01267  Uiso   1.00
C84    C     0.38270   0.31610   0.85340   0.01267  Uiso   1.00
C85    C     0.91050   0.70120   0.49380   0.01267  Uiso   1.00
C86    C     0.76760   0.68220   0.56040   0.01267  Uiso   1.00
C87    C     0.78130   0.69130   0.63510   0.01267  Uiso   1.00
C88    C     0.48490   0.93980   0.46280   0.01267  Uiso   1.00
C89    C     0.05290   0.05760   0.53040   0.01267  Uiso   1.00
C90    C     0.99220   0.08770   0.46610   0.01267  Uiso   1.00
C91    C     0.06190   0.97100   0.56290   0.01267  Uiso   1.00
C92    C     0.27120   0.86630   0.70390   0.01267  Uiso   1.00
C93    C     0.21480   0.86590   0.64420   0.01267  Uiso   1.00
C94    C     0.13670   0.97980   0.68080   0.01267  Uiso   1.00
C95    C     0.42800   0.02030   0.43850   0.01267  Uiso   1.00
C96    C     0.65390   0.67700   0.69810   0.01267  Uiso   1.00
C97    C     0.51210   0.64760   0.61010   0.01267  Uiso   1.00
C98    C     0.64040   0.65940   0.54860   0.01267  Uiso   1.00
C99    C     0.33650   0.84860   0.42230   0.01267  Uiso   1.00
C100   C     0.48990   0.77030   0.37600   0.01267  Uiso   1.00
C101   C     0.57200   0.82510   0.39390   0.01267  Uiso   1.00
C102   C     0.55730   0.91770   0.52360   0.01267  Uiso   1.00
N1     N     0.95600   0.05850   0.10170   0.01267  Uiso   1.00
N2     N     0.20030   0.05830   0.04370   0.01267  Uiso   1.00
N3     N     0.86790   0.06180   0.37140   0.01267  Uiso   1.00
N4     N     0.77950   0.06280   0.27140   0.01267  Uiso   1.00
N5     N     0.53920   0.12150   0.57350   0.01267  Uiso   1.00
N6     N     0.65770   0.21670   0.60470   0.01267  Uiso   1.00
N7     N     0.04400   0.94150   0.89830   0.01267  Uiso   1.00
N8     N     0.79970   0.94170   0.95630   0.01267  Uiso   1.00
N9     N     0.13210   0.93820   0.62860   0.01267  Uiso   1.00
N10    N     0.22050   0.93720   0.72860   0.01267  Uiso   1.00
N11    N     0.46080   0.87850   0.42650   0.01267  Uiso   1.00
N12    N     0.34230   0.78330   0.39530   0.01267  Uiso   1.00
O1     O     0.02800   0.35590   0.11510   0.01267  Uiso   1.00
O2     O     0.75010   0.36080   0.03160   0.01267  Uiso   1.00
O3     O     0.71040   0.54990   0.14460   0.01267  Uiso   1.00
O4     O     0.61020   0.35660   0.26530   0.01267  Uiso   1.00
O5     O     0.79670   0.44820   0.67310   0.01267  Uiso   1.00
O6     O     0.63710   0.14090   0.12730   0.01267  Uiso   1.00
O7     O     0.48020   0.05800   0.22810   0.01267  Uiso   1.00
O8     O     0.66880   0.92590   0.16760   0.01267  Uiso   1.00
O9     O     0.85530   0.88450   0.22850   0.01267  Uiso   1.00
O10    O     0.08590   0.31890   0.56420   0.01267  Uiso   1.00
O11    O     0.97250   0.26940   0.49720   0.01267  Uiso   1.00
O12    O     0.78440   0.30560   0.70750   0.01267  Uiso   1.00
O13    O     0.97200   0.64410   0.88490   0.01267  Uiso   1.00
O14    O     0.24990   0.63920   0.96840   0.01267  Uiso   1.00
O15    O     0.28960   0.45010   0.85540   0.01267  Uiso   1.00
O16    O     0.38980   0.64340   0.73470   0.01267  Uiso   1.00
O17    O     0.20330   0.55180   0.32690   0.01267  Uiso   1.00
O18    O     0.36290   0.85910   0.87270   0.01267  Uiso   1.00
O19    O     0.51980   0.94200   0.77190   0.01267  Uiso   1.00
O20    O     0.33120   0.07410   0.83240   0.01267  Uiso   1.00
O21    O     0.14470   0.11550   0.77150   0.01267  Uiso   1.00
O22    O     0.91410   0.68110   0.43580   0.01267  Uiso   1.00
O23    O     0.02750   0.73060   0.50280   0.01267  Uiso   1.00
O24    O     0.21560   0.69440   0.29250   0.01267  Uiso   1.00
