data_PEKDAM_clean
_audit_creation_date              2014-07-02
_audit_creation_method            'Materials Studio'
_symmetry_space_group_name_H-M    'P1'
_symmetry_Int_Tables_number       1
_symmetry_cell_setting            triclinic
loop_
_symmetry_equiv_pos_as_xyz
  x,y,z
_cell_length_a                    10.3733
_cell_length_b                    14.1908
_cell_length_c                    34.2152
_cell_angle_alpha                 78.3007
_cell_angle_beta                  81.2810
_cell_angle_gamma                 68.5620
loop_
_atom_site_label
_atom_site_type_symbol
_atom_site_fract_x
_atom_site_fract_y
_atom_site_fract_z
_atom_site_U_iso_or_equiv
_atom_site_adp_type
_atom_site_occupancy
Mn1    Mn    0.39962   0.82683   0.83793   0.01267  Uiso   1.00
Mn2    Mn    0.02523   0.94114   0.85526   0.01267  Uiso   1.00
Mn3    Mn    0.77482   0.71320   0.81838   0.01267  Uiso   1.00
Mn4    Mn    0.93562   0.32683   0.33793   0.01267  Uiso   1.00
Mn5    Mn    0.17837   0.44114   0.35526   0.01267  Uiso   1.00
Mn6    Mn    0.69360   0.21320   0.31838   0.01267  Uiso   1.00
H1     H     0.73910   0.80130   0.11730   0.01267  Uiso   1.00
H2     H     0.65850   0.81780   0.15960   0.01267  Uiso   1.00
H3     H     0.46990   0.80860   0.08260   0.01267  Uiso   1.00
H4     H     0.42180   0.92540   0.06360   0.01267  Uiso   1.00
H5     H     0.59040   0.00580   0.12680   0.01267  Uiso   1.00
H6     H     0.65550   0.97600   0.08460   0.01267  Uiso   1.00
H7     H     0.32190   0.96920   0.12920   0.01267  Uiso   1.00
H8     H     0.37500   0.85400   0.15020   0.01267  Uiso   1.00
H9     H     0.78540   0.67790   0.19470   0.01267  Uiso   1.00
H10    H     0.81660   0.54480   0.24880   0.01267  Uiso   1.00
H11    H     0.55100   0.44990   0.20910   0.01267  Uiso   1.00
H12    H     0.52120   0.57940   0.15420   0.01267  Uiso   1.00
H13    H     0.42150   0.82370   0.01610   0.01267  Uiso   1.00
H14    H     0.43640   0.78920   0.95120   0.01267  Uiso   1.00
H15    H     0.81760   0.80840   0.92960   0.01267  Uiso   1.00
H16    H     0.80720   0.83470   0.99430   0.01267  Uiso   1.00
H17    H     0.44270   0.04090   0.22710   0.01267  Uiso   1.00
H18    H     0.27000   0.12560   0.27240   0.01267  Uiso   1.00
H19    H     0.99110   0.05080   0.22780   0.01267  Uiso   1.00
H20    H     0.16230   0.96830   0.18170   0.01267  Uiso   1.00
H21    H     0.18280   0.27580   0.03140   0.01267  Uiso   1.00
H22    H     0.24490   0.16110   0.05270   0.01267  Uiso   1.00
H23    H     0.43960   0.32490   0.01410   0.01267  Uiso   1.00
H24    H     0.44640   0.35950   0.05450   0.01267  Uiso   1.00
H25    H     0.24450   0.21780   0.11640   0.01267  Uiso   1.00
H26    H     0.17650   0.33170   0.09550   0.01267  Uiso   1.00
H27    H     0.53270   0.17880   0.09180   0.01267  Uiso   1.00
H28    H     0.54920   0.15190   0.04850   0.01267  Uiso   1.00
H29    H     0.11510   0.17010   0.99770   0.01267  Uiso   1.00
H30    H     0.07040   0.09440   0.94960   0.01267  Uiso   1.00
H31    H     0.46300   0.03040   0.90200   0.01267  Uiso   1.00
H32    H     0.50520   0.11280   0.94700   0.01267  Uiso   1.00
H33    H     0.44790   0.47500   0.98100   0.01267  Uiso   1.00
H34    H     0.40750   0.60890   0.92670   0.01267  Uiso   1.00
H35    H     0.00090   0.69380   0.96040   0.01267  Uiso   1.00
H36    H     0.04060   0.55580   0.01200   0.01267  Uiso   1.00
H37    H     0.09520   0.32410   0.16550   0.01267  Uiso   1.00
H38    H     0.03100   0.35960   0.22960   0.01267  Uiso   1.00
H39    H     0.41690   0.35270   0.23850   0.01267  Uiso   1.00
H40    H     0.47730   0.32810   0.17250   0.01267  Uiso   1.00
H41    H     0.34230   0.30130   0.61730   0.01267  Uiso   1.00
H42    H     0.36410   0.31780   0.65960   0.01267  Uiso   1.00
H43    H     0.63890   0.30860   0.58260   0.01267  Uiso   1.00
H44    H     0.58920   0.42540   0.56360   0.01267  Uiso   1.00
H45    H     0.27700   0.50580   0.62680   0.01267  Uiso   1.00
H46    H     0.28390   0.47600   0.58460   0.01267  Uiso   1.00
H47    H     0.57970   0.46920   0.62920   0.01267  Uiso   1.00
H48    H     0.62080   0.35400   0.65020   0.01267  Uiso   1.00
H49    H     0.34200   0.17790   0.69470   0.01267  Uiso   1.00
H50    H     0.38980   0.04480   0.74880   0.01267  Uiso   1.00
H51    H     0.79000   0.94990   0.70910   0.01267  Uiso   1.00
H52    H     0.74520   0.07940   0.65420   0.01267  Uiso   1.00
H53    H     0.73870   0.32370   0.51610   0.01267  Uiso   1.00
H54    H     0.82320   0.28920   0.45120   0.01267  Uiso   1.00
H55    H     0.44440   0.30840   0.42960   0.01267  Uiso   1.00
H56    H     0.36380   0.33470   0.49430   0.01267  Uiso   1.00
H57    H     0.28930   0.54090   0.72710   0.01267  Uiso   1.00
H58    H     0.33200   0.62560   0.77240   0.01267  Uiso   1.00
H59    H     0.73030   0.55080   0.72780   0.01267  Uiso   1.00
H60    H     0.68770   0.46830   0.68170   0.01267  Uiso   1.00
H61    H     0.51000   0.77580   0.53140   0.01267  Uiso   1.00
H62    H     0.54130   0.66110   0.55270   0.01267  Uiso   1.00
H63    H     0.22140   0.82490   0.51410   0.01267  Uiso   1.00
H64    H     0.13960   0.85950   0.55450   0.01267  Uiso   1.00
H65    H     0.42130   0.71780   0.61640   0.01267  Uiso   1.00
H66    H     0.39630   0.83170   0.59550   0.01267  Uiso   1.00
H67    H     0.19670   0.67880   0.59180   0.01267  Uiso   1.00
H68    H     0.25040   0.65190   0.54850   0.01267  Uiso   1.00
H69    H     0.71710   0.67010   0.49770   0.01267  Uiso   1.00
H70    H     0.88560   0.59440   0.44960   0.01267  Uiso   1.00
H71    H     0.60460   0.53040   0.40200   0.01267  Uiso   1.00
H72    H     0.43500   0.61280   0.44700   0.01267  Uiso   1.00
H73    H     0.09610   0.97500   0.48100   0.01267  Uiso   1.00
H74    H     0.05690   0.10890   0.42670   0.01267  Uiso   1.00
H75    H     0.34490   0.19380   0.46040   0.01267  Uiso   1.00
H76    H     0.39160   0.05580   0.51200   0.01267  Uiso   1.00
H77    H     0.41520   0.82410   0.66550   0.01267  Uiso   1.00
H78    H     0.37980   0.85960   0.72960   0.01267  Uiso   1.00
H79    H     0.99190   0.85270   0.73850   0.01267  Uiso   1.00
H80    H     0.02210   0.82810   0.67250   0.01267  Uiso   1.00
C1     C     0.53100   0.89461   0.11299   0.01267  Uiso   1.00
C2     C     0.65180   0.80601   0.13319   0.01267  Uiso   1.00
C3     C     0.49750   0.86865   0.07575   0.01267  Uiso   1.00
C4     C     0.57280   0.98934   0.10266   0.01267  Uiso   1.00
C5     C     0.39910   0.91545   0.14195   0.01267  Uiso   1.00
C6     C     0.64870   0.64259   0.16961   0.01267  Uiso   1.00
C7     C     0.73780   0.63228   0.19752   0.01267  Uiso   1.00
C8     C     0.75580   0.55251   0.23009   0.01267  Uiso   1.00
C9     C     0.68480   0.48563   0.23477   0.01267  Uiso   1.00
C10    C     0.59800   0.49595   0.20625   0.01267  Uiso   1.00
C11    C     0.57930   0.57359   0.17341   0.01267  Uiso   1.00
C12    C     0.70010   0.40046   0.27054   0.01267  Uiso   1.00
C13    C     0.61270   0.83192   0.01128   0.01267  Uiso   1.00
C14    C     0.50140   0.81929   0.99891   0.01267  Uiso   1.00
C15    C     0.51030   0.79969   0.95971   0.01267  Uiso   1.00
C16    C     0.62700   0.79576   0.93384   0.01267  Uiso   1.00
C17    C     0.73880   0.81009   0.94691   0.01267  Uiso   1.00
C18    C     0.73190   0.82678   0.98542   0.01267  Uiso   1.00
C19    C     0.63870   0.77474   0.89206   0.01267  Uiso   1.00
C20    C     0.31860   0.99505   0.20055   0.01267  Uiso   1.00
C21    C     0.35190   0.04294   0.22726   0.01267  Uiso   1.00
C22    C     0.24825   0.09405   0.25425   0.01267  Uiso   1.00
C23    C     0.11291   0.09808   0.25430   0.01267  Uiso   1.00
C24    C     0.08150   0.04955   0.22745   0.01267  Uiso   1.00
C25    C     0.18410   0.99912   0.20008   0.01267  Uiso   1.00
C26    C     0.99995   0.15517   0.28333   0.01267  Uiso   1.00
C27    C     0.35030   0.25117   0.06303   0.01267  Uiso   1.00
C28    C     0.26830   0.21956   0.03804   0.01267  Uiso   1.00
C29    C     0.38890   0.34153   0.03947   0.01267  Uiso   1.00
C30    C     0.26410   0.27732   0.10128   0.01267  Uiso   1.00
C31    C     0.48700   0.16275   0.07265   0.01267  Uiso   1.00
C32    C     0.31570   0.14900   0.97700   0.01267  Uiso   1.00
C33    C     0.18440   0.14337   0.97823   0.01267  Uiso   1.00
C34    C     0.15900   0.09651   0.94949   0.01267  Uiso   1.00
C35    C     0.26030   0.05375   0.92105   0.01267  Uiso   1.00
C36    C     0.39220   0.05962   0.92078   0.01267  Uiso   1.00
C37    C     0.41780   0.10781   0.94799   0.01267  Uiso   1.00
C38    C     0.23310   0.99953   0.89127   0.01267  Uiso   1.00
C39    C     0.24880   0.50286   0.00074   0.01267  Uiso   1.00
C40    C     0.35750   0.51828   0.97632   0.01267  Uiso   1.00
C41    C     0.33340   0.59937   0.94403   0.01267  Uiso   1.00
C42    C     0.19800   0.66595   0.93785   0.01267  Uiso   1.00
C43    C     0.09140   0.64894   0.96386   0.01267  Uiso   1.00
C44    C     0.11450   0.56706   0.99514   0.01267  Uiso   1.00
C45    C     0.16950   0.75061   0.90319   0.01267  Uiso   1.00
C46    C     0.29220   0.32449   0.16251   0.01267  Uiso   1.00
C47    C     0.15850   0.33201   0.17999   0.01267  Uiso   1.00
C48    C     0.12120   0.35143   0.21857   0.01267  Uiso   1.00
C49    C     0.21574   0.35908   0.24144   0.01267  Uiso   1.00
C50    C     0.35170   0.34881   0.22359   0.01267  Uiso   1.00
C51    C     0.38870   0.33298   0.18422   0.01267  Uiso   1.00
C52    C     0.17897   0.37815   0.28311   0.01267  Uiso   1.00
C53    C     0.46140   0.39461   0.61299   0.01267  Uiso   1.00
C54    C     0.40900   0.30601   0.63319   0.01267  Uiso   1.00
C55    C     0.55810   0.36865   0.57575   0.01267  Uiso   1.00
C56    C     0.33520   0.48934   0.60266   0.01267  Uiso   1.00
C57    C     0.54350   0.41545   0.64195   0.01267  Uiso   1.00
C58    C     0.53910   0.14259   0.66961   0.01267  Uiso   1.00
C59    C     0.43240   0.13228   0.69752   0.01267  Uiso   1.00
C60    C     0.46160   0.05251   0.73009   0.01267  Uiso   1.00
C61    C     0.59480   0.98563   0.73477   0.01267  Uiso   1.00
C62    C     0.69980   0.99595   0.70625   0.01267  Uiso   1.00
C63    C     0.67370   0.07359   0.67341   0.01267  Uiso   1.00
C64    C     0.62890   0.90046   0.77054   0.01267  Uiso   1.00
C65    C     0.54410   0.33192   0.51128   0.01267  Uiso   1.00
C66    C     0.68040   0.31929   0.49891   0.01267  Uiso   1.00
C67    C     0.73030   0.29969   0.45971   0.01267  Uiso   1.00
C68    C     0.64340   0.29576   0.43384   0.01267  Uiso   1.00
C69    C     0.50420   0.31009   0.44691   0.01267  Uiso   1.00
C70    C     0.45590   0.32678   0.48542   0.01267  Uiso   1.00
C71    C     0.69450   0.27474   0.39206   0.01267  Uiso   1.00
C72    C     0.48580   0.49505   0.70055   0.01267  Uiso   1.00
C73    C     0.37790   0.54294   0.72726   0.01267  Uiso   1.00
C74    C     0.40345   0.59405   0.75425   0.01267  Uiso   1.00
C75    C     0.53471   0.59808   0.75430   0.01267  Uiso   1.00
C76    C     0.64150   0.54955   0.72745   0.01267  Uiso   1.00
C77    C     0.61670   0.49912   0.70008   0.01267  Uiso   1.00
C78    C     0.56155   0.65517   0.78333   0.01267  Uiso   1.00
C79    C     0.33550   0.75117   0.56303   0.01267  Uiso   1.00
C80    C     0.47410   0.71956   0.53804   0.01267  Uiso   1.00
C81    C     0.23010   0.84153   0.53947   0.01267  Uiso   1.00
C82    C     0.35730   0.77732   0.60128   0.01267  Uiso   1.00
C83    C     0.27760   0.66275   0.57265   0.01267  Uiso   1.00
C84    C     0.55830   0.64900   0.47700   0.01267  Uiso   1.00
C85    C     0.69400   0.64337   0.47823   0.01267  Uiso   1.00
C86    C     0.79500   0.59651   0.44949   0.01267  Uiso   1.00
C87    C     0.76490   0.55375   0.42105   0.01267  Uiso   1.00
C88    C     0.62740   0.55962   0.42078   0.01267  Uiso   1.00
C89    C     0.52640   0.60781   0.44799   0.01267  Uiso   1.00
C90    C     0.87610   0.49953   0.39127   0.01267  Uiso   1.00
C91    C     0.24760   0.00286   0.50074   0.01267  Uiso   1.00
C92    C     0.14790   0.01828   0.47632   0.01267  Uiso   1.00
C93    C     0.12320   0.09937   0.44403   0.01267  Uiso   1.00
C94    C     0.19820   0.16595   0.43785   0.01267  Uiso   1.00
C95    C     0.29580   0.14894   0.46386   0.01267  Uiso   1.00
C96    C     0.32330   0.06706   0.49514   0.01267  Uiso   1.00
C97    C     0.17670   0.25061   0.40319   0.01267  Uiso   1.00
C98    C     0.22080   0.82449   0.66251   0.01267  Uiso   1.00
C99    C     0.32950   0.83201   0.67999   0.01267  Uiso   1.00
C100   C     0.30880   0.85143   0.71857   0.01267  Uiso   1.00
C101   C     0.18374   0.85908   0.74144   0.01267  Uiso   1.00
C102   C     0.07590   0.84881   0.72359   0.01267  Uiso   1.00
C103   C     0.09410   0.83298   0.68422   0.01267  Uiso   1.00
C104   C     0.15977   0.87815   0.78311   0.01267  Uiso   1.00
O1     O     0.45434   0.07372   0.08880   0.01267  Uiso   1.00
O2     O     0.62359   0.71501   0.13601   0.01267  Uiso   1.00
O3     O     0.62061   0.84907   0.04851   0.01267  Uiso   1.00
O4     O     0.42876   0.94606   0.17562   0.01267  Uiso   1.00
O5     O     0.77525   0.39489   0.29681   0.01267  Uiso   1.00
O6     O     0.63423   0.34137   0.27197   0.01267  Uiso   1.00
O7     O     0.55185   0.74439   0.88151   0.01267  Uiso   1.00
O8     O     0.74121   0.78748   0.86870   0.01267  Uiso   1.00
O9     O     0.88013   0.15095   0.28339   0.01267  Uiso   1.00
O10    O     0.03286   0.20224   0.30484   0.01267  Uiso   1.00
O11    O     0.35581   0.19365   0.00233   0.01267  Uiso   1.00
O12    O     0.25878   0.42559   0.03305   0.01267  Uiso   1.00
O13    O     0.34068   0.30954   0.12370   0.01267  Uiso   1.00
O14    O     0.33613   0.95344   0.86950   0.01267  Uiso   1.00
O15    O     0.10943   0.00618   0.89036   0.01267  Uiso   1.00
O16    O     0.26739   0.75598   0.87744   0.01267  Uiso   1.00
O17    O     0.04618   0.81336   0.90168   0.01267  Uiso   1.00
O18    O     0.05363   0.41151   0.29683   0.01267  Uiso   1.00
O19    O     0.27633   0.36559   0.30455   0.01267  Uiso   1.00
O20    O     0.38314   0.57372   0.58880   0.01267  Uiso   1.00
O21    O     0.52539   0.21501   0.63601   0.01267  Uiso   1.00
O22    O     0.48181   0.34907   0.54851   0.01267  Uiso   1.00
O23    O     0.44956   0.44606   0.67562   0.01267  Uiso   1.00
O24    O     0.53305   0.89489   0.79681   0.01267  Uiso   1.00
O25    O     0.75243   0.84137   0.77197   0.01267  Uiso   1.00
O26    O     0.82225   0.24439   0.38151   0.01267  Uiso   1.00
O27    O     0.60261   0.28748   0.36870   0.01267  Uiso   1.00
O28    O     0.68553   0.65095   0.78339   0.01267  Uiso   1.00
O29    O     0.46006   0.70224   0.80484   0.01267  Uiso   1.00
O30    O     0.44821   0.69365   0.50233   0.01267  Uiso   1.00
O31    O     0.28258   0.92559   0.53305   0.01267  Uiso   1.00
O32    O     0.22608   0.80954   0.62370   0.01267  Uiso   1.00
O33    O     0.84093   0.45344   0.36950   0.01267  Uiso   1.00
O34    O     0.99403   0.50618   0.39036   0.01267  Uiso   1.00
O35    O     0.09919   0.25598   0.37744   0.01267  Uiso   1.00
O36    O     0.23878   0.31336   0.40168   0.01267  Uiso   1.00
O37    O     0.23803   0.91151   0.79683   0.01267  Uiso   1.00
O38    O     0.05353   0.86559   0.80455   0.01267  Uiso   1.00
