data_image0
_cell_length_a       7.119
_cell_length_b       14.1051
_cell_length_c       17.698
_cell_angle_alpha    90
_cell_angle_beta     90
_cell_angle_gamma    90

_symmetry_space_group_name_H-M    "P 1"
_symmetry_int_tables_number       1

loop_
  _symmetry_equiv_pos_as_xyz
  'x, y, z'

loop_
  _atom_site_label
  _atom_site_occupancy
  _atom_site_fract_x
  _atom_site_fract_y
  _atom_site_fract_z
  _atom_site_thermal_displace_type
  _atom_site_B_iso_or_equiv
  _atom_site_type_symbol
  O1       1.0000 0.82610  0.23020  0.88780  Biso   1.000  O
  C1       1.0000 0.83250  0.04500  0.98410  Biso   1.000  C
  H1       1.0000 0.71880  0.07470  0.97350  Biso   1.000  H
  O2       1.0000 0.32610  0.73020  0.88780  Biso   1.000  O
  C2       1.0000 0.33250  0.54500  0.98410  Biso   1.000  C
  H2       1.0000 0.21880  0.57470  0.97350  Biso   1.000  H
  O3       1.0000 0.17390  0.76980  0.38780  Biso   1.000  O
  C3       1.0000 0.16750  0.95500  0.48410  Biso   1.000  C
  H3       1.0000 0.28120  0.92530  0.47350  Biso   1.000  H
  O4       1.0000 0.67390  0.26980  0.38780  Biso   1.000  O
  C4       1.0000 0.66750  0.45500  0.48410  Biso   1.000  C
  H4       1.0000 0.78120  0.42530  0.47350  Biso   1.000  H
  O5       1.0000 0.17390  0.23020  0.61220  Biso   1.000  O
  C5       1.0000 0.16750  0.04500  0.51590  Biso   1.000  C
  H5       1.0000 0.28120  0.07470  0.52650  Biso   1.000  H
  O6       1.0000 0.67390  0.73020  0.61220  Biso   1.000  O
  C6       1.0000 0.66750  0.54500  0.51590  Biso   1.000  C
  H6       1.0000 0.78120  0.57470  0.52650  Biso   1.000  H
  O7       1.0000 0.82610  0.76980  0.11220  Biso   1.000  O
  C7       1.0000 0.83250  0.95500  0.01590  Biso   1.000  C
  H7       1.0000 0.71880  0.92530  0.02650  Biso   1.000  H
  O8       1.0000 0.32610  0.26980  0.11220  Biso   1.000  O
  C8       1.0000 0.33250  0.45500  0.01590  Biso   1.000  C
  H8       1.0000 0.21880  0.42530  0.02650  Biso   1.000  H
  O9       1.0000 0.17390  0.76980  0.11220  Biso   1.000  O
  C9       1.0000 0.16750  0.95500  0.01590  Biso   1.000  C
  H9       1.0000 0.28120  0.92530  0.02650  Biso   1.000  H
  O10      1.0000 0.67390  0.26980  0.11220  Biso   1.000  O
  C10      1.0000 0.66750  0.45500  0.01590  Biso   1.000  C
  H10      1.0000 0.78120  0.42530  0.02650  Biso   1.000  H
  O11      1.0000 0.82610  0.23020  0.61220  Biso   1.000  O
  C11      1.0000 0.83250  0.04500  0.51590  Biso   1.000  C
  H11      1.0000 0.71880  0.07470  0.52650  Biso   1.000  H
  O12      1.0000 0.32610  0.73020  0.61220  Biso   1.000  O
  C12      1.0000 0.33250  0.54500  0.51590  Biso   1.000  C
  H12      1.0000 0.21880  0.57470  0.52650  Biso   1.000  H
  O13      1.0000 0.82610  0.76980  0.38780  Biso   1.000  O
  C13      1.0000 0.83250  0.95500  0.48410  Biso   1.000  C
  H13      1.0000 0.71880  0.92530  0.47350  Biso   1.000  H
  O14      1.0000 0.32610  0.26980  0.38780  Biso   1.000  O
  C14      1.0000 0.33250  0.45500  0.48410  Biso   1.000  C
  H14      1.0000 0.21880  0.42530  0.47350  Biso   1.000  H
  O15      1.0000 0.17390  0.23020  0.88780  Biso   1.000  O
  C15      1.0000 0.16750  0.04500  0.98410  Biso   1.000  C
  H15      1.0000 0.28120  0.07470  0.97350  Biso   1.000  H
  O16      1.0000 0.67390  0.73020  0.88780  Biso   1.000  O
  C16      1.0000 0.66750  0.54500  0.98410  Biso   1.000  C
  H16      1.0000 0.78120  0.57470  0.97350  Biso   1.000  H
  U1       1.0000 0.50000  0.23000  0.86501  Biso   1.000  U
  U2       1.0000 0.00000  0.73000  0.86501  Biso   1.000  U
  U3       1.0000 0.50000  0.77000  0.36501  Biso   1.000  U
  U4       1.0000 0.00000  0.27000  0.36501  Biso   1.000  U
  U5       1.0000 0.50000  0.23000  0.63499  Biso   1.000  U
  U6       1.0000 0.00000  0.73000  0.63499  Biso   1.000  U
  U7       1.0000 0.50000  0.77000  0.13499  Biso   1.000  U
  U8       1.0000 0.00000  0.27000  0.13499  Biso   1.000  U
  Sr1      1.0000 0.00000  0.27511  0.75000  Biso   1.000  Sr
  Sr2      1.0000 0.50000  0.77511  0.75000  Biso   1.000  Sr
  Sr3      1.0000 0.00000  0.72489  0.25000  Biso   1.000  Sr
  Sr4      1.0000 0.50000  0.22489  0.25000  Biso   1.000  Sr
  P1       1.0000 0.00000  0.21240  0.93622  Biso   1.000  P
  O17      1.0000 0.00000  0.27440  0.00670  Biso   1.000  O
  C17      1.0000 0.00000  0.09140  0.96780  Biso   1.000  C
  P2       1.0000 0.50000  0.71240  0.93622  Biso   1.000  P
  O18      1.0000 0.50000  0.77440  0.00670  Biso   1.000  O
  C18      1.0000 0.50000  0.59140  0.96780  Biso   1.000  C
  P3       1.0000 0.00000  0.78760  0.43622  Biso   1.000  P
  O19      1.0000 0.00000  0.72560  0.50670  Biso   1.000  O
  C19      1.0000 0.00000  0.90860  0.46780  Biso   1.000  C
  P4       1.0000 0.50000  0.28760  0.43622  Biso   1.000  P
  O20      1.0000 0.50000  0.22560  0.50670  Biso   1.000  O
  C20      1.0000 0.50000  0.40860  0.46780  Biso   1.000  C
  P5       1.0000 0.00000  0.21240  0.56378  Biso   1.000  P
  O21      1.0000 0.00000  0.27440  0.49330  Biso   1.000  O
  C21      1.0000 0.00000  0.09140  0.53220  Biso   1.000  C
  P6       1.0000 0.50000  0.71240  0.56378  Biso   1.000  P
  O22      1.0000 0.50000  0.77440  0.49330  Biso   1.000  O
  C22      1.0000 0.50000  0.59140  0.53220  Biso   1.000  C
  P7       1.0000 0.00000  0.78760  0.06378  Biso   1.000  P
  O23      1.0000 0.00000  0.72560  0.99330  Biso   1.000  O
  C23      1.0000 0.00000  0.90860  0.03220  Biso   1.000  C
  P8       1.0000 0.50000  0.28760  0.06378  Biso   1.000  P
  O24      1.0000 0.50000  0.22560  0.99330  Biso   1.000  O
  C24      1.0000 0.50000  0.40860  0.03220  Biso   1.000  C
  O25      1.0000 0.67160  0.23350  0.75000  Biso   1.000  O
  O26      1.0000 0.17160  0.73350  0.75000  Biso   1.000  O
  O27      1.0000 0.32840  0.76650  0.25000  Biso   1.000  O
  O28      1.0000 0.82840  0.26650  0.25000  Biso   1.000  O
  O29      1.0000 0.32840  0.23350  0.75000  Biso   1.000  O
  O30      1.0000 0.82840  0.73350  0.75000  Biso   1.000  O
  O31      1.0000 0.67160  0.76650  0.25000  Biso   1.000  O
  O32      1.0000 0.17160  0.26650  0.25000  Biso   1.000  O
