data_image0
_cell_length_a       13.5842
_cell_length_b       13.5842
_cell_length_c       14.8502
_cell_angle_alpha    90
_cell_angle_beta     90
_cell_angle_gamma    120

_symmetry_space_group_name_H-M    "P 1"
_symmetry_int_tables_number       1

loop_
  _symmetry_equiv_pos_as_xyz
  'x, y, z'

loop_
  _atom_site_label
  _atom_site_occupancy
  _atom_site_fract_x
  _atom_site_fract_y
  _atom_site_fract_z
  _atom_site_thermal_displace_type
  _atom_site_B_iso_or_equiv
  _atom_site_type_symbol
  N1       1.0000 0.17947  0.33922  0.54881  Biso   1.000  N
  C1       1.0000 0.07803  0.31500  0.51724  Biso   1.000  C
  H1       1.0000 0.04870  0.26750  0.46750  Biso   1.000  H
  C2       1.0000 0.01529  0.35760  0.55543  Biso   1.000  C
  H2       1.0000 0.94610  0.34170  0.53040  Biso   1.000  H
  C3       1.0000 0.05569  0.42420  0.63117  Biso   1.000  C
  H3       1.0000 0.01320  0.45200  0.65900  Biso   1.000  H
  C4       1.0000 0.16016  0.44930  0.66546  Biso   1.000  C
  C5       1.0000 0.22238  0.40815  0.62046  Biso   1.000  C
  H4       1.0000 0.29510  0.42890  0.64050  Biso   1.000  H
  N2       1.0000 0.19757  0.51184  0.74579  Biso   1.000  N
  H5       1.0000 0.15330  0.53360  0.76840  Biso   1.000  H
  C6       1.0000 0.29440  0.54220  0.79208  Biso   1.000  C
  O1       1.0000 0.37445  0.53582  0.76350  Biso   1.000  O
  C7       1.0000 0.28890  0.57840  0.88833  Biso   1.000  C
  H6       1.0000 0.23950  0.61180  0.88960  Biso   1.000  H
  C8       1.0000 0.23820  0.47460  0.94830  Biso   1.000  C
  H7       1.0000 0.28680  0.44210  0.94850  Biso   1.000  H
  H8       1.0000 0.16450  0.41970  0.92600  Biso   1.000  H
  H9       1.0000 0.23110  0.49610  0.00850  Biso   1.000  H
  N3       1.0000 0.40160  0.66290  0.91895  Biso   1.000  N
  H10      1.0000 0.43070  0.64750  0.96440  Biso   1.000  H
  C9       1.0000 0.46030  0.76190  0.87950  Biso   1.000  C
  O2       1.0000 0.42310  0.78970  0.81351  Biso   1.000  O
  C10      1.0000 0.57740  0.84220  0.91301  Biso   1.000  C
  C11      1.0000 0.60380  0.86380  0.00454  Biso   1.000  C
  H11      1.0000 0.54610  0.82530  0.04640  Biso   1.000  H
  N4       1.0000 0.70790  0.93705  0.03449  Biso   1.000  N
  C12      1.0000 0.79190  0.98560  0.97384  Biso   1.000  C
  H12      1.0000 0.86570  0.03280  0.99430  Biso   1.000  H
  C13      1.0000 0.77390  0.96880  0.88259  Biso   1.000  C
  H13      1.0000 0.83430  0.00410  0.84240  Biso   1.000  H
  C14      1.0000 0.66630  0.89960  0.85210  Biso   1.000  C
  H14      1.0000 0.65210  0.89060  0.79050  Biso   1.000  H
  N5       1.0000 0.66078  0.84025  0.21548  Biso   1.000  N
  C15      1.0000 0.68500  0.76303  0.18391  Biso   1.000  C
  H15      1.0000 0.73250  0.78120  0.13417  Biso   1.000  H
  C16      1.0000 0.64240  0.65769  0.22210  Biso   1.000  C
  H16      1.0000 0.65830  0.60440  0.19707  Biso   1.000  H
  C17      1.0000 0.57580  0.63149  0.29784  Biso   1.000  C
  H17      1.0000 0.54800  0.56120  0.32567  Biso   1.000  H
  C18      1.0000 0.55070  0.71086  0.33213  Biso   1.000  C
  C19      1.0000 0.59185  0.81423  0.28713  Biso   1.000  C
  H18      1.0000 0.57110  0.86620  0.30717  Biso   1.000  H
  N6       1.0000 0.48816  0.68573  0.41246  Biso   1.000  N
  H19      1.0000 0.46640  0.61970  0.43507  Biso   1.000  H
  C20      1.0000 0.45780  0.75220  0.45875  Biso   1.000  C
  O3       1.0000 0.46418  0.83863  0.43017  Biso   1.000  O
  C21      1.0000 0.42160  0.71050  0.55500  Biso   1.000  C
  H20      1.0000 0.38820  0.62770  0.55627  Biso   1.000  H
  C22      1.0000 0.52540  0.76360  0.61497  Biso   1.000  C
  H21      1.0000 0.55790  0.84470  0.61517  Biso   1.000  H
  H22      1.0000 0.58030  0.74480  0.59267  Biso   1.000  H
  H23      1.0000 0.50390  0.73500  0.67517  Biso   1.000  H
  N7       1.0000 0.33710  0.73870  0.58562  Biso   1.000  N
  H24      1.0000 0.35250  0.78320  0.63107  Biso   1.000  H
  C23      1.0000 0.23810  0.69840  0.54617  Biso   1.000  C
  O4       1.0000 0.21030  0.63340  0.48018  Biso   1.000  O
  C24      1.0000 0.15780  0.73520  0.57968  Biso   1.000  C
  C25      1.0000 0.13620  0.74000  0.67121  Biso   1.000  C
  H25      1.0000 0.17470  0.72080  0.71307  Biso   1.000  H
  N8       1.0000 0.06295  0.77085  0.70116  Biso   1.000  N
  C26      1.0000 0.01440  0.80630  0.64051  Biso   1.000  C
  H26      1.0000 0.96720  0.83290  0.66097  Biso   1.000  H
  C27      1.0000 0.03120  0.80510  0.54926  Biso   1.000  C
  H27      1.0000 0.99590  0.83020  0.50907  Biso   1.000  H
  C28      1.0000 0.10040  0.76670  0.51877  Biso   1.000  C
  H28      1.0000 0.10940  0.76150  0.45717  Biso   1.000  H
  N9       1.0000 0.15975  0.82053  0.88214  Biso   1.000  N
  C29      1.0000 0.23697  0.92197  0.85057  Biso   1.000  C
  H29      1.0000 0.21880  0.95130  0.80083  Biso   1.000  H
  C30      1.0000 0.34231  0.98471  0.88876  Biso   1.000  C
  H30      1.0000 0.39560  0.05390  0.86373  Biso   1.000  H
  C31      1.0000 0.36851  0.94431  0.96450  Biso   1.000  C
  H31      1.0000 0.43880  0.98680  0.99233  Biso   1.000  H
  C32      1.0000 0.28914  0.83984  0.99879  Biso   1.000  C
  C33      1.0000 0.18577  0.77762  0.95379  Biso   1.000  C
  H32      1.0000 0.13380  0.70490  0.97383  Biso   1.000  H
  N10      1.0000 0.31427  0.80243  0.07912  Biso   1.000  N
  H33      1.0000 0.38030  0.84670  0.10173  Biso   1.000  H
  C34      1.0000 0.24780  0.70560  0.12541  Biso   1.000  C
  O5       1.0000 0.16137  0.62555  0.09683  Biso   1.000  O
  C35      1.0000 0.28950  0.71110  0.22166  Biso   1.000  C
  H34      1.0000 0.37230  0.76050  0.22293  Biso   1.000  H
  C36      1.0000 0.23640  0.76180  0.28163  Biso   1.000  C
  H35      1.0000 0.15530  0.71320  0.28183  Biso   1.000  H
  H36      1.0000 0.25520  0.83550  0.25933  Biso   1.000  H
  H37      1.0000 0.26500  0.76890  0.34183  Biso   1.000  H
  N11      1.0000 0.26130  0.59840  0.25228  Biso   1.000  N
  H38      1.0000 0.21680  0.56930  0.29773  Biso   1.000  H
  C37      1.0000 0.30160  0.53970  0.21283  Biso   1.000  C
  O6       1.0000 0.36660  0.57690  0.14684  Biso   1.000  O
  C38      1.0000 0.26480  0.42260  0.24634  Biso   1.000  C
  C39      1.0000 0.26000  0.39620  0.33787  Biso   1.000  C
  H39      1.0000 0.27920  0.45390  0.37973  Biso   1.000  H
  N12      1.0000 0.22915  0.29210  0.36782  Biso   1.000  N
  C40      1.0000 0.19370  0.20810  0.30717  Biso   1.000  C
  H40      1.0000 0.16710  0.13430  0.32763  Biso   1.000  H
  C41      1.0000 0.19490  0.22610  0.21592  Biso   1.000  C
  H41      1.0000 0.16980  0.16570  0.17573  Biso   1.000  H
  C42      1.0000 0.23330  0.33370  0.18543  Biso   1.000  C
  H42      1.0000 0.23850  0.34790  0.12383  Biso   1.000  H
  N13      1.0000 0.33922  0.17947  0.45119  Biso   1.000  N
  C43      1.0000 0.31500  0.07803  0.48276  Biso   1.000  C
  H43      1.0000 0.26750  0.04870  0.53250  Biso   1.000  H
  C44      1.0000 0.35760  0.01529  0.44457  Biso   1.000  C
  H44      1.0000 0.34170  0.94610  0.46960  Biso   1.000  H
  C45      1.0000 0.42420  0.05569  0.36883  Biso   1.000  C
  H45      1.0000 0.45200  0.01320  0.34100  Biso   1.000  H
  C46      1.0000 0.44930  0.16016  0.33454  Biso   1.000  C
  C47      1.0000 0.40815  0.22238  0.37954  Biso   1.000  C
  H46      1.0000 0.42890  0.29510  0.35950  Biso   1.000  H
  N14      1.0000 0.51184  0.19757  0.25421  Biso   1.000  N
  H47      1.0000 0.53360  0.15330  0.23160  Biso   1.000  H
  C48      1.0000 0.54220  0.29440  0.20792  Biso   1.000  C
  O7       1.0000 0.53582  0.37445  0.23650  Biso   1.000  O
  C49      1.0000 0.57840  0.28890  0.11167  Biso   1.000  C
  H48      1.0000 0.61180  0.23950  0.11040  Biso   1.000  H
  C50      1.0000 0.47460  0.23820  0.05170  Biso   1.000  C
  H49      1.0000 0.44210  0.28680  0.05150  Biso   1.000  H
  H50      1.0000 0.41970  0.16450  0.07400  Biso   1.000  H
  H51      1.0000 0.49610  0.23110  0.99150  Biso   1.000  H
  N15      1.0000 0.66290  0.40160  0.08105  Biso   1.000  N
  H52      1.0000 0.64750  0.43070  0.03560  Biso   1.000  H
  C51      1.0000 0.76190  0.46030  0.12050  Biso   1.000  C
  O8       1.0000 0.78970  0.42310  0.18649  Biso   1.000  O
  C52      1.0000 0.84220  0.57740  0.08699  Biso   1.000  C
  C53      1.0000 0.86380  0.60380  0.99546  Biso   1.000  C
  H53      1.0000 0.82530  0.54610  0.95360  Biso   1.000  H
  N16      1.0000 0.93705  0.70790  0.96551  Biso   1.000  N
  C54      1.0000 0.98560  0.79190  0.02616  Biso   1.000  C
  H54      1.0000 0.03280  0.86570  0.00570  Biso   1.000  H
  C55      1.0000 0.96880  0.77390  0.11741  Biso   1.000  C
  H55      1.0000 0.00410  0.83430  0.15760  Biso   1.000  H
  C56      1.0000 0.89960  0.66630  0.14790  Biso   1.000  C
  H56      1.0000 0.89060  0.65210  0.20950  Biso   1.000  H
  N17      1.0000 0.84025  0.66078  0.78452  Biso   1.000  N
  C57      1.0000 0.76303  0.68500  0.81609  Biso   1.000  C
  H57      1.0000 0.78120  0.73250  0.86583  Biso   1.000  H
  C58      1.0000 0.65769  0.64240  0.77790  Biso   1.000  C
  H58      1.0000 0.60440  0.65830  0.80293  Biso   1.000  H
  C59      1.0000 0.63149  0.57580  0.70216  Biso   1.000  C
  H59      1.0000 0.56120  0.54800  0.67433  Biso   1.000  H
  C60      1.0000 0.71086  0.55070  0.66787  Biso   1.000  C
  C61      1.0000 0.81423  0.59185  0.71287  Biso   1.000  C
  H60      1.0000 0.86620  0.57110  0.69283  Biso   1.000  H
  N18      1.0000 0.68573  0.48816  0.58754  Biso   1.000  N
  H61      1.0000 0.61970  0.46640  0.56493  Biso   1.000  H
  C62      1.0000 0.75220  0.45780  0.54125  Biso   1.000  C
  O9       1.0000 0.83863  0.46418  0.56983  Biso   1.000  O
  C63      1.0000 0.71050  0.42160  0.44500  Biso   1.000  C
  H62      1.0000 0.62770  0.38820  0.44373  Biso   1.000  H
  C64      1.0000 0.76360  0.52540  0.38503  Biso   1.000  C
  H63      1.0000 0.84470  0.55790  0.38483  Biso   1.000  H
  H64      1.0000 0.74480  0.58030  0.40733  Biso   1.000  H
  H65      1.0000 0.73500  0.50390  0.32483  Biso   1.000  H
  N19      1.0000 0.73870  0.33710  0.41438  Biso   1.000  N
  H66      1.0000 0.78320  0.35250  0.36893  Biso   1.000  H
  C65      1.0000 0.69840  0.23810  0.45383  Biso   1.000  C
  O10      1.0000 0.63340  0.21030  0.51982  Biso   1.000  O
  C66      1.0000 0.73520  0.15780  0.42032  Biso   1.000  C
  C67      1.0000 0.74000  0.13620  0.32879  Biso   1.000  C
  H67      1.0000 0.72080  0.17470  0.28693  Biso   1.000  H
  N20      1.0000 0.77085  0.06295  0.29884  Biso   1.000  N
  C68      1.0000 0.80630  0.01440  0.35949  Biso   1.000  C
  H68      1.0000 0.83290  0.96720  0.33903  Biso   1.000  H
  C69      1.0000 0.80510  0.03120  0.45074  Biso   1.000  C
  H69      1.0000 0.83020  0.99590  0.49093  Biso   1.000  H
  C70      1.0000 0.76670  0.10040  0.48123  Biso   1.000  C
  H70      1.0000 0.76150  0.10940  0.54283  Biso   1.000  H
  N21      1.0000 0.82053  0.15975  0.11786  Biso   1.000  N
  C71      1.0000 0.92197  0.23697  0.14943  Biso   1.000  C
  H71      1.0000 0.95130  0.21880  0.19917  Biso   1.000  H
  C72      1.0000 0.98471  0.34231  0.11124  Biso   1.000  C
  H72      1.0000 0.05390  0.39560  0.13627  Biso   1.000  H
  C73      1.0000 0.94431  0.36851  0.03550  Biso   1.000  C
  H73      1.0000 0.98680  0.43880  0.00767  Biso   1.000  H
  C74      1.0000 0.83984  0.28914  0.00121  Biso   1.000  C
  C75      1.0000 0.77762  0.18577  0.04621  Biso   1.000  C
  H74      1.0000 0.70490  0.13380  0.02617  Biso   1.000  H
  N22      1.0000 0.80243  0.31427  0.92088  Biso   1.000  N
  H75      1.0000 0.84670  0.38030  0.89827  Biso   1.000  H
  C76      1.0000 0.70560  0.24780  0.87459  Biso   1.000  C
  O11      1.0000 0.62555  0.16137  0.90317  Biso   1.000  O
  C77      1.0000 0.71110  0.28950  0.77834  Biso   1.000  C
  H76      1.0000 0.76050  0.37230  0.77707  Biso   1.000  H
  C78      1.0000 0.76180  0.23640  0.71837  Biso   1.000  C
  H77      1.0000 0.71320  0.15530  0.71817  Biso   1.000  H
  H78      1.0000 0.83550  0.25520  0.74067  Biso   1.000  H
  H79      1.0000 0.76890  0.26500  0.65817  Biso   1.000  H
  N23      1.0000 0.59840  0.26130  0.74772  Biso   1.000  N
  H80      1.0000 0.56930  0.21680  0.70227  Biso   1.000  H
  C79      1.0000 0.53970  0.30160  0.78717  Biso   1.000  C
  O12      1.0000 0.57690  0.36660  0.85316  Biso   1.000  O
  C80      1.0000 0.42260  0.26480  0.75366  Biso   1.000  C
  C81      1.0000 0.39620  0.26000  0.66213  Biso   1.000  C
  H81      1.0000 0.45390  0.27920  0.62027  Biso   1.000  H
  N24      1.0000 0.29210  0.22915  0.63218  Biso   1.000  N
  C82      1.0000 0.20810  0.19370  0.69283  Biso   1.000  C
  H82      1.0000 0.13430  0.16710  0.67237  Biso   1.000  H
  C83      1.0000 0.22610  0.19490  0.78408  Biso   1.000  C
  H83      1.0000 0.16570  0.16980  0.82427  Biso   1.000  H
  C84      1.0000 0.33370  0.23330  0.81457  Biso   1.000  C
  H84      1.0000 0.34790  0.23850  0.87617  Biso   1.000  H
  Cu1      1.0000 0.26264  0.26264  0.50000  Biso   1.000  Cu
  Cu2      1.0000 0.73736  0.00000  0.16667  Biso   1.000  Cu
  Cu3      1.0000 0.00000  0.73736  0.83333  Biso   1.000  Cu
