data_PEMGIZ_charged
_audit_creation_date              2014-07-02
_audit_creation_method            'Materials Studio'
_symmetry_space_group_name_H-M    'P1'
_symmetry_Int_Tables_number       1
_symmetry_cell_setting            triclinic
loop_
_symmetry_equiv_pos_as_xyz
  x,y,z
_cell_length_a                    13.9842
_cell_length_b                    18.4731
_cell_length_c                    18.4731
_cell_angle_alpha                 81.7633
_cell_angle_beta                  67.7590
_cell_angle_gamma                 67.7591
loop_
_atom_site_label
_atom_site_type_symbol
_atom_site_fract_x
_atom_site_fract_y
_atom_site_fract_z
_atom_site_U_iso_or_equiv
_atom_site_adp_type
_atom_site_occupancy
Ag1    Ag    0.62500   0.19956   0.30044   0.01267  Uiso   1.00
Ag2    Ag    0.12500   0.80044   0.69956   0.01267  Uiso   1.00
Ag3    Ag    0.07456   0.30044   0.80044   0.01267  Uiso   1.00
Ag4    Ag    0.17544   0.69956   0.19956   0.01267  Uiso   1.00
H1     H     0.69440   0.04650   0.19670   0.01267  Uiso   1.00
H2     H     0.07240   0.09260   0.16600   0.01267  Uiso   1.00
H3     H     0.73010   0.23010   0.16170   0.01267  Uiso   1.00
H4     H     0.73770   0.26190   0.07530   0.01267  Uiso   1.00
H5     H     0.41210   0.19230   0.28770   0.01267  Uiso   1.00
H6     H     0.31090   0.23210   0.20410   0.01267  Uiso   1.00
H7     H     0.39160   0.26900   0.07540   0.01267  Uiso   1.00
H8     H     0.57350   0.26600   0.03040   0.01267  Uiso   1.00
H9     H     0.48750   0.92990   0.24770   0.01267  Uiso   1.00
H10    H     0.53350   0.98760   0.26980   0.01267  Uiso   1.00
H11    H     0.60020   0.89540   0.26520   0.01267  Uiso   1.00
H12    H     0.68230   0.83490   0.11190   0.01267  Uiso   1.00
H13    H     0.65440   0.90120   0.04940   0.01267  Uiso   1.00
H14    H     0.55680   0.88050   0.11790   0.01267  Uiso   1.00
H15    H     0.50910   0.06240   0.17000   0.01267  Uiso   1.00
H16    H     0.55020   0.02970   0.08350   0.01267  Uiso   1.00
H17    H     0.63030   0.05440   0.10980   0.01267  Uiso   1.00
H18    H     0.93760   0.95350   0.80330   0.01267  Uiso   1.00
H19    H     0.33100   0.90740   0.83400   0.01267  Uiso   1.00
H20    H     0.12190   0.76990   0.83830   0.01267  Uiso   1.00
H21    H     0.07490   0.73810   0.92470   0.01267  Uiso   1.00
H22    H     0.89210   0.80770   0.71230   0.01267  Uiso   1.00
H23    H     0.74710   0.76790   0.79590   0.01267  Uiso   1.00
H24    H     0.73600   0.73100   0.92460   0.01267  Uiso   1.00
H25    H     0.86990   0.73400   0.96960   0.01267  Uiso   1.00
H26    H     0.66510   0.07010   0.75230   0.01267  Uiso   1.00
H27    H     0.79090   0.01240   0.73020   0.01267  Uiso   1.00
H28    H     0.76080   0.10460   0.73480   0.01267  Uiso   1.00
H29    H     0.62910   0.16510   0.88810   0.01267  Uiso   1.00
H30    H     0.60500   0.09880   0.95060   0.01267  Uiso   1.00
H31    H     0.55520   0.11950   0.88210   0.01267  Uiso   1.00
H32    H     0.74150   0.93760   0.83000   0.01267  Uiso   1.00
H33    H     0.66340   0.97030   0.91650   0.01267  Uiso   1.00
H34    H     0.79450   0.94560   0.89020   0.01267  Uiso   1.00
H35    H     0.10890   0.19670   0.95350   0.01267  Uiso   1.00
H36    H     0.76160   0.16600   0.90740   0.01267  Uiso   1.00
H37    H     0.10820   0.16170   0.76990   0.01267  Uiso   1.00
H38    H     0.18700   0.07530   0.73810   0.01267  Uiso   1.00
H39    H     0.30020   0.28770   0.80770   0.01267  Uiso   1.00
H40    H     0.48500   0.20410   0.76790   0.01267  Uiso   1.00
H41    H     0.53300   0.07540   0.73100   0.01267  Uiso   1.00
H42    H     0.39610   0.03040   0.73400   0.01267  Uiso   1.00
H43    H     0.26480   0.24770   0.07010   0.01267  Uiso   1.00
H44    H     0.19670   0.26980   0.01240   0.01267  Uiso   1.00
H45    H     0.13460   0.26520   0.10460   0.01267  Uiso   1.00
H46    H     0.20580   0.11190   0.16510   0.01267  Uiso   1.00
H47    H     0.29620   0.04940   0.09880   0.01267  Uiso   1.00
H48    H     0.32530   0.11790   0.11950   0.01267  Uiso   1.00
H49    H     0.32090   0.17000   0.93760   0.01267  Uiso   1.00
H50    H     0.36630   0.08350   0.97030   0.01267  Uiso   1.00
H51    H     0.25990   0.10980   0.94560   0.01267  Uiso   1.00
H52    H     0.25910   0.80330   0.04650   0.01267  Uiso   1.00
H53    H     0.83500   0.83400   0.09260   0.01267  Uiso   1.00
H54    H     0.03980   0.83830   0.23010   0.01267  Uiso   1.00
H55    H     0.00040   0.92470   0.26190   0.01267  Uiso   1.00
H56    H     0.39560   0.71230   0.19230   0.01267  Uiso   1.00
H57    H     0.45700   0.79590   0.23210   0.01267  Uiso   1.00
H58    H     0.33940   0.92460   0.26900   0.01267  Uiso   1.00
H59    H     0.16050   0.96960   0.26600   0.01267  Uiso   1.00
H60    H     0.58260   0.75230   0.92990   0.01267  Uiso   1.00
H61    H     0.47890   0.73020   0.98760   0.01267  Uiso   1.00
H62    H     0.50440   0.73480   0.89540   0.01267  Uiso   1.00
H63    H     0.48280   0.88810   0.83490   0.01267  Uiso   1.00
H64    H     0.44440   0.95060   0.90120   0.01267  Uiso   1.00
H65    H     0.56270   0.88210   0.88050   0.01267  Uiso   1.00
H66    H     0.42850   0.83000   0.06240   0.01267  Uiso   1.00
H67    H     0.42010   0.91650   0.02970   0.01267  Uiso   1.00
H68    H     0.31530   0.89020   0.05440   0.01267  Uiso   1.00
H69    H     0.31240   0.69670   0.54650   0.01267  Uiso   1.00
H70    H     0.91900   0.66600   0.59260   0.01267  Uiso   1.00
H71    H     0.12810   0.66170   0.73010   0.01267  Uiso   1.00
H72    H     0.17510   0.57530   0.76190   0.01267  Uiso   1.00
H73    H     0.35790   0.78770   0.69230   0.01267  Uiso   1.00
H74    H     0.50290   0.70410   0.73210   0.01267  Uiso   1.00
H75    H     0.51400   0.57540   0.76900   0.01267  Uiso   1.00
H76    H     0.38010   0.53040   0.76600   0.01267  Uiso   1.00
H77    H     0.58490   0.74770   0.42990   0.01267  Uiso   1.00
H78    H     0.45910   0.76980   0.48760   0.01267  Uiso   1.00
H79    H     0.48920   0.76520   0.39540   0.01267  Uiso   1.00
H80    H     0.62090   0.61190   0.33490   0.01267  Uiso   1.00
H81    H     0.64500   0.54940   0.40120   0.01267  Uiso   1.00
H82    H     0.69480   0.61790   0.38050   0.01267  Uiso   1.00
H83    H     0.50850   0.67000   0.56240   0.01267  Uiso   1.00
H84    H     0.58660   0.58350   0.52970   0.01267  Uiso   1.00
H85    H     0.45550   0.60980   0.55440   0.01267  Uiso   1.00
H86    H     0.55560   0.30330   0.45350   0.01267  Uiso   1.00
H87    H     0.17760   0.33400   0.40740   0.01267  Uiso   1.00
H88    H     0.51990   0.33830   0.26990   0.01267  Uiso   1.00
H89    H     0.51230   0.42470   0.23810   0.01267  Uiso   1.00
H90    H     0.83790   0.21230   0.30770   0.01267  Uiso   1.00
H91    H     0.93910   0.29590   0.26790   0.01267  Uiso   1.00
H92    H     0.85840   0.42460   0.23100   0.01267  Uiso   1.00
H93    H     0.67650   0.46960   0.23400   0.01267  Uiso   1.00
H94    H     0.76250   0.25230   0.57010   0.01267  Uiso   1.00
H95    H     0.71650   0.23020   0.51240   0.01267  Uiso   1.00
H96    H     0.64980   0.23480   0.60460   0.01267  Uiso   1.00
H97    H     0.56770   0.38810   0.66510   0.01267  Uiso   1.00
H98    H     0.59560   0.45060   0.59880   0.01267  Uiso   1.00
H99    H     0.69320   0.38210   0.61950   0.01267  Uiso   1.00
H100   H     0.74090   0.33000   0.43760   0.01267  Uiso   1.00
H101   H     0.69980   0.41650   0.47030   0.01267  Uiso   1.00
H102   H     0.61970   0.39020   0.44560   0.01267  Uiso   1.00
H103   H     0.99090   0.45350   0.69670   0.01267  Uiso   1.00
H104   H     0.41500   0.40740   0.66600   0.01267  Uiso   1.00
H105   H     0.21020   0.26990   0.66170   0.01267  Uiso   1.00
H106   H     0.24960   0.23810   0.57530   0.01267  Uiso   1.00
H107   H     0.85440   0.30770   0.78770   0.01267  Uiso   1.00
H108   H     0.79300   0.26790   0.70410   0.01267  Uiso   1.00
H109   H     0.91060   0.23100   0.57540   0.01267  Uiso   1.00
H110   H     0.08950   0.23400   0.53040   0.01267  Uiso   1.00
H111   H     0.66740   0.57010   0.74770   0.01267  Uiso   1.00
H112   H     0.77110   0.51240   0.76980   0.01267  Uiso   1.00
H113   H     0.74560   0.60460   0.76520   0.01267  Uiso   1.00
H114   H     0.76720   0.66510   0.61190   0.01267  Uiso   1.00
H115   H     0.80560   0.59880   0.54940   0.01267  Uiso   1.00
H116   H     0.68730   0.61950   0.61790   0.01267  Uiso   1.00
H117   H     0.82150   0.43760   0.67000   0.01267  Uiso   1.00
H118   H     0.82990   0.47030   0.58350   0.01267  Uiso   1.00
H119   H     0.93470   0.44560   0.60980   0.01267  Uiso   1.00
H120   H     0.14110   0.54650   0.30330   0.01267  Uiso   1.00
H121   H     0.48840   0.59260   0.33400   0.01267  Uiso   1.00
H122   H     0.14180   0.73010   0.33830   0.01267  Uiso   1.00
H123   H     0.06300   0.76190   0.42470   0.01267  Uiso   1.00
H124   H     0.94980   0.69230   0.21230   0.01267  Uiso   1.00
H125   H     0.76500   0.73210   0.29590   0.01267  Uiso   1.00
H126   H     0.71700   0.76900   0.42460   0.01267  Uiso   1.00
H127   H     0.85390   0.76600   0.46960   0.01267  Uiso   1.00
H128   H     0.98520   0.42990   0.25230   0.01267  Uiso   1.00
H129   H     0.05330   0.48760   0.23020   0.01267  Uiso   1.00
H130   H     0.11540   0.39540   0.23480   0.01267  Uiso   1.00
H131   H     0.04420   0.33490   0.38810   0.01267  Uiso   1.00
H132   H     0.95380   0.40120   0.45060   0.01267  Uiso   1.00
H133   H     0.92470   0.38050   0.38210   0.01267  Uiso   1.00
H134   H     0.92910   0.56240   0.33000   0.01267  Uiso   1.00
H135   H     0.88370   0.52970   0.41650   0.01267  Uiso   1.00
H136   H     0.99010   0.55440   0.39020   0.01267  Uiso   1.00
C1     C     0.94150   0.11590   0.13130   0.01267  Uiso   1.00
C2     C     0.90090   0.14770   0.07130   0.01267  Uiso   1.00
C3     C     0.85890   0.99500   0.17780   0.01267  Uiso   1.00
C4     C     0.75750   0.00130   0.17610   0.01267  Uiso   1.00
C5     C     0.74870   0.94130   0.14430   0.01267  Uiso   1.00
C6     C     0.04460   0.11430   0.12490   0.01267  Uiso   1.00
C7     C     0.72170   0.22080   0.11340   0.01267  Uiso   1.00
C8     C     0.60100   0.22730   0.13230   0.01267  Uiso   1.00
C9     C     0.44490   0.20730   0.23550   0.01267  Uiso   1.00
C10    C     0.38470   0.23090   0.18590   0.01267  Uiso   1.00
C11    C     0.43270   0.25280   0.10940   0.01267  Uiso   1.00
C12    C     0.54080   0.25100   0.08260   0.01267  Uiso   1.00
C13    C     0.61890   0.94690   0.15630   0.01267  Uiso   1.00
C14    C     0.55430   0.93920   0.24240   0.01267  Uiso   1.00
C15    C     0.62900   0.88540   0.10420   0.01267  Uiso   1.00
C16    C     0.57300   0.03100   0.12720   0.01267  Uiso   1.00
C17    C     0.18870   0.88410   0.86870   0.01267  Uiso   1.00
C18    C     0.11990   0.85230   0.92870   0.01267  Uiso   1.00
C19    C     0.03170   0.00500   0.82220   0.01267  Uiso   1.00
C20    C     0.93490   0.99870   0.82390   0.01267  Uiso   1.00
C21    C     0.83430   0.05870   0.85570   0.01267  Uiso   1.00
C22    C     0.28380   0.88570   0.87510   0.01267  Uiso   1.00
C23    C     0.05590   0.77920   0.88660   0.01267  Uiso   1.00
C24    C     0.96060   0.77270   0.86770   0.01267  Uiso   1.00
C25    C     0.88770   0.79270   0.76450   0.01267  Uiso   1.00
C26    C     0.80150   0.76910   0.81410   0.01267  Uiso   1.00
C27    C     0.79490   0.74720   0.89060   0.01267  Uiso   1.00
C28    C     0.87440   0.74900   0.91740   0.01267  Uiso   1.00
C29    C     0.72210   0.05310   0.84370   0.01267  Uiso   1.00
C30    C     0.73590   0.06080   0.75760   0.01267  Uiso   1.00
C31    C     0.61860   0.11460   0.89580   0.01267  Uiso   1.00
C32    C     0.73120   0.96900   0.87280   0.01267  Uiso   1.00
C33    C     0.92720   0.13130   0.88410   0.01267  Uiso   1.00
C34    C     0.02780   0.07130   0.85230   0.01267  Uiso   1.00
C35    C     0.96330   0.17780   0.00500   0.01267  Uiso   1.00
C36    C     0.06640   0.17610   0.99870   0.01267  Uiso   1.00
C37    C     0.10700   0.14430   0.05870   0.01267  Uiso   1.00
C38    C     0.83050   0.12490   0.88570   0.01267  Uiso   1.00
C39    C     0.16490   0.11340   0.77920   0.01267  Uiso   1.00
C40    C     0.26670   0.13230   0.77270   0.01267  Uiso   1.00
C41    C     0.31960   0.23550   0.79270   0.01267  Uiso   1.00
C42    C     0.42940   0.18590   0.76910   0.01267  Uiso   1.00
C43    C     0.45790   0.10940   0.74720   0.01267  Uiso   1.00
C44    C     0.37660   0.08260   0.74900   0.01267  Uiso   1.00
C45    C     0.22480   0.15630   0.05310   0.01267  Uiso   1.00
C46    C     0.20330   0.24240   0.06080   0.01267  Uiso   1.00
C47    C     0.26680   0.10420   0.11460   0.01267  Uiso   1.00
C48    C     0.29980   0.12720   0.96900   0.01267  Uiso   1.00
C49    C     0.94260   0.86870   0.11590   0.01267  Uiso   1.00
C50    C     0.95140   0.92870   0.14770   0.01267  Uiso   1.00
C51    C     0.14610   0.82220   0.99500   0.01267  Uiso   1.00
C52    C     0.24120   0.82390   0.00130   0.01267  Uiso   1.00
C53    C     0.31000   0.85570   0.94130   0.01267  Uiso   1.00
C54    C     0.84110   0.87510   0.11430   0.01267  Uiso   1.00
C55    C     0.05750   0.88660   0.22080   0.01267  Uiso   1.00
C56    C     0.17170   0.86770   0.22730   0.01267  Uiso   1.00
C57    C     0.34780   0.76450   0.20730   0.01267  Uiso   1.00
C58    C     0.38440   0.81410   0.23090   0.01267  Uiso   1.00
C59    C     0.31450   0.89060   0.25280   0.01267  Uiso   1.00
C60    C     0.20820   0.91740   0.25100   0.01267  Uiso   1.00
C61    C     0.43420   0.84370   0.94690   0.01267  Uiso   1.00
C62    C     0.50650   0.75760   0.93920   0.01267  Uiso   1.00
C63    C     0.48560   0.89580   0.88540   0.01267  Uiso   1.00
C64    C     0.39600   0.87280   0.03100   0.01267  Uiso   1.00
C65    C     0.06130   0.63130   0.61590   0.01267  Uiso   1.00
C66    C     0.13010   0.57130   0.64770   0.01267  Uiso   1.00
C67    C     0.21830   0.67780   0.49500   0.01267  Uiso   1.00
C68    C     0.31510   0.67610   0.50130   0.01267  Uiso   1.00
C69    C     0.41570   0.64430   0.44130   0.01267  Uiso   1.00
C70    C     0.96620   0.62490   0.61430   0.01267  Uiso   1.00
C71    C     0.19410   0.61340   0.72080   0.01267  Uiso   1.00
C72    C     0.28940   0.63230   0.72730   0.01267  Uiso   1.00
C73    C     0.36230   0.73550   0.70730   0.01267  Uiso   1.00
C74    C     0.44850   0.68590   0.73090   0.01267  Uiso   1.00
C75    C     0.45510   0.60940   0.75280   0.01267  Uiso   1.00
C76    C     0.37560   0.58260   0.75100   0.01267  Uiso   1.00
C77    C     0.52790   0.65630   0.44690   0.01267  Uiso   1.00
C78    C     0.51410   0.74240   0.43920   0.01267  Uiso   1.00
C79    C     0.63140   0.60420   0.38540   0.01267  Uiso   1.00
C80    C     0.51880   0.62720   0.53100   0.01267  Uiso   1.00
C81    C     0.30850   0.36870   0.38410   0.01267  Uiso   1.00
C82    C     0.34910   0.42870   0.35230   0.01267  Uiso   1.00
C83    C     0.39110   0.32220   0.50500   0.01267  Uiso   1.00
C84    C     0.49250   0.32390   0.49870   0.01267  Uiso   1.00
C85    C     0.50130   0.35570   0.55870   0.01267  Uiso   1.00
C86    C     0.20540   0.37510   0.38570   0.01267  Uiso   1.00
C87    C     0.52830   0.38660   0.27920   0.01267  Uiso   1.00
C88    C     0.64900   0.36770   0.27270   0.01267  Uiso   1.00
C89    C     0.80510   0.26450   0.29270   0.01267  Uiso   1.00
C90    C     0.86530   0.31410   0.26910   0.01267  Uiso   1.00
C91    C     0.81730   0.39060   0.24720   0.01267  Uiso   1.00
C92    C     0.70920   0.41740   0.24900   0.01267  Uiso   1.00
C93    C     0.63110   0.34370   0.55310   0.01267  Uiso   1.00
C94    C     0.69570   0.25760   0.56080   0.01267  Uiso   1.00
C95    C     0.62100   0.39580   0.61460   0.01267  Uiso   1.00
C96    C     0.67700   0.37280   0.46900   0.01267  Uiso   1.00
C97    C     0.30740   0.38410   0.63130   0.01267  Uiso   1.00
C98    C     0.29860   0.35230   0.57130   0.01267  Uiso   1.00
C99    C     0.10390   0.50500   0.67780   0.01267  Uiso   1.00
C100   C     0.00880   0.49870   0.67610   0.01267  Uiso   1.00
C101   C     0.94000   0.55870   0.64430   0.01267  Uiso   1.00
C102   C     0.40890   0.38570   0.62490   0.01267  Uiso   1.00
C103   C     0.19250   0.27920   0.61340   0.01267  Uiso   1.00
C104   C     0.07830   0.27270   0.63230   0.01267  Uiso   1.00
C105   C     0.90220   0.29270   0.73550   0.01267  Uiso   1.00
C106   C     0.86560   0.26910   0.68590   0.01267  Uiso   1.00
C107   C     0.93550   0.24720   0.60940   0.01267  Uiso   1.00
C108   C     0.04180   0.24900   0.58260   0.01267  Uiso   1.00
C109   C     0.81580   0.55310   0.65630   0.01267  Uiso   1.00
C110   C     0.74350   0.56080   0.74240   0.01267  Uiso   1.00
C111   C     0.76440   0.61460   0.60420   0.01267  Uiso   1.00
C112   C     0.85400   0.46900   0.62720   0.01267  Uiso   1.00
C113   C     0.32280   0.61590   0.36870   0.01267  Uiso   1.00
C114   C     0.22220   0.64770   0.42870   0.01267  Uiso   1.00
C115   C     0.28670   0.49500   0.32220   0.01267  Uiso   1.00
C116   C     0.18360   0.50130   0.32390   0.01267  Uiso   1.00
C117   C     0.14300   0.44130   0.35570   0.01267  Uiso   1.00
C118   C     0.41950   0.61430   0.37510   0.01267  Uiso   1.00
C119   C     0.08510   0.72080   0.38660   0.01267  Uiso   1.00
C120   C     0.98330   0.72730   0.36770   0.01267  Uiso   1.00
C121   C     0.93040   0.70730   0.26450   0.01267  Uiso   1.00
C122   C     0.82060   0.73090   0.31410   0.01267  Uiso   1.00
C123   C     0.79210   0.75280   0.39060   0.01267  Uiso   1.00
C124   C     0.87340   0.75100   0.41740   0.01267  Uiso   1.00
C125   C     0.02520   0.44690   0.34370   0.01267  Uiso   1.00
C126   C     0.04670   0.43920   0.25760   0.01267  Uiso   1.00
C127   C     0.98320   0.38540   0.39580   0.01267  Uiso   1.00
C128   C     0.95020   0.53100   0.37280   0.01267  Uiso   1.00
S1     S     0.87155   0.07306   0.21704   0.01267  Uiso   1.00
S2     S     0.16165   0.92694   0.78296   0.01267  Uiso   1.00
S3     S     0.91141   0.21704   0.92694   0.01267  Uiso   1.00
S4     S     0.05539   0.78296   0.07306   0.01267  Uiso   1.00
S5     S     0.08835   0.71704   0.57306   0.01267  Uiso   1.00
S6     S     0.37845   0.28296   0.42694   0.01267  Uiso   1.00
S7     S     0.19461   0.42694   0.71704   0.01267  Uiso   1.00
S8     S     0.33859   0.57306   0.28296   0.01267  Uiso   1.00
N1     N     0.55300   0.20550   0.20870   0.01267  Uiso   1.00
N2     N     0.96720   0.79450   0.79130   0.01267  Uiso   1.00
N3     N     0.23830   0.20870   0.79450   0.01267  Uiso   1.00
N4     N     0.24150   0.79130   0.20550   0.01267  Uiso   1.00
N5     N     0.28280   0.70870   0.70550   0.01267  Uiso   1.00
N6     N     0.69700   0.29130   0.29450   0.01267  Uiso   1.00
N7     N     0.00850   0.29450   0.70870   0.01267  Uiso   1.00
N8     N     0.01170   0.70550   0.29130   0.01267  Uiso   1.00
O1     O     0.79570   0.15040   0.08380   0.01267  Uiso   1.00
O2     O     0.02990   0.84960   0.91620   0.01267  Uiso   1.00
O3     O     0.12050   0.08380   0.84960   0.01267  Uiso   1.00
O4     O     0.05390   0.91620   0.15040   0.01267  Uiso   1.00
O5     O     0.22010   0.58380   0.65040   0.01267  Uiso   1.00
O6     O     0.45430   0.41620   0.34960   0.01267  Uiso   1.00
O7     O     0.19610   0.34960   0.58380   0.01267  Uiso   1.00
O8     O     0.12950   0.65040   0.41620   0.01267  Uiso   1.00
Sb1    Sb    0.51000   0.36500   0.86500   0.01267  Uiso   1.00
F1     F     0.40710   0.40070   0.81430   0.01267  Uiso   1.00
F2     F     0.43360   0.30220   0.93400   0.01267  Uiso   1.00
F3     F     0.62790   0.31430   0.90070   0.01267  Uiso   1.00
F4     F     0.58020   0.43400   0.80220   0.01267  Uiso   1.00
F5     F     0.43060   0.44440   0.94440   0.01267  Uiso   1.00
F6     F     0.59060   0.28440   0.78440   0.01267  Uiso   1.00
Sb2    Sb    0.74000   0.63500   0.13500   0.01267  Uiso   1.00
F7     F     0.62210   0.59930   0.18570   0.01267  Uiso   1.00
F8     F     0.66980   0.69780   0.06600   0.01267  Uiso   1.00
F9     F     0.84290   0.68570   0.09930   0.01267  Uiso   1.00
F10    F     0.81640   0.56600   0.19780   0.01267  Uiso   1.00
F11    F     0.81940   0.55560   0.05560   0.01267  Uiso   1.00
F12    F     0.65940   0.71560   0.21560   0.01267  Uiso   1.00
Sb3    Sb    0.62500   0.86500   0.63500   0.01267  Uiso   1.00
F13    F     0.77860   0.81430   0.59930   0.01267  Uiso   1.00
F14    F     0.63240   0.93400   0.69780   0.01267  Uiso   1.00
F15    F     0.47140   0.90070   0.68570   0.01267  Uiso   1.00
F16    F     0.61760   0.80220   0.56600   0.01267  Uiso   1.00
F17    F     0.62500   0.94440   0.55560   0.01267  Uiso   1.00
F18    F     0.62500   0.78440   0.71560   0.01267  Uiso   1.00
Sb4    Sb    0.12500   0.13500   0.36500   0.01267  Uiso   1.00
F19    F     0.19220   0.18570   0.40070   0.01267  Uiso   1.00
F20    F     0.26420   0.06600   0.30220   0.01267  Uiso   1.00
F21    F     0.05780   0.09930   0.31430   0.01267  Uiso   1.00
F22    F     0.98580   0.19780   0.43400   0.01267  Uiso   1.00
F23    F     0.12500   0.05560   0.44440   0.01267  Uiso   1.00
F24    F     0.12500   0.21560   0.28440   0.01267  Uiso   1.00
