data_PEMRIK_clean
_audit_creation_date              2014-07-02
_audit_creation_method            'Materials Studio'
_symmetry_space_group_name_H-M    'P1'
_symmetry_Int_Tables_number       1
_symmetry_cell_setting            triclinic
loop_
_symmetry_equiv_pos_as_xyz
  x,y,z
_cell_length_a                    13.7633
_cell_length_b                    16.6027
_cell_length_c                    19.2303
_cell_angle_alpha                 115.5740
_cell_angle_beta                  103.7720
_cell_angle_gamma                 90.0000
loop_
_atom_site_label
_atom_site_type_symbol
_atom_site_fract_x
_atom_site_fract_y
_atom_site_fract_z
_atom_site_U_iso_or_equiv
_atom_site_adp_type
_atom_site_occupancy
Zn1    Zn    0.75588   0.08005   0.65112   0.01267  Uiso   1.00
Zn2    Zn    0.81630   0.15855   0.82754   0.01267  Uiso   1.00
Zn3    Zn    0.25588   0.57107   0.65112   0.01267  Uiso   1.00
Zn4    Zn    0.31630   0.66899   0.82754   0.01267  Uiso   1.00
H1     H     0.05800   0.00300   0.84340   0.01267  Uiso   1.00
H2     H     0.15590   0.88960   0.84200   0.01267  Uiso   1.00
H3     H     0.06880   0.76780   0.60180   0.01267  Uiso   1.00
H4     H     0.97430   0.88390   0.60300   0.01267  Uiso   1.00
H5     H     0.50940   0.47450   0.87800   0.01267  Uiso   1.00
H6     H     0.41640   0.35110   0.63720   0.01267  Uiso   1.00
H7     H     0.51400   0.23700   0.63540   0.01267  Uiso   1.00
H8     H     0.60850   0.36170   0.87600   0.01267  Uiso   1.00
H9     H     0.87940   0.05630   0.91840   0.01267  Uiso   1.00
H10    H     0.97730   0.07660   0.04120   0.01267  Uiso   1.00
H11    H     0.96410   0.34190   0.12060   0.01267  Uiso   1.00
H12    H     0.86860   0.31320   0.99520   0.01267  Uiso   1.00
H13    H     0.20560   0.18480   0.28380   0.01267  Uiso   1.00
H14    H     0.02960   0.42420   0.37400   0.01267  Uiso   1.00
H15    H     0.08450   0.52900   0.50640   0.01267  Uiso   1.00
H16    H     0.33840   0.42580   0.53340   0.01267  Uiso   1.00
H17    H     0.29200   0.31950   0.40100   0.01267  Uiso   1.00
H18    H     0.55800   0.84040   0.84340   0.01267  Uiso   1.00
H19    H     0.65590   0.95240   0.84200   0.01267  Uiso   1.00
H20    H     0.56880   0.83400   0.60180   0.01267  Uiso   1.00
H21    H     0.47430   0.71910   0.60300   0.01267  Uiso   1.00
H22    H     0.00940   0.40350   0.87800   0.01267  Uiso   1.00
H23    H     0.91640   0.28610   0.63720   0.01267  Uiso   1.00
H24    H     0.01400   0.39840   0.63540   0.01267  Uiso   1.00
H25    H     0.10850   0.51430   0.87600   0.01267  Uiso   1.00
H26    H     0.37940   0.86210   0.91840   0.01267  Uiso   1.00
H27    H     0.47730   0.96460   0.04120   0.01267  Uiso   1.00
H28    H     0.46410   0.77870   0.12060   0.01267  Uiso   1.00
H29    H     0.36860   0.68200   0.99520   0.01267  Uiso   1.00
H30    H     0.70560   0.09900   0.28380   0.01267  Uiso   1.00
H31    H     0.52960   0.94980   0.37400   0.01267  Uiso   1.00
H32    H     0.58450   0.97740   0.50640   0.01267  Uiso   1.00
H33    H     0.83840   0.10760   0.53340   0.01267  Uiso   1.00
H34    H     0.79200   0.08150   0.40100   0.01267  Uiso   1.00
C1     C     0.17860   0.73962   0.72228   0.01267  Uiso   1.00
C2     C     0.93130   0.02168   0.72500   0.01267  Uiso   1.00
C3     C     0.00310   0.95327   0.72320   0.01267  Uiso   1.00
C4     C     0.05950   0.95501   0.79432   0.01267  Uiso   1.00
C5     C     0.11740   0.88734   0.79360   0.01267  Uiso   1.00
C6     C     0.11935   0.81544   0.72156   0.01267  Uiso   1.00
C7     C     0.06620   0.81518   0.65086   0.01267  Uiso   1.00
C8     C     0.00920   0.88414   0.65158   0.01267  Uiso   1.00
C9     C     0.39380   0.50069   0.75784   0.01267  Uiso   1.00
C10    C     0.45446   0.42555   0.75770   0.01267  Uiso   1.00
C11    C     0.51130   0.42706   0.82892   0.01267  Uiso   1.00
C12    C     0.45560   0.35352   0.68556   0.01267  Uiso   1.00
C13    C     0.64233   0.21853   0.75318   0.01267  Uiso   1.00
C14    C     0.57230   0.28804   0.75530   0.01267  Uiso   1.00
C15    C     0.51390   0.28544   0.68446   0.01267  Uiso   1.00
C16    C     0.56980   0.35961   0.82770   0.01267  Uiso   1.00
C17    C     0.89900   0.11509   0.95956   0.01267  Uiso   1.00
C18    C     0.95680   0.12649   0.03292   0.01267  Uiso   1.00
C19    C     0.98400   0.21244   0.09398   0.01267  Uiso   1.00
C20    C     0.94930   0.28271   0.07976   0.01267  Uiso   1.00
C21    C     0.89260   0.26482   0.00458   0.01267  Uiso   1.00
C22    C     0.12340   0.29158   0.29086   0.01267  Uiso   1.00
C23    C     0.15660   0.20828   0.25696   0.01267  Uiso   1.00
C24    C     0.15450   0.35904   0.37366   0.01267  Uiso   1.00
C25    C     0.09280   0.42296   0.40562   0.01267  Uiso   1.00
C26    C     0.12600   0.48484   0.48486   0.01267  Uiso   1.00
C27    C     0.27500   0.42482   0.50084   0.01267  Uiso   1.00
C28    C     0.24770   0.36097   0.42174   0.01267  Uiso   1.00
C29    C     0.67860   0.98266   0.72228   0.01267  Uiso   1.00
C30    C     0.43130   0.70332   0.72500   0.01267  Uiso   1.00
C31    C     0.50310   0.76993   0.72320   0.01267  Uiso   1.00
C32    C     0.55950   0.83931   0.79432   0.01267  Uiso   1.00
C33    C     0.61740   0.90626   0.79360   0.01267  Uiso   1.00
C34    C     0.61935   0.90612   0.72156   0.01267  Uiso   1.00
C35    C     0.56620   0.83568   0.65086   0.01267  Uiso   1.00
C36    C     0.50920   0.76744   0.65158   0.01267  Uiso   1.00
C37    C     0.89380   0.25715   0.75784   0.01267  Uiso   1.00
C38    C     0.95446   0.33215   0.75770   0.01267  Uiso   1.00
C39    C     0.01130   0.40186   0.82892   0.01267  Uiso   1.00
C40    C     0.95560   0.33204   0.68556   0.01267  Uiso   1.00
C41    C     0.14233   0.53465   0.75318   0.01267  Uiso   1.00
C42    C     0.07230   0.46726   0.75530   0.01267  Uiso   1.00
C43    C     0.01390   0.39902   0.68446   0.01267  Uiso   1.00
C44    C     0.06980   0.46809   0.82770   0.01267  Uiso   1.00
C45    C     0.39900   0.84447   0.95956   0.01267  Uiso   1.00
C46    C     0.45680   0.90643   0.03292   0.01267  Uiso   1.00
C47    C     0.48400   0.88154   0.09398   0.01267  Uiso   1.00
C48    C     0.44930   0.79705   0.07976   0.01267  Uiso   1.00
C49    C     0.39260   0.73976   0.00458   0.01267  Uiso   1.00
C50    C     0.62340   0.99928   0.29086   0.01267  Uiso   1.00
C51    C     0.65660   0.04868   0.25696   0.01267  Uiso   1.00
C52    C     0.65450   0.01462   0.37366   0.01267  Uiso   1.00
C53    C     0.59280   0.98266   0.40562   0.01267  Uiso   1.00
C54    C     0.62600   0.00002   0.48486   0.01267  Uiso   1.00
C55    C     0.77500   0.07602   0.50084   0.01267  Uiso   1.00
C56    C     0.74770   0.06077   0.42174   0.01267  Uiso   1.00
N1     N     0.86972   0.18306   0.94440   0.01267  Uiso   1.00
N2     N     0.21426   0.48495   0.53238   0.01267  Uiso   1.00
N3     N     0.04760   0.22715   0.16906   0.01267  Uiso   1.00
N4     N     0.05469   0.30348   0.23558   0.01267  Uiso   1.00
N5     N     0.10700   0.16643   0.17910   0.01267  Uiso   1.00
N6     N     0.36972   0.76134   0.94440   0.01267  Uiso   1.00
N7     N     0.71426   0.04743   0.53238   0.01267  Uiso   1.00
N8     N     0.54760   0.94191   0.16906   0.01267  Uiso   1.00
N9     N     0.55469   0.93210   0.23558   0.01267  Uiso   1.00
N10    N     0.60700   0.01267   0.17910   0.01267  Uiso   1.00
O1     O     0.17603   0.67504   0.65576   0.01267  Uiso   1.00
O2     O     0.22581   0.74657   0.78880   0.01267  Uiso   1.00
O3     O     0.92587   0.07857   0.79224   0.01267  Uiso   1.00
O4     O     0.87967   0.01580   0.65958   0.01267  Uiso   1.00
O5     O     0.39650   0.56481   0.82432   0.01267  Uiso   1.00
O6     O     0.34522   0.49375   0.69146   0.01267  Uiso   1.00
O7     O     0.69608   0.22662   0.81876   0.01267  Uiso   1.00
O8     O     0.64399   0.15893   0.68538   0.01267  Uiso   1.00
O9     O     0.67603   0.98072   0.65576   0.01267  Uiso   1.00
O10    O     0.72581   0.04223   0.78880   0.01267  Uiso   1.00
O11    O     0.42587   0.71367   0.79224   0.01267  Uiso   1.00
O12    O     0.37967   0.64378   0.65958   0.01267  Uiso   1.00
O13    O     0.89650   0.25951   0.82432   0.01267  Uiso   1.00
O14    O     0.84522   0.19771   0.69146   0.01267  Uiso   1.00
O15    O     0.19608   0.59214   0.81876   0.01267  Uiso   1.00
O16    O     0.14399   0.52645   0.68538   0.01267  Uiso   1.00
Zn5    Zn    0.74412   0.42893   0.34888   0.01267  Uiso   1.00
Zn6    Zn    0.68370   0.33101   0.17246   0.01267  Uiso   1.00
Zn7    Zn    0.24412   0.91995   0.34888   0.01267  Uiso   1.00
Zn8    Zn    0.18370   0.84145   0.17246   0.01267  Uiso   1.00
H35    H     0.44200   0.15960   0.15660   0.01267  Uiso   1.00
H36    H     0.34410   0.04760   0.15800   0.01267  Uiso   1.00
H37    H     0.43120   0.16600   0.39820   0.01267  Uiso   1.00
H38    H     0.52570   0.28090   0.39700   0.01267  Uiso   1.00
H39    H     0.99060   0.59650   0.12200   0.01267  Uiso   1.00
H40    H     0.08360   0.71390   0.36280   0.01267  Uiso   1.00
H41    H     0.98600   0.60160   0.36460   0.01267  Uiso   1.00
H42    H     0.89150   0.48570   0.12400   0.01267  Uiso   1.00
H43    H     0.62060   0.13790   0.08160   0.01267  Uiso   1.00
H44    H     0.52270   0.03540   0.95880   0.01267  Uiso   1.00
H45    H     0.53590   0.22130   0.87940   0.01267  Uiso   1.00
H46    H     0.63140   0.31800   0.00480   0.01267  Uiso   1.00
H47    H     0.29440   0.90100   0.71620   0.01267  Uiso   1.00
H48    H     0.47040   0.05020   0.62600   0.01267  Uiso   1.00
H49    H     0.41550   0.02260   0.49360   0.01267  Uiso   1.00
H50    H     0.16160   0.89240   0.46660   0.01267  Uiso   1.00
H51    H     0.20800   0.91850   0.59900   0.01267  Uiso   1.00
H52    H     0.94200   0.99700   0.15660   0.01267  Uiso   1.00
H53    H     0.84410   0.11040   0.15800   0.01267  Uiso   1.00
H54    H     0.93120   0.23220   0.39820   0.01267  Uiso   1.00
H55    H     0.02570   0.11610   0.39700   0.01267  Uiso   1.00
H56    H     0.49060   0.52550   0.12200   0.01267  Uiso   1.00
H57    H     0.58360   0.64890   0.36280   0.01267  Uiso   1.00
H58    H     0.48600   0.76300   0.36460   0.01267  Uiso   1.00
H59    H     0.39150   0.63830   0.12400   0.01267  Uiso   1.00
H60    H     0.12060   0.94370   0.08160   0.01267  Uiso   1.00
H61    H     0.02270   0.92340   0.95880   0.01267  Uiso   1.00
H62    H     0.03590   0.65810   0.87940   0.01267  Uiso   1.00
H63    H     0.13140   0.68680   0.00480   0.01267  Uiso   1.00
H64    H     0.79440   0.81520   0.71620   0.01267  Uiso   1.00
H65    H     0.97040   0.57580   0.62600   0.01267  Uiso   1.00
H66    H     0.91550   0.47100   0.49360   0.01267  Uiso   1.00
H67    H     0.66160   0.57420   0.46660   0.01267  Uiso   1.00
H68    H     0.70800   0.68050   0.59900   0.01267  Uiso   1.00
C57    C     0.32140   0.01734   0.27772   0.01267  Uiso   1.00
C58    C     0.56870   0.29668   0.27500   0.01267  Uiso   1.00
C59    C     0.49690   0.23007   0.27680   0.01267  Uiso   1.00
C60    C     0.44050   0.16069   0.20568   0.01267  Uiso   1.00
C61    C     0.38260   0.09374   0.20640   0.01267  Uiso   1.00
C62    C     0.38065   0.09388   0.27844   0.01267  Uiso   1.00
C63    C     0.43380   0.16432   0.34914   0.01267  Uiso   1.00
C64    C     0.49080   0.23256   0.34842   0.01267  Uiso   1.00
C65    C     0.10620   0.74285   0.24216   0.01267  Uiso   1.00
C66    C     0.04554   0.66785   0.24230   0.01267  Uiso   1.00
C67    C     0.98870   0.59814   0.17108   0.01267  Uiso   1.00
C68    C     0.04440   0.66796   0.31444   0.01267  Uiso   1.00
C69    C     0.85767   0.46535   0.24682   0.01267  Uiso   1.00
C70    C     0.92770   0.53274   0.24470   0.01267  Uiso   1.00
C71    C     0.98610   0.60098   0.31554   0.01267  Uiso   1.00
C72    C     0.93020   0.53191   0.17230   0.01267  Uiso   1.00
C73    C     0.60100   0.15553   0.04044   0.01267  Uiso   1.00
C74    C     0.54320   0.09357   0.96708   0.01267  Uiso   1.00
C75    C     0.51600   0.11846   0.90602   0.01267  Uiso   1.00
C76    C     0.55070   0.20295   0.92024   0.01267  Uiso   1.00
C77    C     0.60740   0.26024   0.99542   0.01267  Uiso   1.00
C78    C     0.37660   0.00072   0.70914   0.01267  Uiso   1.00
C79    C     0.34340   0.95132   0.74304   0.01267  Uiso   1.00
C80    C     0.34550   0.98538   0.62634   0.01267  Uiso   1.00
C81    C     0.40720   0.01734   0.59438   0.01267  Uiso   1.00
C82    C     0.37400   0.99998   0.51514   0.01267  Uiso   1.00
C83    C     0.22500   0.92398   0.49916   0.01267  Uiso   1.00
C84    C     0.25230   0.93923   0.57826   0.01267  Uiso   1.00
C85    C     0.82140   0.26038   0.27772   0.01267  Uiso   1.00
C86    C     0.06870   0.97832   0.27500   0.01267  Uiso   1.00
C87    C     0.99690   0.04673   0.27680   0.01267  Uiso   1.00
C88    C     0.94050   0.04499   0.20568   0.01267  Uiso   1.00
C89    C     0.88260   0.11266   0.20640   0.01267  Uiso   1.00
C90    C     0.88065   0.18456   0.27844   0.01267  Uiso   1.00
C91    C     0.93380   0.18482   0.34914   0.01267  Uiso   1.00
C92    C     0.99080   0.11586   0.34842   0.01267  Uiso   1.00
C93    C     0.60620   0.49931   0.24216   0.01267  Uiso   1.00
C94    C     0.54554   0.57445   0.24230   0.01267  Uiso   1.00
C95    C     0.48870   0.57294   0.17108   0.01267  Uiso   1.00
C96    C     0.54440   0.64648   0.31444   0.01267  Uiso   1.00
C97    C     0.35767   0.78147   0.24682   0.01267  Uiso   1.00
C98    C     0.42770   0.71196   0.24470   0.01267  Uiso   1.00
C99    C     0.48610   0.71456   0.31554   0.01267  Uiso   1.00
C100   C     0.43020   0.64039   0.17230   0.01267  Uiso   1.00
C101   C     0.10100   0.88491   0.04044   0.01267  Uiso   1.00
C102   C     0.04320   0.87351   0.96708   0.01267  Uiso   1.00
C103   C     0.01600   0.78756   0.90602   0.01267  Uiso   1.00
C104   C     0.05070   0.71729   0.92024   0.01267  Uiso   1.00
C105   C     0.10740   0.73518   0.99542   0.01267  Uiso   1.00
C106   C     0.87660   0.70842   0.70914   0.01267  Uiso   1.00
C107   C     0.84340   0.79172   0.74304   0.01267  Uiso   1.00
C108   C     0.84550   0.64096   0.62634   0.01267  Uiso   1.00
C109   C     0.90720   0.57704   0.59438   0.01267  Uiso   1.00
C110   C     0.87400   0.51516   0.51514   0.01267  Uiso   1.00
C111   C     0.72500   0.57518   0.49916   0.01267  Uiso   1.00
C112   C     0.75230   0.63903   0.57826   0.01267  Uiso   1.00
N11    N     0.63028   0.23866   0.05560   0.01267  Uiso   1.00
N12    N     0.28574   0.95257   0.46762   0.01267  Uiso   1.00
N13    N     0.45240   0.05809   0.83094   0.01267  Uiso   1.00
N14    N     0.44531   0.06790   0.76442   0.01267  Uiso   1.00
N15    N     0.39300   0.98733   0.82090   0.01267  Uiso   1.00
N16    N     0.13028   0.81694   0.05560   0.01267  Uiso   1.00
N17    N     0.78574   0.51505   0.46762   0.01267  Uiso   1.00
N18    N     0.95240   0.77285   0.83094   0.01267  Uiso   1.00
N19    N     0.94531   0.69652   0.76442   0.01267  Uiso   1.00
N20    N     0.89300   0.83357   0.82090   0.01267  Uiso   1.00
O17    O     0.32397   0.01928   0.34424   0.01267  Uiso   1.00
O18    O     0.27419   0.95777   0.21120   0.01267  Uiso   1.00
O19    O     0.57413   0.28633   0.20776   0.01267  Uiso   1.00
O20    O     0.62033   0.35622   0.34042   0.01267  Uiso   1.00
O21    O     0.10350   0.74049   0.17568   0.01267  Uiso   1.00
O22    O     0.15478   0.80229   0.30854   0.01267  Uiso   1.00
O23    O     0.80392   0.40786   0.18124   0.01267  Uiso   1.00
O24    O     0.85601   0.47355   0.31462   0.01267  Uiso   1.00
O25    O     0.82397   0.32496   0.34424   0.01267  Uiso   1.00
O26    O     0.77419   0.25343   0.21120   0.01267  Uiso   1.00
O27    O     0.07413   0.92143   0.20776   0.01267  Uiso   1.00
O28    O     0.12033   0.98420   0.34042   0.01267  Uiso   1.00
O29    O     0.60350   0.43519   0.17568   0.01267  Uiso   1.00
O30    O     0.65478   0.50625   0.30854   0.01267  Uiso   1.00
O31    O     0.30392   0.77338   0.18124   0.01267  Uiso   1.00
O32    O     0.35601   0.84107   0.31462   0.01267  Uiso   1.00
