data_PENNUT_clean
_audit_creation_date              2014-07-02
_audit_creation_method            'Materials Studio'
_symmetry_space_group_name_H-M    'P1'
_symmetry_Int_Tables_number       1
_symmetry_cell_setting            triclinic
loop_
_symmetry_equiv_pos_as_xyz
  x,y,z
_cell_length_a                    11.7270
_cell_length_b                    13.4510
_cell_length_c                    15.5650
_cell_angle_alpha                 113.3900
_cell_angle_beta                  98.7100
_cell_angle_gamma                 102.9700
loop_
_atom_site_label
_atom_site_type_symbol
_atom_site_fract_x
_atom_site_fract_y
_atom_site_fract_z
_atom_site_U_iso_or_equiv
_atom_site_adp_type
_atom_site_occupancy
Zn1    Zn    0.34864   0.34572   0.65291   0.01267  Uiso   1.00
Zn2    Zn    0.48042   0.80835   0.30940   0.01267  Uiso   1.00
Zn3    Zn    0.07657   0.42030   0.68807   0.01267  Uiso   1.00
Zn4    Zn    0.65136   0.65428   0.34709   0.01267  Uiso   1.00
Zn5    Zn    0.51958   0.19165   0.69060   0.01267  Uiso   1.00
Zn6    Zn    0.92343   0.57970   0.31193   0.01267  Uiso   1.00
H1     H     0.10320   0.00570   0.37210   0.01267  Uiso   1.00
H2     H     0.90020   0.84890   0.29870   0.01267  Uiso   1.00
H3     H     0.55120   0.64930   0.95330   0.01267  Uiso   1.00
H4     H     0.66260   0.72990   0.13100   0.01267  Uiso   1.00
H5     H     0.18910   0.72660   0.63750   0.01267  Uiso   1.00
H6     H     0.26740   0.81320   0.53270   0.01267  Uiso   1.00
H7     H     0.01060   0.45020   0.41200   0.01267  Uiso   1.00
H8     H     0.16230   0.37450   0.42920   0.01267  Uiso   1.00
H9     H     0.12710   0.53220   0.21940   0.01267  Uiso   1.00
H10    H     0.28500   0.46120   0.23510   0.01267  Uiso   1.00
H11    H     0.34660   0.34430   0.40310   0.01267  Uiso   1.00
H12    H     0.42650   0.43200   0.37630   0.01267  Uiso   1.00
H13    H     0.34960   0.29530   0.21190   0.01267  Uiso   1.00
H14    H     0.43570   0.26350   0.27660   0.01267  Uiso   1.00
H15    H     0.19870   0.17490   0.26650   0.01267  Uiso   1.00
H16    H     0.22220   0.13090   0.16340   0.01267  Uiso   1.00
H17    H     0.32590   0.99380   0.11840   0.01267  Uiso   1.00
H18    H     0.32030   0.13270   0.39260   0.01267  Uiso   1.00
H19    H     0.40100   0.00190   0.41690   0.01267  Uiso   1.00
H20    H     0.40310   0.86430   0.14550   0.01267  Uiso   1.00
H21    H     0.89680   0.99430   0.62790   0.01267  Uiso   1.00
H22    H     0.09980   0.15110   0.70130   0.01267  Uiso   1.00
H23    H     0.44880   0.35070   0.04670   0.01267  Uiso   1.00
H24    H     0.33740   0.27010   0.86900   0.01267  Uiso   1.00
H25    H     0.81090   0.27340   0.36250   0.01267  Uiso   1.00
H26    H     0.73260   0.18680   0.46730   0.01267  Uiso   1.00
H27    H     0.98940   0.54980   0.58800   0.01267  Uiso   1.00
H28    H     0.83770   0.62550   0.57080   0.01267  Uiso   1.00
H29    H     0.87290   0.46780   0.78060   0.01267  Uiso   1.00
H30    H     0.71500   0.53880   0.76490   0.01267  Uiso   1.00
H31    H     0.65340   0.65570   0.59690   0.01267  Uiso   1.00
H32    H     0.57350   0.56800   0.62370   0.01267  Uiso   1.00
H33    H     0.65040   0.70470   0.78810   0.01267  Uiso   1.00
H34    H     0.56430   0.73650   0.72340   0.01267  Uiso   1.00
H35    H     0.80130   0.82510   0.73350   0.01267  Uiso   1.00
H36    H     0.77780   0.86910   0.83660   0.01267  Uiso   1.00
H37    H     0.67410   0.00620   0.88160   0.01267  Uiso   1.00
H38    H     0.67970   0.86730   0.60740   0.01267  Uiso   1.00
H39    H     0.59900   0.99810   0.58310   0.01267  Uiso   1.00
H40    H     0.59690   0.13570   0.85450   0.01267  Uiso   1.00
C1     C     0.09370   0.22080   0.51840   0.01267  Uiso   1.00
C2     C     0.01350   0.10380   0.44990   0.01267  Uiso   1.00
C3     C     0.03040   0.01180   0.38690   0.01267  Uiso   1.00
C4     C     0.91630   0.92330   0.34570   0.01267  Uiso   1.00
C5     C     0.83750   0.96890   0.38810   0.01267  Uiso   1.00
C6     C     0.70820   0.92200   0.38280   0.01267  Uiso   1.00
C7     C     0.55960   0.41990   0.83550   0.01267  Uiso   1.00
C8     C     0.61110   0.51270   0.93560   0.01267  Uiso   1.00
C9     C     0.59480   0.61500   0.98150   0.01267  Uiso   1.00
C10    C     0.65700   0.66010   0.08120   0.01267  Uiso   1.00
C11    C     0.70680   0.58120   0.08970   0.01267  Uiso   1.00
C12    C     0.78220   0.57860   0.17180   0.01267  Uiso   1.00
C13    C     0.28420   0.54700   0.63990   0.01267  Uiso   1.00
C14    C     0.30440   0.63200   0.60220   0.01267  Uiso   1.00
C15    C     0.24670   0.70900   0.60400   0.01267  Uiso   1.00
C16    C     0.29070   0.75770   0.54540   0.01267  Uiso   1.00
C17    C     0.37410   0.70750   0.51110   0.01267  Uiso   1.00
C18    C     0.44600   0.72290   0.44520   0.01267  Uiso   1.00
C19    C     0.06700   0.45360   0.37640   0.01267  Uiso   1.00
C20    C     0.15850   0.40790   0.38730   0.01267  Uiso   1.00
C21    C     0.24580   0.41120   0.33600   0.01267  Uiso   1.00
C22    C     0.13520   0.50240   0.26380   0.01267  Uiso   1.00
C23    C     0.23060   0.45860   0.27250   0.01267  Uiso   1.00
C24    C     0.35170   0.36920   0.35290   0.01267  Uiso   1.00
C25    C     0.35670   0.27390   0.26460   0.01267  Uiso   1.00
C26    C     0.26050   0.16190   0.23230   0.01267  Uiso   1.00
C27    C     0.30990   0.07610   0.25040   0.01267  Uiso   1.00
C28    C     0.33860   0.99670   0.17990   0.01267  Uiso   1.00
C29    C     0.33600   0.07790   0.34070   0.01267  Uiso   1.00
C30    C     0.38540   0.99890   0.35540   0.01267  Uiso   1.00
C31    C     0.38660   0.91930   0.19690   0.01267  Uiso   1.00
C32    C     0.90630   0.77920   0.48160   0.01267  Uiso   1.00
C33    C     0.98650   0.89620   0.55010   0.01267  Uiso   1.00
C34    C     0.96960   0.98820   0.61310   0.01267  Uiso   1.00
C35    C     0.08370   0.07670   0.65430   0.01267  Uiso   1.00
C36    C     0.16250   0.03110   0.61190   0.01267  Uiso   1.00
C37    C     0.29180   0.07800   0.61720   0.01267  Uiso   1.00
C38    C     0.44040   0.58010   0.16450   0.01267  Uiso   1.00
C39    C     0.38890   0.48730   0.06440   0.01267  Uiso   1.00
C40    C     0.40520   0.38500   0.01850   0.01267  Uiso   1.00
C41    C     0.34300   0.33990   0.91880   0.01267  Uiso   1.00
C42    C     0.29320   0.41880   0.91030   0.01267  Uiso   1.00
C43    C     0.21780   0.42140   0.82820   0.01267  Uiso   1.00
C44    C     0.71580   0.45300   0.36010   0.01267  Uiso   1.00
C45    C     0.69560   0.36800   0.39780   0.01267  Uiso   1.00
C46    C     0.75330   0.29100   0.39600   0.01267  Uiso   1.00
C47    C     0.70930   0.24230   0.45460   0.01267  Uiso   1.00
C48    C     0.62590   0.29250   0.48890   0.01267  Uiso   1.00
C49    C     0.55400   0.27710   0.55480   0.01267  Uiso   1.00
C50    C     0.93300   0.54640   0.62360   0.01267  Uiso   1.00
C51    C     0.84150   0.59210   0.61270   0.01267  Uiso   1.00
C52    C     0.75420   0.58880   0.66400   0.01267  Uiso   1.00
C53    C     0.86480   0.49760   0.73620   0.01267  Uiso   1.00
C54    C     0.76940   0.54140   0.72750   0.01267  Uiso   1.00
C55    C     0.64830   0.63080   0.64710   0.01267  Uiso   1.00
C56    C     0.64330   0.72610   0.73540   0.01267  Uiso   1.00
C57    C     0.73950   0.83810   0.76770   0.01267  Uiso   1.00
C58    C     0.69010   0.92390   0.74960   0.01267  Uiso   1.00
C59    C     0.66140   0.00330   0.82010   0.01267  Uiso   1.00
C60    C     0.66400   0.92210   0.65930   0.01267  Uiso   1.00
C61    C     0.61460   0.00110   0.64460   0.01267  Uiso   1.00
C62    C     0.61340   0.08070   0.80310   0.01267  Uiso   1.00
N1     N     0.05400   0.50370   0.31640   0.01267  Uiso   1.00
N2     N     0.41070   0.91990   0.28440   0.01267  Uiso   1.00
N3     N     0.94600   0.49630   0.68360   0.01267  Uiso   1.00
N4     N     0.58930   0.08010   0.71560   0.01267  Uiso   1.00
O1     O     0.20690   0.23390   0.53540   0.01267  Uiso   1.00
O2     O     0.04570   0.29590   0.55340   0.01267  Uiso   1.00
O3     O     0.89340   0.08190   0.45240   0.01267  Uiso   1.00
O4     O     0.65330   0.81830   0.31790   0.01267  Uiso   1.00
O5     O     0.65780   0.98200   0.43510   0.01267  Uiso   1.00
O6     O     0.59300   0.33240   0.81660   0.01267  Uiso   1.00
O7     O     0.48660   0.43680   0.77900   0.01267  Uiso   1.00
O8     O     0.68280   0.49000   0.00000   0.01267  Uiso   1.00
O9     O     0.77980   0.64180   0.25610   0.01267  Uiso   1.00
O10    O     0.85050   0.51740   0.15830   0.01267  Uiso   1.00
O11    O     0.19840   0.54730   0.68060   0.01267  Uiso   1.00
O12    O     0.35100   0.48410   0.63020   0.01267  Uiso   1.00
O13    O     0.38580   0.63070   0.54660   0.01267  Uiso   1.00
O14    O     0.53080   0.68230   0.43350   0.01267  Uiso   1.00
O15    O     0.40960   0.78030   0.40440   0.01267  Uiso   1.00
O16    O     0.79310   0.76610   0.46460   0.01267  Uiso   1.00
O17    O     0.95430   0.70410   0.44660   0.01267  Uiso   1.00
O18    O     0.10660   0.91810   0.54760   0.01267  Uiso   1.00
O19    O     0.34670   0.18170   0.68210   0.01267  Uiso   1.00
O20    O     0.34220   0.01800   0.56490   0.01267  Uiso   1.00
O21    O     0.40700   0.66760   0.18340   0.01267  Uiso   1.00
O22    O     0.51340   0.56320   0.22100   0.01267  Uiso   1.00
O23    O     0.31720   0.51000   0.00000   0.01267  Uiso   1.00
O24    O     0.22020   0.35820   0.74390   0.01267  Uiso   1.00
O25    O     0.14950   0.48260   0.84170   0.01267  Uiso   1.00
O26    O     0.80160   0.45270   0.31940   0.01267  Uiso   1.00
O27    O     0.64900   0.51590   0.36980   0.01267  Uiso   1.00
O28    O     0.61420   0.36930   0.45340   0.01267  Uiso   1.00
O29    O     0.46920   0.31770   0.56650   0.01267  Uiso   1.00
O30    O     0.59040   0.21970   0.59560   0.01267  Uiso   1.00
