data_PENNAZ_clean
_audit_creation_date              2014-07-02
_audit_creation_method            'Materials Studio'
_symmetry_space_group_name_H-M    'P1'
_symmetry_Int_Tables_number       1
_symmetry_cell_setting            triclinic
loop_
_symmetry_equiv_pos_as_xyz
  x,y,z
_cell_length_a                    18.6178
_cell_length_b                    19.7540
_cell_length_c                    23.1423
_cell_angle_alpha                 66.0857
_cell_angle_beta                  66.2813
_cell_angle_gamma                 61.8852
loop_
_atom_site_label
_atom_site_type_symbol
_atom_site_fract_x
_atom_site_fract_y
_atom_site_fract_z
_atom_site_U_iso_or_equiv
_atom_site_adp_type
_atom_site_occupancy
Cd1    Cd    0.33217   0.88532   0.69552   0.01267  Uiso   1.00
Cd2    Cd    0.46125   0.68077   0.67747   0.01267  Uiso   1.00
Cd3    Cd    0.73979   0.69001   0.95887   0.01267  Uiso   1.00
Cd4    Cd    0.91301   0.61468   0.80448   0.01267  Uiso   1.00
Cd5    Cd    0.81949   0.81923   0.82253   0.01267  Uiso   1.00
Cd6    Cd    0.38867   0.80999   0.54113   0.01267  Uiso   1.00
Cd7    Cd    0.66783   0.11468   0.30448   0.01267  Uiso   1.00
Cd8    Cd    0.53875   0.31923   0.32253   0.01267  Uiso   1.00
Cd9    Cd    0.26021   0.30999   0.04113   0.01267  Uiso   1.00
Cd10   Cd    0.08699   0.38532   0.19552   0.01267  Uiso   1.00
Cd11   Cd    0.18051   0.18077   0.17747   0.01267  Uiso   1.00
Cd12   Cd    0.61133   0.19001   0.45887   0.01267  Uiso   1.00
H1     H     0.65590   0.68870   0.75210   0.01267  Uiso   1.00
H2     H     0.42370   0.84030   0.81690   0.01267  Uiso   1.00
H3     H     0.62250   0.82640   0.85660   0.01267  Uiso   1.00
H4     H     0.35950   0.92460   0.98580   0.01267  Uiso   1.00
H5     H     0.49840   0.05930   0.88790   0.01267  Uiso   1.00
H6     H     0.28510   0.99780   0.06160   0.01267  Uiso   1.00
H7     H     0.42320   0.13190   0.96590   0.01267  Uiso   1.00
H8     H     0.44550   0.03600   0.45080   0.01267  Uiso   1.00
H9     H     0.24380   0.09270   0.60030   0.01267  Uiso   1.00
H10    H     0.36820   0.24260   0.49240   0.01267  Uiso   1.00
H11    H     0.11450   0.27660   0.68080   0.01267  Uiso   1.00
H12    H     0.23810   0.41970   0.57410   0.01267  Uiso   1.00
H13    H     0.02030   0.36790   0.74210   0.01267  Uiso   1.00
H14    H     0.14470   0.51250   0.63230   0.01267  Uiso   1.00
H15    H     0.09670   0.81130   0.74790   0.01267  Uiso   1.00
H16    H     0.08090   0.65970   0.68310   0.01267  Uiso   1.00
H17    H     0.30550   0.67360   0.64340   0.01267  Uiso   1.00
H18    H     0.26990   0.57540   0.51420   0.01267  Uiso   1.00
H19    H     0.44560   0.44070   0.61210   0.01267  Uiso   1.00
H20    H     0.34450   0.50220   0.43840   0.01267  Uiso   1.00
H21    H     0.52100   0.36810   0.53410   0.01267  Uiso   1.00
H22    H     0.93230   0.46400   0.04920   0.01267  Uiso   1.00
H23    H     0.93680   0.40730   0.89970   0.01267  Uiso   1.00
H24    H     0.10320   0.25740   0.00760   0.01267  Uiso   1.00
H25    H     0.07190   0.22340   0.81920   0.01267  Uiso   1.00
H26    H     0.23190   0.08030   0.92590   0.01267  Uiso   1.00
H27    H     0.13030   0.13210   0.75790   0.01267  Uiso   1.00
H28    H     0.28950   0.98750   0.86770   0.01267  Uiso   1.00
H29    H     0.34410   0.31130   0.24790   0.01267  Uiso   1.00
H30    H     0.57630   0.15970   0.18310   0.01267  Uiso   1.00
H31    H     0.37750   0.17360   0.14340   0.01267  Uiso   1.00
H32    H     0.64050   0.07540   0.01420   0.01267  Uiso   1.00
H33    H     0.50160   0.94070   0.11210   0.01267  Uiso   1.00
H34    H     0.71490   0.00220   0.93840   0.01267  Uiso   1.00
H35    H     0.57680   0.86810   0.03410   0.01267  Uiso   1.00
H36    H     0.55450   0.96400   0.54920   0.01267  Uiso   1.00
H37    H     0.75620   0.90730   0.39970   0.01267  Uiso   1.00
H38    H     0.63180   0.75740   0.50760   0.01267  Uiso   1.00
H39    H     0.88550   0.72340   0.31920   0.01267  Uiso   1.00
H40    H     0.76190   0.58030   0.42590   0.01267  Uiso   1.00
H41    H     0.97970   0.63210   0.25790   0.01267  Uiso   1.00
H42    H     0.85530   0.48750   0.36770   0.01267  Uiso   1.00
H43    H     0.90330   0.18870   0.25210   0.01267  Uiso   1.00
H44    H     0.91910   0.34030   0.31690   0.01267  Uiso   1.00
H45    H     0.69450   0.32640   0.35660   0.01267  Uiso   1.00
H46    H     0.73010   0.42460   0.48580   0.01267  Uiso   1.00
H47    H     0.55440   0.55930   0.38790   0.01267  Uiso   1.00
H48    H     0.65550   0.49780   0.56160   0.01267  Uiso   1.00
H49    H     0.47900   0.63190   0.46590   0.01267  Uiso   1.00
H50    H     0.06770   0.53600   0.95080   0.01267  Uiso   1.00
H51    H     0.06320   0.59270   0.10030   0.01267  Uiso   1.00
H52    H     0.89680   0.74260   0.99240   0.01267  Uiso   1.00
H53    H     0.92810   0.77660   0.18080   0.01267  Uiso   1.00
H54    H     0.76810   0.91970   0.07410   0.01267  Uiso   1.00
H55    H     0.86970   0.86790   0.24210   0.01267  Uiso   1.00
H56    H     0.71050   0.01250   0.13230   0.01267  Uiso   1.00
C1     C     0.62020   0.72750   0.77470   0.01267  Uiso   1.00
C2     C     0.50060   0.73260   0.74800   0.01267  Uiso   1.00
C3     C     0.53469   0.76072   0.77890   0.01267  Uiso   1.00
C4     C     0.65315   0.75190   0.80420   0.01267  Uiso   1.00
C5     C     0.74377   0.71126   0.80360   0.01267  Uiso   1.00
C6     C     0.48130   0.81850   0.81310   0.01267  Uiso   1.00
C7     C     0.60070   0.80980   0.83720   0.01267  Uiso   1.00
C8     C     0.51450   0.84330   0.84110   0.01267  Uiso   1.00
C9     C     0.43490   0.98600   0.92880   0.01267  Uiso   1.00
C10    C     0.37200   0.96730   0.98090   0.01267  Uiso   1.00
C11    C     0.45490   0.04700   0.92260   0.01267  Uiso   1.00
C12    C     0.32740   0.01100   0.02600   0.01267  Uiso   1.00
C13    C     0.40890   0.09090   0.96950   0.01267  Uiso   1.00
C14    C     0.34630   0.07550   0.01810   0.01267  Uiso   1.00
C15    C     0.29820   0.11950   0.07030   0.01267  Uiso   1.00
C16    C     0.40859   0.07092   0.47670   0.01267  Uiso   1.00
C17    C     0.33640   0.97460   0.54320   0.01267  Uiso   1.00
C18    C     0.34382   0.05206   0.52830   0.01267  Uiso   1.00
C19    C     0.41884   0.14142   0.46330   0.01267  Uiso   1.00
C20    C     0.49362   0.15816   0.41140   0.01267  Uiso   1.00
C21    C     0.28750   0.10480   0.56580   0.01267  Uiso   1.00
C22    C     0.36206   0.19498   0.50110   0.01267  Uiso   1.00
C23    C     0.29662   0.17646   0.55150   0.01267  Uiso   1.00
C24    C     0.17980   0.34330   0.61770   0.01267  Uiso   1.00
C25    C     0.11960   0.32530   0.66950   0.01267  Uiso   1.00
C26    C     0.19170   0.41030   0.60670   0.01267  Uiso   1.00
C27    C     0.06360   0.38020   0.70700   0.01267  Uiso   1.00
C28    C     0.13710   0.46530   0.64250   0.01267  Uiso   1.00
C29    C     0.07150   0.44920   0.69320   0.01267  Uiso   1.00
C30    C     0.01240   0.50770   0.73450   0.01267  Uiso   1.00
C31    C     0.12240   0.77250   0.72530   0.01267  Uiso   1.00
C32    C     0.98120   0.76740   0.75200   0.01267  Uiso   1.00
C33    C     0.07431   0.73928   0.72110   0.01267  Uiso   1.00
C34    C     0.20925   0.74810   0.69580   0.01267  Uiso   1.00
C35    C     0.25863   0.78874   0.69640   0.01267  Uiso   1.00
C36    C     0.11290   0.68150   0.68690   0.01267  Uiso   1.00
C37    C     0.24770   0.69020   0.66280   0.01267  Uiso   1.00
C38    C     0.19890   0.65670   0.65890   0.01267  Uiso   1.00
C39    C     0.34970   0.51400   0.57120   0.01267  Uiso   1.00
C40    C     0.32020   0.53270   0.51910   0.01267  Uiso   1.00
C41    C     0.42450   0.45300   0.57740   0.01267  Uiso   1.00
C42    C     0.36440   0.48900   0.47400   0.01267  Uiso   1.00
C43    C     0.46930   0.40910   0.53050   0.01267  Uiso   1.00
C44    C     0.43990   0.42450   0.48190   0.01267  Uiso   1.00
C45    C     0.48800   0.38050   0.42970   0.01267  Uiso   1.00
C46    C     0.95621   0.42908   0.02330   0.01267  Uiso   1.00
C47    C     0.85420   0.52540   0.95680   0.01267  Uiso   1.00
C48    C     0.92418   0.44794   0.97170   0.01267  Uiso   1.00
C49    C     0.02356   0.35858   0.03670   0.01267  Uiso   1.00
C50    C     0.06318   0.34184   0.08860   0.01267  Uiso   1.00
C51    C     0.95810   0.39520   0.93420   0.01267  Uiso   1.00
C52    C     0.05814   0.30502   0.99890   0.01267  Uiso   1.00
C53    C     0.02458   0.32354   0.94850   0.01267  Uiso   1.00
C54    C     0.14080   0.15670   0.88230   0.01267  Uiso   1.00
C55    C     0.11440   0.17470   0.83050   0.01267  Uiso   1.00
C56    C     0.20870   0.08970   0.89330   0.01267  Uiso   1.00
C57    C     0.15080   0.11980   0.79300   0.01267  Uiso   1.00
C58    C     0.24490   0.03470   0.85750   0.01267  Uiso   1.00
C59    C     0.21390   0.05080   0.80680   0.01267  Uiso   1.00
C60    C     0.25460   0.99230   0.76550   0.01267  Uiso   1.00
C61    C     0.37980   0.27250   0.22530   0.01267  Uiso   1.00
C62    C     0.49940   0.26740   0.25200   0.01267  Uiso   1.00
C63    C     0.46531   0.23928   0.22110   0.01267  Uiso   1.00
C64    C     0.34685   0.24810   0.19580   0.01267  Uiso   1.00
C65    C     0.25623   0.28874   0.19640   0.01267  Uiso   1.00
C66    C     0.51870   0.18150   0.18690   0.01267  Uiso   1.00
C67    C     0.39930   0.19020   0.16280   0.01267  Uiso   1.00
C68    C     0.48550   0.15670   0.15890   0.01267  Uiso   1.00
C69    C     0.56510   0.01400   0.07120   0.01267  Uiso   1.00
C70    C     0.62800   0.03270   0.01910   0.01267  Uiso   1.00
C71    C     0.54510   0.95300   0.07740   0.01267  Uiso   1.00
C72    C     0.67260   0.98900   0.97400   0.01267  Uiso   1.00
C73    C     0.59110   0.90910   0.03050   0.01267  Uiso   1.00
C74    C     0.65370   0.92450   0.98190   0.01267  Uiso   1.00
C75    C     0.70180   0.88050   0.92970   0.01267  Uiso   1.00
C76    C     0.59141   0.92908   0.52330   0.01267  Uiso   1.00
C77    C     0.66360   0.02540   0.45680   0.01267  Uiso   1.00
C78    C     0.65618   0.94794   0.47170   0.01267  Uiso   1.00
C79    C     0.58116   0.85858   0.53670   0.01267  Uiso   1.00
C80    C     0.50638   0.84184   0.58860   0.01267  Uiso   1.00
C81    C     0.71250   0.89520   0.43420   0.01267  Uiso   1.00
C82    C     0.63794   0.80502   0.49890   0.01267  Uiso   1.00
C83    C     0.70338   0.82354   0.44850   0.01267  Uiso   1.00
C84    C     0.82020   0.65670   0.38230   0.01267  Uiso   1.00
C85    C     0.88040   0.67470   0.33050   0.01267  Uiso   1.00
C86    C     0.80830   0.58970   0.39330   0.01267  Uiso   1.00
C87    C     0.93640   0.61980   0.29300   0.01267  Uiso   1.00
C88    C     0.86290   0.53470   0.35750   0.01267  Uiso   1.00
C89    C     0.92850   0.55080   0.30680   0.01267  Uiso   1.00
C90    C     0.98760   0.49230   0.26550   0.01267  Uiso   1.00
C91    C     0.87760   0.22750   0.27470   0.01267  Uiso   1.00
C92    C     0.01880   0.23260   0.24800   0.01267  Uiso   1.00
C93    C     0.92569   0.26072   0.27890   0.01267  Uiso   1.00
C94    C     0.79075   0.25190   0.30420   0.01267  Uiso   1.00
C95    C     0.74137   0.21126   0.30360   0.01267  Uiso   1.00
C96    C     0.88710   0.31850   0.31310   0.01267  Uiso   1.00
C97    C     0.75230   0.30980   0.33720   0.01267  Uiso   1.00
C98    C     0.80110   0.34330   0.34110   0.01267  Uiso   1.00
C99    C     0.65030   0.48600   0.42880   0.01267  Uiso   1.00
C100   C     0.67980   0.46730   0.48090   0.01267  Uiso   1.00
C101   C     0.57550   0.54700   0.42260   0.01267  Uiso   1.00
C102   C     0.63560   0.51100   0.52600   0.01267  Uiso   1.00
C103   C     0.53070   0.59090   0.46950   0.01267  Uiso   1.00
C104   C     0.56010   0.57550   0.51810   0.01267  Uiso   1.00
C105   C     0.51200   0.61950   0.57030   0.01267  Uiso   1.00
C106   C     0.04379   0.57092   0.97670   0.01267  Uiso   1.00
C107   C     0.14580   0.47460   0.04320   0.01267  Uiso   1.00
C108   C     0.07582   0.55206   0.02830   0.01267  Uiso   1.00
C109   C     0.97644   0.64142   0.96330   0.01267  Uiso   1.00
C110   C     0.93682   0.65816   0.91140   0.01267  Uiso   1.00
C111   C     0.04190   0.60480   0.06580   0.01267  Uiso   1.00
C112   C     0.94186   0.69498   0.00110   0.01267  Uiso   1.00
C113   C     0.97542   0.67646   0.05150   0.01267  Uiso   1.00
C114   C     0.85920   0.84330   0.11770   0.01267  Uiso   1.00
C115   C     0.88560   0.82530   0.16950   0.01267  Uiso   1.00
C116   C     0.79130   0.91030   0.10670   0.01267  Uiso   1.00
C117   C     0.84920   0.88020   0.20700   0.01267  Uiso   1.00
C118   C     0.75510   0.96530   0.14250   0.01267  Uiso   1.00
C119   C     0.78610   0.94920   0.19320   0.01267  Uiso   1.00
C120   C     0.74540   0.00770   0.23450   0.01267  Uiso   1.00
N1     N     0.45643   0.89844   0.87930   0.01267  Uiso   1.00
N2     N     0.48821   0.93838   0.88360   0.01267  Uiso   1.00
N3     N     0.23443   0.22704   0.59290   0.01267  Uiso   1.00
N4     N     0.24120   0.29180   0.57660   0.01267  Uiso   1.00
N5     N     0.23417   0.60156   0.62070   0.01267  Uiso   1.00
N6     N     0.31019   0.56162   0.61640   0.01267  Uiso   1.00
N7     N     0.05437   0.27296   0.90710   0.01267  Uiso   1.00
N8     N     0.10960   0.20820   0.92340   0.01267  Uiso   1.00
N9     N     0.54357   0.10156   0.12070   0.01267  Uiso   1.00
N10    N     0.51179   0.06162   0.11640   0.01267  Uiso   1.00
N11    N     0.76557   0.77296   0.40710   0.01267  Uiso   1.00
N12    N     0.75880   0.70820   0.42340   0.01267  Uiso   1.00
N13    N     0.76583   0.39844   0.37930   0.01267  Uiso   1.00
N14    N     0.68981   0.43838   0.38360   0.01267  Uiso   1.00
N15    N     0.94563   0.72704   0.09290   0.01267  Uiso   1.00
N16    N     0.89040   0.79180   0.07660   0.01267  Uiso   1.00
O1     O     0.42312   0.76356   0.75060   0.01267  Uiso   1.00
O2     O     0.55117   0.67936   0.72010   0.01267  Uiso   1.00
O3     O     0.76808   0.72304   0.84200   0.01267  Uiso   1.00
O4     O     0.79401   0.66788   0.76690   0.01267  Uiso   1.00
O5     O     0.31737   0.17456   0.06470   0.01267  Uiso   1.00
O6     O     0.24260   0.09860   0.11640   0.01267  Uiso   1.00
O7     O     0.29058   0.94914   0.59750   0.01267  Uiso   1.00
O8     O     0.38068   0.93544   0.50120   0.01267  Uiso   1.00
O9     O     0.53874   0.11432   0.37360   0.01267  Uiso   1.00
O10    O     0.50807   0.21486   0.41120   0.01267  Uiso   1.00
O11    O     0.02460   0.56130   0.72910   0.01267  Uiso   1.00
O12    O     0.94560   0.49420   0.77620   0.01267  Uiso   1.00
O13    O     0.93728   0.73644   0.74940   0.01267  Uiso   1.00
O14    O     0.95063   0.82064   0.77990   0.01267  Uiso   1.00
O15    O     0.33312   0.77696   0.65800   0.01267  Uiso   1.00
O16    O     0.22879   0.83212   0.73310   0.01267  Uiso   1.00
O17    O     0.55663   0.32544   0.43530   0.01267  Uiso   1.00
O18    O     0.45760   0.40140   0.38360   0.01267  Uiso   1.00
O19    O     0.83722   0.55086   0.90250   0.01267  Uiso   1.00
O20    O     0.81732   0.56456   0.99880   0.01267  Uiso   1.00
O21    O     0.02666   0.38568   0.12640   0.01267  Uiso   1.00
O22    O     0.13413   0.28514   0.08880   0.01267  Uiso   1.00
O23    O     0.31500   0.93870   0.77090   0.01267  Uiso   1.00
O24    O     0.21600   0.00580   0.72380   0.01267  Uiso   1.00
O25    O     0.57688   0.23644   0.24940   0.01267  Uiso   1.00
O26    O     0.44883   0.32064   0.27990   0.01267  Uiso   1.00
O27    O     0.23192   0.27696   0.15800   0.01267  Uiso   1.00
O28    O     0.20599   0.33212   0.23310   0.01267  Uiso   1.00
O29    O     0.68263   0.82544   0.93530   0.01267  Uiso   1.00
O30    O     0.75740   0.90140   0.88360   0.01267  Uiso   1.00
O31    O     0.70942   0.05086   0.40250   0.01267  Uiso   1.00
O32    O     0.61932   0.06456   0.49880   0.01267  Uiso   1.00
O33    O     0.46126   0.88568   0.62640   0.01267  Uiso   1.00
O34    O     0.49193   0.78514   0.58880   0.01267  Uiso   1.00
O35    O     0.97540   0.43870   0.27090   0.01267  Uiso   1.00
O36    O     0.05440   0.50580   0.22380   0.01267  Uiso   1.00
O37    O     0.06272   0.26356   0.25060   0.01267  Uiso   1.00
O38    O     0.04937   0.17936   0.22010   0.01267  Uiso   1.00
O39    O     0.66688   0.22304   0.34200   0.01267  Uiso   1.00
O40    O     0.77121   0.16788   0.26690   0.01267  Uiso   1.00
O41    O     0.44337   0.67456   0.56470   0.01267  Uiso   1.00
O42    O     0.54240   0.59860   0.61640   0.01267  Uiso   1.00
O43    O     0.16278   0.44914   0.09750   0.01267  Uiso   1.00
O44    O     0.18268   0.43544   0.00120   0.01267  Uiso   1.00
O45    O     0.97334   0.61432   0.87360   0.01267  Uiso   1.00
O46    O     0.86587   0.71486   0.91120   0.01267  Uiso   1.00
O47    O     0.68500   0.06130   0.22910   0.01267  Uiso   1.00
O48    O     0.78400   0.99420   0.27620   0.01267  Uiso   1.00
