data_PENNON_clean
_audit_creation_date              2014-07-02
_audit_creation_method            'Materials Studio'
_symmetry_space_group_name_H-M    'P1'
_symmetry_Int_Tables_number       1
_symmetry_cell_setting            triclinic
loop_
_symmetry_equiv_pos_as_xyz
  x,y,z
_cell_length_a                    14.4401
_cell_length_b                    19.6977
_cell_length_c                    19.6977
_cell_angle_alpha                 82.2787
_cell_angle_beta                  68.4975
_cell_angle_gamma                 68.4974
loop_
_atom_site_label
_atom_site_type_symbol
_atom_site_fract_x
_atom_site_fract_y
_atom_site_fract_z
_atom_site_U_iso_or_equiv
_atom_site_adp_type
_atom_site_occupancy
Co1    Co    0.16931   0.80950   0.17798   0.01267  Uiso   1.00
Co2    Co    0.15679   0.19050   0.82203   0.01267  Uiso   1.00
Co3    Co    0.65271   0.17797   0.19051   0.01267  Uiso   1.00
Co4    Co    0.02118   0.82203   0.80950   0.01267  Uiso   1.00
Co5    Co    0.09322   0.67797   0.30949   0.01267  Uiso   1.00
Co6    Co    0.08068   0.32203   0.69050   0.01267  Uiso   1.00
Co7    Co    0.22882   0.69050   0.67797   0.01267  Uiso   1.00
Co8    Co    0.59729   0.30950   0.32202   0.01267  Uiso   1.00
H1     H     0.76760   0.78520   0.33340   0.01267  Uiso   1.00
H2     H     0.86580   0.95030   0.22950   0.01267  Uiso   1.00
H3     H     0.55270   0.97480   0.29800   0.01267  Uiso   1.00
H4     H     0.88620   0.21480   0.66660   0.01267  Uiso   1.00
H5     H     0.04560   0.04970   0.77050   0.01267  Uiso   1.00
H6     H     0.82550   0.02520   0.70200   0.01267  Uiso   1.00
H7     H     0.89900   0.33340   0.21480   0.01267  Uiso   1.00
H8     H     0.90470   0.22950   0.04970   0.01267  Uiso   1.00
H9     H     0.14930   0.29800   0.02520   0.01267  Uiso   1.00
H10    H     0.44720   0.66660   0.78520   0.01267  Uiso   1.00
H11    H     0.18390   0.77050   0.95030   0.01267  Uiso   1.00
H12    H     0.47250   0.70200   0.97480   0.01267  Uiso   1.00
H13    H     0.36380   0.83340   0.28520   0.01267  Uiso   1.00
H14    H     0.20440   0.72950   0.45030   0.01267  Uiso   1.00
H15    H     0.42450   0.79800   0.47480   0.01267  Uiso   1.00
H16    H     0.48240   0.16660   0.71480   0.01267  Uiso   1.00
H17    H     0.38420   0.27050   0.54970   0.01267  Uiso   1.00
H18    H     0.69730   0.20200   0.52520   0.01267  Uiso   1.00
H19    H     0.80280   0.71480   0.83340   0.01267  Uiso   1.00
H20    H     0.06610   0.54970   0.72950   0.01267  Uiso   1.00
H21    H     0.77750   0.52520   0.79800   0.01267  Uiso   1.00
H22    H     0.35100   0.28520   0.16660   0.01267  Uiso   1.00
H23    H     0.34530   0.45030   0.27050   0.01267  Uiso   1.00
H24    H     0.10070   0.47480   0.20200   0.01267  Uiso   1.00
C1     C     0.94279   0.81530   0.27452   0.01267  Uiso   1.00
C2     C     0.64704   0.87659   0.32393   0.01267  Uiso   1.00
C3     C     0.75182   0.83385   0.31551   0.01267  Uiso   1.00
C4     C     0.81033   0.93102   0.25292   0.01267  Uiso   1.00
C5     C     0.68520   0.05000   0.22840   0.01267  Uiso   1.00
C6     C     0.83162   0.86101   0.28195   0.01267  Uiso   1.00
C7     C     0.62347   0.94605   0.29421   0.01267  Uiso   1.00
C8     C     0.70630   0.97246   0.25874   0.01267  Uiso   1.00
C9     C     0.56300   0.84585   0.36035   0.01267  Uiso   1.00
C10    C     0.03261   0.18470   0.72548   0.01267  Uiso   1.00
C11    C     0.84756   0.12341   0.67607   0.01267  Uiso   1.00
C12    C     0.90118   0.16615   0.68449   0.01267  Uiso   1.00
C13    C     0.99427   0.06898   0.74708   0.01267  Uiso   1.00
C14    C     0.96360   0.95000   0.77160   0.01267  Uiso   1.00
C15    C     0.97458   0.13899   0.71805   0.01267  Uiso   1.00
C16    C     0.86373   0.05395   0.70579   0.01267  Uiso   1.00
C17    C     0.93750   0.02754   0.74126   0.01267  Uiso   1.00
C18    C     0.76920   0.15415   0.63965   0.01267  Uiso   1.00
C19    C     0.78269   0.27452   0.18470   0.01267  Uiso   1.00
C20    C     0.02903   0.32393   0.12341   0.01267  Uiso   1.00
C21    C     0.93267   0.31551   0.16615   0.01267  Uiso   1.00
C22    C     0.93675   0.25292   0.06898   0.01267  Uiso   1.00
C23    C     0.08640   0.22840   0.95000   0.01267  Uiso   1.00
C24    C     0.88643   0.28195   0.13899   0.01267  Uiso   1.00
C25    C     0.08232   0.29421   0.05395   0.01267  Uiso   1.00
C26    C     0.03496   0.25874   0.02754   0.01267  Uiso   1.00
C27    C     0.07665   0.36035   0.15415   0.01267  Uiso   1.00
C28    C     0.24191   0.72548   0.81530   0.01267  Uiso   1.00
C29    C     0.47637   0.67607   0.87659   0.01267  Uiso   1.00
C30    C     0.41433   0.68449   0.83385   0.01267  Uiso   1.00
C31    C     0.25865   0.74708   0.93102   0.01267  Uiso   1.00
C32    C     0.26480   0.77160   0.05000   0.01267  Uiso   1.00
C33    C     0.30737   0.71805   0.86101   0.01267  Uiso   1.00
C34    C     0.43048   0.70579   0.94605   0.01267  Uiso   1.00
C35    C     0.32124   0.74126   0.97246   0.01267  Uiso   1.00
C36    C     0.59115   0.63965   0.84585   0.01267  Uiso   1.00
C37    C     0.21739   0.77452   0.31530   0.01267  Uiso   1.00
C38    C     0.40244   0.82393   0.37659   0.01267  Uiso   1.00
C39    C     0.34882   0.81551   0.33385   0.01267  Uiso   1.00
C40    C     0.25573   0.75292   0.43102   0.01267  Uiso   1.00
C41    C     0.28640   0.72840   0.55000   0.01267  Uiso   1.00
C42    C     0.27542   0.78195   0.36101   0.01267  Uiso   1.00
C43    C     0.38627   0.79421   0.44605   0.01267  Uiso   1.00
C44    C     0.31250   0.75874   0.47246   0.01267  Uiso   1.00
C45    C     0.48080   0.86035   0.34585   0.01267  Uiso   1.00
C46    C     0.30721   0.22548   0.68470   0.01267  Uiso   1.00
C47    C     0.60296   0.17607   0.62341   0.01267  Uiso   1.00
C48    C     0.49818   0.18449   0.66615   0.01267  Uiso   1.00
C49    C     0.43967   0.24708   0.56898   0.01267  Uiso   1.00
C50    C     0.56480   0.27160   0.45000   0.01267  Uiso   1.00
C51    C     0.41838   0.21805   0.63899   0.01267  Uiso   1.00
C52    C     0.62653   0.20579   0.55395   0.01267  Uiso   1.00
C53    C     0.54370   0.24126   0.52754   0.01267  Uiso   1.00
C54    C     0.68700   0.13965   0.65415   0.01267  Uiso   1.00
C55    C     0.00809   0.68470   0.77452   0.01267  Uiso   1.00
C56    C     0.77363   0.62341   0.82393   0.01267  Uiso   1.00
C57    C     0.83567   0.66615   0.81551   0.01267  Uiso   1.00
C58    C     0.99135   0.56898   0.75292   0.01267  Uiso   1.00
C59    C     0.98520   0.45000   0.72840   0.01267  Uiso   1.00
C60    C     0.94263   0.63899   0.78195   0.01267  Uiso   1.00
C61    C     0.81952   0.55395   0.79421   0.01267  Uiso   1.00
C62    C     0.92876   0.52754   0.75874   0.01267  Uiso   1.00
C63    C     0.65885   0.65415   0.86035   0.01267  Uiso   1.00
C64    C     0.46731   0.31530   0.22548   0.01267  Uiso   1.00
C65    C     0.22097   0.37659   0.17607   0.01267  Uiso   1.00
C66    C     0.31733   0.33385   0.18449   0.01267  Uiso   1.00
C67    C     0.31325   0.43102   0.24708   0.01267  Uiso   1.00
C68    C     0.16360   0.55000   0.27160   0.01267  Uiso   1.00
C69    C     0.36357   0.36101   0.21805   0.01267  Uiso   1.00
C70    C     0.16768   0.44605   0.20579   0.01267  Uiso   1.00
C71    C     0.21504   0.47246   0.24126   0.01267  Uiso   1.00
C72    C     0.17335   0.34585   0.13965   0.01267  Uiso   1.00
O1     O     0.01358   0.84345   0.23909   0.01267  Uiso   1.00
O2     O     0.75944   0.07451   0.20315   0.01267  Uiso   1.00
O3     O     0.95849   0.75366   0.30386   0.01267  Uiso   1.00
O4     O     0.59492   0.08688   0.22816   0.01267  Uiso   1.00
O5     O     0.60100   0.77770   0.40010   0.01267  Uiso   1.00
O6     O     0.09612   0.15655   0.76091   0.01267  Uiso   1.00
O7     O     0.03710   0.92549   0.79685   0.01267  Uiso   1.00
O8     O     0.01601   0.24634   0.69614   0.01267  Uiso   1.00
O9     O     0.90996   0.91312   0.77184   0.01267  Uiso   1.00
O10    O     0.77880   0.22230   0.59990   0.01267  Uiso   1.00
O11    O     0.74733   0.23909   0.15655   0.01267  Uiso   1.00
O12    O     0.03741   0.20315   0.92549   0.01267  Uiso   1.00
O13    O     0.73765   0.30386   0.24634   0.01267  Uiso   1.00
O14    O     0.17692   0.22816   0.91312   0.01267  Uiso   1.00
O15    O     0.99890   0.40010   0.22230   0.01267  Uiso   1.00
O16    O     0.14297   0.76091   0.84345   0.01267  Uiso   1.00
O17    O     0.16605   0.79685   0.07451   0.01267  Uiso   1.00
O18    O     0.28785   0.69614   0.75366   0.01267  Uiso   1.00
O19    O     0.31820   0.77184   0.08688   0.01267  Uiso   1.00
O20    O     0.62130   0.59990   0.77770   0.01267  Uiso   1.00
O21    O     0.15388   0.73909   0.34345   0.01267  Uiso   1.00
O22    O     0.21290   0.70315   0.57451   0.01267  Uiso   1.00
O23    O     0.23399   0.80386   0.25366   0.01267  Uiso   1.00
O24    O     0.34004   0.72816   0.58688   0.01267  Uiso   1.00
O25    O     0.47120   0.90010   0.27770   0.01267  Uiso   1.00
O26    O     0.23642   0.26091   0.65655   0.01267  Uiso   1.00
O27    O     0.49056   0.29685   0.42549   0.01267  Uiso   1.00
O28    O     0.29151   0.19614   0.74634   0.01267  Uiso   1.00
O29    O     0.65508   0.27184   0.41312   0.01267  Uiso   1.00
O30    O     0.64900   0.09990   0.72230   0.01267  Uiso   1.00
O31    O     0.10703   0.65655   0.73909   0.01267  Uiso   1.00
O32    O     0.08395   0.42549   0.70315   0.01267  Uiso   1.00
O33    O     0.96215   0.74634   0.80386   0.01267  Uiso   1.00
O34    O     0.93180   0.41312   0.72816   0.01267  Uiso   1.00
O35    O     0.62870   0.72230   0.90010   0.01267  Uiso   1.00
O36    O     0.50267   0.34345   0.26091   0.01267  Uiso   1.00
O37    O     0.21259   0.57451   0.29685   0.01267  Uiso   1.00
O38    O     0.51235   0.25366   0.19614   0.01267  Uiso   1.00
O39    O     0.07308   0.58688   0.27184   0.01267  Uiso   1.00
O40    O     0.25110   0.27770   0.09990   0.01267  Uiso   1.00
