data_image0
_cell_length_a       7.5609
_cell_length_b       14.189
_cell_length_c       11.174
_cell_angle_alpha    90
_cell_angle_beta     99.04
_cell_angle_gamma    90

_symmetry_space_group_name_H-M    "P 1"
_symmetry_int_tables_number       1

loop_
  _symmetry_equiv_pos_as_xyz
  'x, y, z'

loop_
  _atom_site_label
  _atom_site_occupancy
  _atom_site_fract_x
  _atom_site_fract_y
  _atom_site_fract_z
  _atom_site_thermal_displace_type
  _atom_site_B_iso_or_equiv
  _atom_site_type_symbol
  P1       1.0000 0.78090  0.19873  0.58066  Biso   1.000  P
  P2       1.0000 0.72787  0.80182  0.55716  Biso   1.000  P
  F1       1.0000 0.31640  0.15869  0.76849  Biso   1.000  F
  F2       1.0000 0.24120  0.32794  0.76130  Biso   1.000  F
  O1       1.0000 0.63680  0.19414  0.66267  Biso   1.000  O
  O2       1.0000 0.96890  0.21166  0.65213  Biso   1.000  O
  O3       1.0000 0.58300  0.79724  0.63748  Biso   1.000  O
  O4       1.0000 0.74340  0.27778  0.48604  Biso   1.000  O
  O5       1.0000 0.91440  0.78112  0.62617  Biso   1.000  O
  O6       1.0000 0.68830  0.73224  0.45155  Biso   1.000  O
  C1       1.0000 0.77020  0.08930  0.50210  Biso   1.000  C
  H1       1.0000 0.66120  0.08870  0.44330  Biso   1.000  H
  H2       1.0000 0.87000  0.08670  0.45730  Biso   1.000  H
  C2       1.0000 0.72980  0.91680  0.49210  Biso   1.000  C
  H3       1.0000 0.61290  0.92800  0.44470  Biso   1.000  H
  H4       1.0000 0.81600  0.91650  0.43630  Biso   1.000  H
  C3       1.0000 0.77380  0.00000  0.57850  Biso   1.000  C
  H5       1.0000 0.89130  0.99160  0.62650  Biso   1.000  H
  H6       1.0000 0.68630  0.00430  0.63310  Biso   1.000  H
  V1       1.0000 0.08805  0.20291  0.82250  Biso   1.000  V
  V2       1.0000 0.44666  0.26846  0.71424  Biso   1.000  V
  P3       1.0000 0.71910  0.69873  0.91934  Biso   1.000  P
  P4       1.0000 0.77213  0.30182  0.94284  Biso   1.000  P
  F3       1.0000 0.18360  0.65869  0.73151  Biso   1.000  F
  F4       1.0000 0.25880  0.82794  0.73870  Biso   1.000  F
  O7       1.0000 0.86320  0.69414  0.83733  Biso   1.000  O
  O8       1.0000 0.53110  0.71166  0.84787  Biso   1.000  O
  O9       1.0000 0.91700  0.29724  0.86252  Biso   1.000  O
  O10      1.0000 0.75660  0.77778  0.01396  Biso   1.000  O
  O11      1.0000 0.58560  0.28112  0.87383  Biso   1.000  O
  O12      1.0000 0.81170  0.23224  0.04845  Biso   1.000  O
  C4       1.0000 0.72980  0.58930  0.99790  Biso   1.000  C
  H7       1.0000 0.83880  0.58870  0.05670  Biso   1.000  H
  H8       1.0000 0.63000  0.58670  0.04270  Biso   1.000  H
  C5       1.0000 0.77020  0.41680  0.00790  Biso   1.000  C
  H9       1.0000 0.88710  0.42800  0.05530  Biso   1.000  H
  H10      1.0000 0.68400  0.41650  0.06370  Biso   1.000  H
  C6       1.0000 0.72620  0.50000  0.92150  Biso   1.000  C
  H11      1.0000 0.60870  0.49160  0.87350  Biso   1.000  H
  H12      1.0000 0.81370  0.50430  0.86690  Biso   1.000  H
  V3       1.0000 0.41195  0.70291  0.67750  Biso   1.000  V
  V4       1.0000 0.05334  0.76846  0.78576  Biso   1.000  V
  P5       1.0000 0.21910  0.80127  0.41934  Biso   1.000  P
  P6       1.0000 0.27213  0.19818  0.44284  Biso   1.000  P
  F5       1.0000 0.68360  0.84131  0.23151  Biso   1.000  F
  F6       1.0000 0.75880  0.67206  0.23870  Biso   1.000  F
  O13      1.0000 0.36320  0.80586  0.33733  Biso   1.000  O
  O14      1.0000 0.03110  0.78834  0.34787  Biso   1.000  O
  O15      1.0000 0.41700  0.20276  0.36252  Biso   1.000  O
  O16      1.0000 0.25660  0.72222  0.51396  Biso   1.000  O
  O17      1.0000 0.08560  0.21888  0.37383  Biso   1.000  O
  O18      1.0000 0.31170  0.26776  0.54845  Biso   1.000  O
  C7       1.0000 0.22980  0.91070  0.49790  Biso   1.000  C
  H13      1.0000 0.33880  0.91130  0.55670  Biso   1.000  H
  H14      1.0000 0.13000  0.91330  0.54270  Biso   1.000  H
  C8       1.0000 0.27020  0.08320  0.50790  Biso   1.000  C
  H15      1.0000 0.38710  0.07200  0.55530  Biso   1.000  H
  H16      1.0000 0.18400  0.08350  0.56370  Biso   1.000  H
  C9       1.0000 0.22620  0.00000  0.42150  Biso   1.000  C
  H17      1.0000 0.10870  0.00840  0.37350  Biso   1.000  H
  H18      1.0000 0.31370  0.99570  0.36690  Biso   1.000  H
  V5       1.0000 0.91195  0.79709  0.17750  Biso   1.000  V
  V6       1.0000 0.55334  0.73154  0.28576  Biso   1.000  V
  P7       1.0000 0.28090  0.30127  0.08066  Biso   1.000  P
  P8       1.0000 0.22787  0.69818  0.05716  Biso   1.000  P
  F7       1.0000 0.81640  0.34131  0.26849  Biso   1.000  F
  F8       1.0000 0.74120  0.17206  0.26130  Biso   1.000  F
  O19      1.0000 0.13680  0.30586  0.16267  Biso   1.000  O
  O20      1.0000 0.46890  0.28834  0.15213  Biso   1.000  O
  O21      1.0000 0.08300  0.70276  0.13748  Biso   1.000  O
  O22      1.0000 0.24340  0.22222  0.98604  Biso   1.000  O
  O23      1.0000 0.41440  0.71888  0.12617  Biso   1.000  O
  O24      1.0000 0.18830  0.76776  0.95155  Biso   1.000  O
  C10      1.0000 0.27020  0.41070  0.00210  Biso   1.000  C
  H19      1.0000 0.16120  0.41130  0.94330  Biso   1.000  H
  H20      1.0000 0.37000  0.41330  0.95730  Biso   1.000  H
  C11      1.0000 0.22980  0.58320  0.99210  Biso   1.000  C
  H21      1.0000 0.11290  0.57200  0.94470  Biso   1.000  H
  H22      1.0000 0.31600  0.58350  0.93630  Biso   1.000  H
  C12      1.0000 0.27380  0.50000  0.07850  Biso   1.000  C
  H23      1.0000 0.39130  0.50840  0.12650  Biso   1.000  H
  H24      1.0000 0.18630  0.49570  0.13310  Biso   1.000  H
  V7       1.0000 0.58805  0.29709  0.32250  Biso   1.000  V
  V8       1.0000 0.94666  0.23154  0.21424  Biso   1.000  V
