data_image0
_cell_length_a       9.0982
_cell_length_b       11.8549
_cell_length_c       12.0113
_cell_angle_alpha    103.128
_cell_angle_beta     90.775
_cell_angle_gamma    91.887

_symmetry_space_group_name_H-M    "P 1"
_symmetry_int_tables_number       1

loop_
  _symmetry_equiv_pos_as_xyz
  'x, y, z'

loop_
  _atom_site_label
  _atom_site_occupancy
  _atom_site_fract_x
  _atom_site_fract_y
  _atom_site_fract_z
  _atom_site_thermal_displace_type
  _atom_site_B_iso_or_equiv
  _atom_site_type_symbol
  P1       1.0000 0.80197  0.65389  0.43883  Biso   1.000  P
  P2       1.0000 0.40715  0.72522  0.47226  Biso   1.000  P
  P3       1.0000 0.77133  0.95765  0.14093  Biso   1.000  P
  P4       1.0000 0.37561  0.96021  0.23712  Biso   1.000  P
  F1       1.0000 0.93460  0.52165  0.59946  Biso   1.000  F
  F2       1.0000 0.04170  0.89542  0.99232  Biso   1.000  F
  O1       1.0000 0.77220  0.52200  0.40700  Biso   1.000  O
  O2       1.0000 0.26090  0.65870  0.46830  Biso   1.000  O
  O3       1.0000 0.96220  0.68890  0.48100  Biso   1.000  O
  O4       1.0000 0.77320  0.70630  0.33540  Biso   1.000  O
  O5       1.0000 0.47090  0.69230  0.35240  Biso   1.000  O
  O6       1.0000 0.58500  0.63850  0.14150  Biso   1.000  O
  H1       1.0000 0.63770  0.58520  0.15310  Biso   1.000  H
  O7       1.0000 0.74720  0.84410  0.18020  Biso   1.000  O
  O8       1.0000 0.44060  0.83980  0.20440  Biso   1.000  O
  O9       1.0000 0.38760  0.85600  0.51320  Biso   1.000  O
  O10      1.0000 0.62800  0.90820  0.39800  Biso   1.000  O
  O11      1.0000 0.37190  0.00750  0.36630  Biso   1.000  O
  O12      1.0000 0.21990  0.95360  0.18430  Biso   1.000  O
  O13      1.0000 0.75090  0.93640  0.01100  Biso   1.000  O
  O14      1.0000 0.92510  0.00760  0.18660  Biso   1.000  O
  C1       1.0000 0.69390  0.71690  0.56110  Biso   1.000  C
  H2       1.0000 0.74560  0.70410  0.62990  Biso   1.000  H
  H3       1.0000 0.69530  0.80160  0.56740  Biso   1.000  H
  C2       1.0000 0.53200  0.67620  0.56670  Biso   1.000  C
  H4       1.0000 0.49870  0.70350  0.64610  Biso   1.000  H
  H5       1.0000 0.52670  0.59040  0.54860  Biso   1.000  H
  C3       1.0000 0.64900  0.06820  0.20710  Biso   1.000  C
  H6       1.0000 0.65630  0.07520  0.29080  Biso   1.000  H
  H7       1.0000 0.68710  0.14260  0.19250  Biso   1.000  H
  C4       1.0000 0.48480  0.05590  0.17310  Biso   1.000  C
  H8       1.0000 0.47620  0.02820  0.08900  Biso   1.000  H
  H9       1.0000 0.44280  0.13370  0.19320  Biso   1.000  H
  V1       1.0000 0.89297  0.39316  0.43911  Biso   1.000  V
  V2       1.0000 0.60797  0.76668  0.26382  Biso   1.000  V
  V3       1.0000 0.10120  0.05789  0.11035  Biso   1.000  V
  P5       1.0000 0.19803  0.34611  0.56117  Biso   1.000  P
  P6       1.0000 0.59285  0.27478  0.52774  Biso   1.000  P
  P7       1.0000 0.22867  0.04235  0.85907  Biso   1.000  P
  P8       1.0000 0.62439  0.03979  0.76288  Biso   1.000  P
  F3       1.0000 0.06540  0.47835  0.40054  Biso   1.000  F
  F4       1.0000 0.95830  0.10458  0.00768  Biso   1.000  F
  O15      1.0000 0.22780  0.47800  0.59300  Biso   1.000  O
  O16      1.0000 0.73910  0.34130  0.53170  Biso   1.000  O
  O17      1.0000 0.03780  0.31110  0.51900  Biso   1.000  O
  O18      1.0000 0.22680  0.29370  0.66460  Biso   1.000  O
  O19      1.0000 0.52910  0.30770  0.64760  Biso   1.000  O
  O20      1.0000 0.41500  0.36150  0.85850  Biso   1.000  O
  H10      1.0000 0.36230  0.41480  0.84690  Biso   1.000  H
  O21      1.0000 0.25280  0.15590  0.81980  Biso   1.000  O
  O22      1.0000 0.55940  0.16020  0.79560  Biso   1.000  O
  O23      1.0000 0.61240  0.14400  0.48680  Biso   1.000  O
  O24      1.0000 0.37200  0.09180  0.60200  Biso   1.000  O
  O25      1.0000 0.62810  0.99250  0.63370  Biso   1.000  O
  O26      1.0000 0.78010  0.04640  0.81570  Biso   1.000  O
  O27      1.0000 0.24910  0.06360  0.98900  Biso   1.000  O
  O28      1.0000 0.07490  0.99240  0.81340  Biso   1.000  O
  C5       1.0000 0.30610  0.28310  0.43890  Biso   1.000  C
  H11      1.0000 0.25440  0.29590  0.37010  Biso   1.000  H
  H12      1.0000 0.30470  0.19840  0.43260  Biso   1.000  H
  C6       1.0000 0.46800  0.32380  0.43330  Biso   1.000  C
  H13      1.0000 0.50130  0.29650  0.35390  Biso   1.000  H
  H14      1.0000 0.47330  0.40960  0.45140  Biso   1.000  H
  C7       1.0000 0.35100  0.93180  0.79290  Biso   1.000  C
  H15      1.0000 0.34370  0.92480  0.70920  Biso   1.000  H
  H16      1.0000 0.31290  0.85740  0.80750  Biso   1.000  H
  C8       1.0000 0.51520  0.94410  0.82690  Biso   1.000  C
  H17      1.0000 0.52380  0.97180  0.91100  Biso   1.000  H
  H18      1.0000 0.55720  0.86630  0.80680  Biso   1.000  H
  V4       1.0000 0.10703  0.60684  0.56089  Biso   1.000  V
  V5       1.0000 0.39203  0.23332  0.73618  Biso   1.000  V
  V6       1.0000 0.89880  0.94211  0.88965  Biso   1.000  V
  V7       1.0000 0.50000  0.00000  0.50000  Biso   1.000  V
