data_image0
_cell_length_a       6.8094
_cell_length_b       12.422
_cell_length_c       17.1733
_cell_angle_alpha    90
_cell_angle_beta     90
_cell_angle_gamma    90

_symmetry_space_group_name_H-M    "P 1"
_symmetry_int_tables_number       1

loop_
  _symmetry_equiv_pos_as_xyz
  'x, y, z'

loop_
  _atom_site_label
  _atom_site_occupancy
  _atom_site_fract_x
  _atom_site_fract_y
  _atom_site_fract_z
  _atom_site_thermal_displace_type
  _atom_site_B_iso_or_equiv
  _atom_site_type_symbol
  V1       1.0000 0.06055  0.26567  0.00084  Biso   1.000  V
  O1       1.0000 0.27830  0.31685  0.00492  Biso   1.000  O
  O2       1.0000 0.11220  0.17110  0.91063  Biso   1.000  O
  O3       1.0000 0.11190  0.14830  0.07571  Biso   1.000  O
  O4       1.0000 0.93940  0.34460  0.08929  Biso   1.000  O
  O5       1.0000 0.93940  0.36720  0.92476  Biso   1.000  O
  C1       1.0000 0.27350  0.13860  0.88222  Biso   1.000  C
  C2       1.0000 0.26170  0.07640  0.80846  Biso   1.000  C
  C3       1.0000 0.08010  0.05220  0.77610  Biso   1.000  C
  H1       1.0000 0.96540  0.07580  0.80000  Biso   1.000  H
  C4       1.0000 0.07090  0.99260  0.70790  Biso   1.000  C
  H2       1.0000 0.94940  0.97640  0.68620  Biso   1.000  H
  C5       1.0000 0.43270  0.04030  0.77250  Biso   1.000  C
  H3       1.0000 0.55460  0.05570  0.79420  Biso   1.000  H
  C6       1.0000 0.42030  0.98150  0.70450  Biso   1.000  C
  H4       1.0000 0.53440  0.95790  0.68010  Biso   1.000  H
  C7       1.0000 0.27070  0.11300  0.10193  Biso   1.000  C
  C8       1.0000 0.23880  0.95740  0.67237  Biso   1.000  C
  V2       1.0000 0.43945  0.73433  0.50084  Biso   1.000  V
  O6       1.0000 0.22170  0.68315  0.50492  Biso   1.000  O
  O7       1.0000 0.38780  0.82890  0.41063  Biso   1.000  O
  O8       1.0000 0.38810  0.85170  0.57571  Biso   1.000  O
  O9       1.0000 0.56060  0.65540  0.58929  Biso   1.000  O
  O10      1.0000 0.56060  0.63280  0.42476  Biso   1.000  O
  C9       1.0000 0.22650  0.86140  0.38222  Biso   1.000  C
  C10      1.0000 0.23830  0.92360  0.30846  Biso   1.000  C
  C11      1.0000 0.41990  0.94780  0.27610  Biso   1.000  C
  H5       1.0000 0.53460  0.92420  0.30000  Biso   1.000  H
  C12      1.0000 0.42910  0.00740  0.20790  Biso   1.000  C
  H6       1.0000 0.55060  0.02360  0.18620  Biso   1.000  H
  C13      1.0000 0.06730  0.95970  0.27250  Biso   1.000  C
  H7       1.0000 0.94540  0.94430  0.29420  Biso   1.000  H
  C14      1.0000 0.07970  0.01850  0.20450  Biso   1.000  C
  H8       1.0000 0.96560  0.04210  0.18010  Biso   1.000  H
  C15      1.0000 0.22930  0.88700  0.60193  Biso   1.000  C
  C16      1.0000 0.26120  0.04260  0.17237  Biso   1.000  C
  V3       1.0000 0.93945  0.76567  0.49916  Biso   1.000  V
  O11      1.0000 0.72170  0.81685  0.49508  Biso   1.000  O
  O12      1.0000 0.88780  0.67110  0.58937  Biso   1.000  O
  O13      1.0000 0.88810  0.64830  0.42429  Biso   1.000  O
  O14      1.0000 0.06060  0.84460  0.41071  Biso   1.000  O
  O15      1.0000 0.06060  0.86720  0.57524  Biso   1.000  O
  C17      1.0000 0.72650  0.63860  0.61778  Biso   1.000  C
  C18      1.0000 0.73830  0.57640  0.69154  Biso   1.000  C
  C19      1.0000 0.91990  0.55220  0.72390  Biso   1.000  C
  H9       1.0000 0.03460  0.57580  0.70000  Biso   1.000  H
  C20      1.0000 0.92910  0.49260  0.79210  Biso   1.000  C
  H10      1.0000 0.05060  0.47640  0.81380  Biso   1.000  H
  C21      1.0000 0.56730  0.54030  0.72750  Biso   1.000  C
  H11      1.0000 0.44540  0.55570  0.70580  Biso   1.000  H
  C22      1.0000 0.57970  0.48150  0.79550  Biso   1.000  C
  H12      1.0000 0.46560  0.45790  0.81990  Biso   1.000  H
  C23      1.0000 0.72930  0.61300  0.39807  Biso   1.000  C
  C24      1.0000 0.76120  0.45740  0.82763  Biso   1.000  C
  V4       1.0000 0.56055  0.23433  0.99916  Biso   1.000  V
  O16      1.0000 0.77830  0.18315  0.99508  Biso   1.000  O
  O17      1.0000 0.61220  0.32890  0.08937  Biso   1.000  O
  O18      1.0000 0.61190  0.35170  0.92429  Biso   1.000  O
  O19      1.0000 0.43940  0.15540  0.91071  Biso   1.000  O
  O20      1.0000 0.43940  0.13280  0.07524  Biso   1.000  O
  C25      1.0000 0.77350  0.36140  0.11778  Biso   1.000  C
  C26      1.0000 0.76170  0.42360  0.19154  Biso   1.000  C
  C27      1.0000 0.58010  0.44780  0.22390  Biso   1.000  C
  H13      1.0000 0.46540  0.42420  0.20000  Biso   1.000  H
  C28      1.0000 0.57090  0.50740  0.29210  Biso   1.000  C
  H14      1.0000 0.44940  0.52360  0.31380  Biso   1.000  H
  C29      1.0000 0.93270  0.45970  0.22750  Biso   1.000  C
  H15      1.0000 0.05460  0.44430  0.20580  Biso   1.000  H
  C30      1.0000 0.92030  0.51850  0.29550  Biso   1.000  C
  H16      1.0000 0.03440  0.54210  0.31990  Biso   1.000  H
  C31      1.0000 0.77070  0.38700  0.89807  Biso   1.000  C
  C32      1.0000 0.73880  0.54260  0.32763  Biso   1.000  C
