data_PEPLIG_clean
_audit_creation_date              2014-07-02
_audit_creation_method            'Materials Studio'
_symmetry_space_group_name_H-M    'P1'
_symmetry_Int_Tables_number       1
_symmetry_cell_setting            triclinic
loop_
_symmetry_equiv_pos_as_xyz
  x,y,z
_cell_length_a                    6.7858
_cell_length_b                    12.6180
_cell_length_c                    17.0860
_cell_angle_alpha                 90.0000
_cell_angle_beta                  90.0000
_cell_angle_gamma                 90.0000
loop_
_atom_site_label
_atom_site_type_symbol
_atom_site_fract_x
_atom_site_fract_y
_atom_site_fract_z
_atom_site_U_iso_or_equiv
_atom_site_adp_type
_atom_site_occupancy
V1     V     0.94114   0.26540   0.00074   0.01267  Uiso   1.00
V2     V     0.55886   0.73460   0.50074   0.01267  Uiso   1.00
V3     V     0.05886   0.76540   0.49926   0.01267  Uiso   1.00
V4     V     0.44114   0.23460   0.99926   0.01267  Uiso   1.00
H1     H     0.94950   0.46360   0.19440   0.01267  Uiso   1.00
H2     H     0.54530   0.50450   0.32330   0.01267  Uiso   1.00
H3     H     0.53020   0.40370   0.21110   0.01267  Uiso   1.00
H4     H     0.96850   0.56550   0.30790   0.01267  Uiso   1.00
H5     H     0.55050   0.53640   0.69440   0.01267  Uiso   1.00
H6     H     0.95470   0.49550   0.82330   0.01267  Uiso   1.00
H7     H     0.96980   0.59630   0.71110   0.01267  Uiso   1.00
H8     H     0.53150   0.43450   0.80790   0.01267  Uiso   1.00
H9     H     0.05050   0.96360   0.30560   0.01267  Uiso   1.00
H10    H     0.45470   0.00450   0.17670   0.01267  Uiso   1.00
H11    H     0.46980   0.90370   0.28890   0.01267  Uiso   1.00
H12    H     0.03150   0.06550   0.19210   0.01267  Uiso   1.00
H13    H     0.44950   0.03640   0.80560   0.01267  Uiso   1.00
H14    H     0.04530   0.99550   0.67670   0.01267  Uiso   1.00
H15    H     0.03020   0.09630   0.78890   0.01267  Uiso   1.00
H16    H     0.46850   0.93450   0.69210   0.01267  Uiso   1.00
C1     C     0.23930   0.42560   0.19070   0.01267  Uiso   1.00
C2     C     0.06950   0.47250   0.21990   0.01267  Uiso   1.00
C3     C     0.22740   0.36250   0.11740   0.01267  Uiso   1.00
C4     C     0.42560   0.49670   0.29740   0.01267  Uiso   1.00
C5     C     0.41730   0.43660   0.23010   0.01267  Uiso   1.00
C6     C     0.26030   0.54500   0.32680   0.01267  Uiso   1.00
C7     C     0.08100   0.53300   0.28810   0.01267  Uiso   1.00
C8     C     0.27020   0.61540   0.39680   0.01267  Uiso   1.00
C9     C     0.26070   0.57440   0.69070   0.01267  Uiso   1.00
C10    C     0.43050   0.52750   0.71990   0.01267  Uiso   1.00
C11    C     0.27260   0.63750   0.61740   0.01267  Uiso   1.00
C12    C     0.07440   0.50330   0.79740   0.01267  Uiso   1.00
C13    C     0.08270   0.56340   0.73010   0.01267  Uiso   1.00
C14    C     0.23970   0.45500   0.82680   0.01267  Uiso   1.00
C15    C     0.41900   0.46700   0.78810   0.01267  Uiso   1.00
C16    C     0.22980   0.38460   0.89680   0.01267  Uiso   1.00
C17    C     0.76070   0.92560   0.30930   0.01267  Uiso   1.00
C18    C     0.93050   0.97250   0.28010   0.01267  Uiso   1.00
C19    C     0.77260   0.86250   0.38260   0.01267  Uiso   1.00
C20    C     0.57440   0.99670   0.20260   0.01267  Uiso   1.00
C21    C     0.58270   0.93660   0.26990   0.01267  Uiso   1.00
C22    C     0.73970   0.04500   0.17320   0.01267  Uiso   1.00
C23    C     0.91900   0.03300   0.21190   0.01267  Uiso   1.00
C24    C     0.72980   0.11540   0.10320   0.01267  Uiso   1.00
C25    C     0.73930   0.07440   0.80930   0.01267  Uiso   1.00
C26    C     0.56950   0.02750   0.78010   0.01267  Uiso   1.00
C27    C     0.72740   0.13750   0.88260   0.01267  Uiso   1.00
C28    C     0.92560   0.00330   0.70260   0.01267  Uiso   1.00
C29    C     0.91730   0.06340   0.76990   0.01267  Uiso   1.00
C30    C     0.76030   0.95500   0.67320   0.01267  Uiso   1.00
C31    C     0.58100   0.96700   0.71190   0.01267  Uiso   1.00
C32    C     0.77020   0.88460   0.60320   0.01267  Uiso   1.00
O1     O     0.22240   0.18534   0.99604   0.01267  Uiso   1.00
O2     O     0.06200   0.34490   0.08833   0.01267  Uiso   1.00
O3     O     0.44100   0.63500   0.42387   0.01267  Uiso   1.00
O4     O     0.10960   0.65050   0.42316   0.01267  Uiso   1.00
O5     O     0.39020   0.32990   0.08930   0.01267  Uiso   1.00
O6     O     0.27760   0.81466   0.49604   0.01267  Uiso   1.00
O7     O     0.43800   0.65510   0.58833   0.01267  Uiso   1.00
O8     O     0.05900   0.36500   0.92387   0.01267  Uiso   1.00
O9     O     0.39040   0.34950   0.92316   0.01267  Uiso   1.00
O10    O     0.10980   0.67010   0.58930   0.01267  Uiso   1.00
O11    O     0.77760   0.68534   0.50396   0.01267  Uiso   1.00
O12    O     0.93800   0.84490   0.41167   0.01267  Uiso   1.00
O13    O     0.55900   0.13500   0.07613   0.01267  Uiso   1.00
O14    O     0.89040   0.15050   0.07684   0.01267  Uiso   1.00
O15    O     0.60980   0.82990   0.41070   0.01267  Uiso   1.00
O16    O     0.72240   0.31466   0.00396   0.01267  Uiso   1.00
O17    O     0.56200   0.15510   0.91167   0.01267  Uiso   1.00
O18    O     0.94100   0.86500   0.57613   0.01267  Uiso   1.00
O19    O     0.60960   0.84950   0.57684   0.01267  Uiso   1.00
O20    O     0.89020   0.17010   0.91070   0.01267  Uiso   1.00
