data_PEPLOM_clean
_audit_creation_date              2014-07-02
_audit_creation_method            'Materials Studio'
_symmetry_space_group_name_H-M    'P1'
_symmetry_Int_Tables_number       1
_symmetry_cell_setting            triclinic
loop_
_symmetry_equiv_pos_as_xyz
  x,y,z
_cell_length_a                    6.7960
_cell_length_b                    10.2140
_cell_length_c                    18.4100
_cell_angle_alpha                 90.0000
_cell_angle_beta                  90.0000
_cell_angle_gamma                 90.0000
loop_
_atom_site_label
_atom_site_type_symbol
_atom_site_fract_x
_atom_site_fract_y
_atom_site_fract_z
_atom_site_U_iso_or_equiv
_atom_site_adp_type
_atom_site_occupancy
V1     V     0.80070   0.26770   0.25000   0.01267  Uiso   1.00
V2     V     0.69930   0.76770   0.75000   0.01267  Uiso   1.00
V3     V     0.19930   0.73230   0.75000   0.01267  Uiso   1.00
V4     V     0.30070   0.23230   0.25000   0.01267  Uiso   1.00
H1     H     0.29740   0.02400   0.44210   0.01267  Uiso   1.00
H2     H     0.71410   0.05990   0.44160   0.01267  Uiso   1.00
H3     H     0.20260   0.52400   0.55790   0.01267  Uiso   1.00
H4     H     0.78590   0.55990   0.55840   0.01267  Uiso   1.00
H5     H     0.70260   0.97600   0.94210   0.01267  Uiso   1.00
H6     H     0.28590   0.94010   0.94160   0.01267  Uiso   1.00
H7     H     0.79740   0.47600   0.05790   0.01267  Uiso   1.00
H8     H     0.21410   0.44010   0.05840   0.01267  Uiso   1.00
H9     H     0.70260   0.97600   0.55790   0.01267  Uiso   1.00
H10    H     0.28590   0.94010   0.55840   0.01267  Uiso   1.00
H11    H     0.79740   0.47600   0.44210   0.01267  Uiso   1.00
H12    H     0.21410   0.44010   0.44160   0.01267  Uiso   1.00
H13    H     0.29740   0.02400   0.05790   0.01267  Uiso   1.00
H14    H     0.71410   0.05990   0.05840   0.01267  Uiso   1.00
H15    H     0.20260   0.52400   0.94210   0.01267  Uiso   1.00
H16    H     0.78590   0.55990   0.94160   0.01267  Uiso   1.00
C1     C     0.01380   0.10840   0.35630   0.01267  Uiso   1.00
C2     C     0.00720   0.04770   0.43030   0.01267  Uiso   1.00
C3     C     0.17700   0.01390   0.46540   0.01267  Uiso   1.00
C4     C     0.83000   0.03520   0.46500   0.01267  Uiso   1.00
C5     C     0.48620   0.60840   0.64370   0.01267  Uiso   1.00
C6     C     0.49280   0.54770   0.56970   0.01267  Uiso   1.00
C7     C     0.32300   0.51390   0.53460   0.01267  Uiso   1.00
C8     C     0.67000   0.53520   0.53500   0.01267  Uiso   1.00
C9     C     0.98620   0.89160   0.85630   0.01267  Uiso   1.00
C10    C     0.99280   0.95230   0.93030   0.01267  Uiso   1.00
C11    C     0.82300   0.98610   0.96540   0.01267  Uiso   1.00
C12    C     0.17000   0.96480   0.96500   0.01267  Uiso   1.00
C13    C     0.51380   0.39160   0.14370   0.01267  Uiso   1.00
C14    C     0.50720   0.45230   0.06970   0.01267  Uiso   1.00
C15    C     0.67700   0.48610   0.03460   0.01267  Uiso   1.00
C16    C     0.33000   0.46480   0.03500   0.01267  Uiso   1.00
C17    C     0.98620   0.89160   0.64370   0.01267  Uiso   1.00
C18    C     0.99280   0.95230   0.56970   0.01267  Uiso   1.00
C19    C     0.82300   0.98610   0.53460   0.01267  Uiso   1.00
C20    C     0.17000   0.96480   0.53500   0.01267  Uiso   1.00
C21    C     0.51380   0.39160   0.35630   0.01267  Uiso   1.00
C22    C     0.50720   0.45230   0.43030   0.01267  Uiso   1.00
C23    C     0.67700   0.48610   0.46540   0.01267  Uiso   1.00
C24    C     0.33000   0.46480   0.46500   0.01267  Uiso   1.00
C25    C     0.01380   0.10840   0.14370   0.01267  Uiso   1.00
C26    C     0.00720   0.04770   0.06970   0.01267  Uiso   1.00
C27    C     0.17700   0.01390   0.03460   0.01267  Uiso   1.00
C28    C     0.83000   0.03520   0.03500   0.01267  Uiso   1.00
C29    C     0.48620   0.60840   0.85630   0.01267  Uiso   1.00
C30    C     0.49280   0.54770   0.93030   0.01267  Uiso   1.00
C31    C     0.32300   0.51390   0.96540   0.01267  Uiso   1.00
C32    C     0.67000   0.53520   0.96500   0.01267  Uiso   1.00
O1     O     0.85170   0.13970   0.32750   0.01267  Uiso   1.00
O2     O     0.18070   0.12420   0.32830   0.01267  Uiso   1.00
O3     O     0.64830   0.63970   0.67250   0.01267  Uiso   1.00
O4     O     0.31930   0.62420   0.67170   0.01267  Uiso   1.00
O5     O     0.14830   0.86030   0.82750   0.01267  Uiso   1.00
O6     O     0.81930   0.87580   0.82830   0.01267  Uiso   1.00
O7     O     0.35170   0.36030   0.17250   0.01267  Uiso   1.00
O8     O     0.68070   0.37580   0.17170   0.01267  Uiso   1.00
O9     O     0.14830   0.86030   0.67250   0.01267  Uiso   1.00
O10    O     0.81930   0.87580   0.67170   0.01267  Uiso   1.00
O11    O     0.35170   0.36030   0.32750   0.01267  Uiso   1.00
O12    O     0.68070   0.37580   0.32830   0.01267  Uiso   1.00
O13    O     0.85170   0.13970   0.17250   0.01267  Uiso   1.00
O14    O     0.18070   0.12420   0.17170   0.01267  Uiso   1.00
O15    O     0.64830   0.63970   0.82750   0.01267  Uiso   1.00
O16    O     0.31930   0.62420   0.82830   0.01267  Uiso   1.00
O17    O     0.01600   0.32840   0.25000   0.01267  Uiso   1.00
O18    O     0.48400   0.82840   0.75000   0.01267  Uiso   1.00
O19    O     0.98400   0.67160   0.75000   0.01267  Uiso   1.00
O20    O     0.51600   0.17160   0.25000   0.01267  Uiso   1.00
