data_PEQRUZ_clean
_audit_creation_date              2014-07-02
_audit_creation_method            'Materials Studio'
_symmetry_space_group_name_H-M    'P1'
_symmetry_Int_Tables_number       1
_symmetry_cell_setting            triclinic
loop_
_symmetry_equiv_pos_as_xyz
  x,y,z
_cell_length_a                    13.3297
_cell_length_b                    16.3213
_cell_length_c                    16.3213
_cell_angle_alpha                 80.4010
_cell_angle_beta                  65.8987
_cell_angle_gamma                 65.8987
loop_
_atom_site_label
_atom_site_type_symbol
_atom_site_fract_x
_atom_site_fract_y
_atom_site_fract_z
_atom_site_U_iso_or_equiv
_atom_site_adp_type
_atom_site_occupancy
Na1    Na    0.39379   0.93040   0.09248   0.01267  Uiso   1.00
Na2    Na    0.41667   0.06960   0.90752   0.01267  Uiso   1.00
Na3    Na    0.73627   0.40752   0.43040   0.01267  Uiso   1.00
Na4    Na    0.57419   0.59248   0.56960   0.01267  Uiso   1.00
Na5    Na    0.91667   0.90752   0.06960   0.01267  Uiso   1.00
Na6    Na    0.89379   0.09248   0.93040   0.01267  Uiso   1.00
Na7    Na    0.07419   0.56960   0.59248   0.01267  Uiso   1.00
Na8    Na    0.23627   0.43040   0.40752   0.01267  Uiso   1.00
Co1    Co    0.63702   0.00000   0.00000   0.01267  Uiso   1.00
Co2    Co    0.88702   0.50000   0.50000   0.01267  Uiso   1.00
Co3    Co    0.13702   0.00000   0.00000   0.01267  Uiso   1.00
Co4    Co    0.38702   0.50000   0.50000   0.01267  Uiso   1.00
H1     H     0.64110   0.73040   0.16020   0.01267  Uiso   1.00
H2     H     0.67560   0.62330   0.26890   0.01267  Uiso   1.00
H3     H     0.79010   0.74690   0.43550   0.01267  Uiso   1.00
H4     H     0.80190   0.88190   0.43610   0.01267  Uiso   1.00
H5     H     0.76710   0.98890   0.32890   0.01267  Uiso   1.00
H6     H     0.70810   0.96530   0.22550   0.01267  Uiso   1.00
H7     H     0.53170   0.26960   0.83980   0.01267  Uiso   1.00
H8     H     0.56780   0.37670   0.73110   0.01267  Uiso   1.00
H9     H     0.97250   0.25310   0.56450   0.01267  Uiso   1.00
H10    H     0.11990   0.11810   0.56390   0.01267  Uiso   1.00
H11    H     0.08490   0.01110   0.67110   0.01267  Uiso   1.00
H12    H     0.89890   0.03470   0.77450   0.01267  Uiso   1.00
H13    H     0.05130   0.33980   0.23040   0.01267  Uiso   1.00
H14    H     0.19450   0.23110   0.12330   0.01267  Uiso   1.00
H15    H     0.47560   0.06450   0.24690   0.01267  Uiso   1.00
H16    H     0.48800   0.06390   0.38190   0.01267  Uiso   1.00
H17    H     0.34600   0.17110   0.48890   0.01267  Uiso   1.00
H18    H     0.18360   0.27450   0.46530   0.01267  Uiso   1.00
H19    H     0.62150   0.66020   0.76960   0.01267  Uiso   1.00
H20    H     0.54890   0.76890   0.87670   0.01267  Uiso   1.00
H21    H     0.78700   0.93550   0.75310   0.01267  Uiso   1.00
H22    H     0.93380   0.93610   0.61810   0.01267  Uiso   1.00
H23    H     0.00600   0.82890   0.51110   0.01267  Uiso   1.00
H24    H     0.92340   0.72550   0.53470   0.01267  Uiso   1.00
H25    H     0.03170   0.83980   0.26960   0.01267  Uiso   1.00
H26    H     0.06780   0.73110   0.37670   0.01267  Uiso   1.00
H27    H     0.47250   0.56450   0.25310   0.01267  Uiso   1.00
H28    H     0.61990   0.56390   0.11810   0.01267  Uiso   1.00
H29    H     0.58490   0.67110   0.01110   0.01267  Uiso   1.00
H30    H     0.39890   0.77450   0.03470   0.01267  Uiso   1.00
H31    H     0.14110   0.16020   0.73040   0.01267  Uiso   1.00
H32    H     0.17560   0.26890   0.62330   0.01267  Uiso   1.00
H33    H     0.29010   0.43550   0.74690   0.01267  Uiso   1.00
H34    H     0.30190   0.43610   0.88190   0.01267  Uiso   1.00
H35    H     0.26710   0.32890   0.98890   0.01267  Uiso   1.00
H36    H     0.20810   0.22550   0.96530   0.01267  Uiso   1.00
H37    H     0.12150   0.76960   0.66020   0.01267  Uiso   1.00
H38    H     0.04890   0.87670   0.76890   0.01267  Uiso   1.00
H39    H     0.28700   0.75310   0.93550   0.01267  Uiso   1.00
H40    H     0.43380   0.61810   0.93610   0.01267  Uiso   1.00
H41    H     0.50600   0.51110   0.82890   0.01267  Uiso   1.00
H42    H     0.42340   0.53470   0.72550   0.01267  Uiso   1.00
H43    H     0.55130   0.23040   0.33980   0.01267  Uiso   1.00
H44    H     0.69450   0.12330   0.23110   0.01267  Uiso   1.00
H45    H     0.97560   0.24690   0.06450   0.01267  Uiso   1.00
H46    H     0.98800   0.38190   0.06390   0.01267  Uiso   1.00
H47    H     0.84600   0.48890   0.17110   0.01267  Uiso   1.00
H48    H     0.68360   0.46530   0.27450   0.01267  Uiso   1.00
C1     C     0.66129   0.88216   0.12146   0.01267  Uiso   1.00
C2     C     0.68249   0.81863   0.19739   0.01267  Uiso   1.00
C3     C     0.66660   0.74076   0.20124   0.01267  Uiso   1.00
C4     C     0.68840   0.67569   0.26671   0.01267  Uiso   1.00
C5     C     0.72772   0.68765   0.32671   0.01267  Uiso   1.00
C6     C     0.74054   0.77029   0.32743   0.01267  Uiso   1.00
C7     C     0.77360   0.78977   0.39263   0.01267  Uiso   1.00
C8     C     0.78140   0.87010   0.39250   0.01267  Uiso   1.00
C9     C     0.75912   0.93499   0.32877   0.01267  Uiso   1.00
C10    C     0.72588   0.92024   0.26640   0.01267  Uiso   1.00
C11    C     0.71770   0.83742   0.26218   0.01267  Uiso   1.00
C12    C     0.75300   0.60991   0.39149   0.01267  Uiso   1.00
C13    C     0.66491   0.11784   0.87854   0.01267  Uiso   1.00
C14    C     0.69851   0.18137   0.80261   0.01267  Uiso   1.00
C15    C     0.60860   0.25924   0.79876   0.01267  Uiso   1.00
C16    C     0.63080   0.32431   0.73329   0.01267  Uiso   1.00
C17    C     0.74208   0.31235   0.67329   0.01267  Uiso   1.00
C18    C     0.83826   0.22971   0.67257   0.01267  Uiso   1.00
C19    C     0.95600   0.21023   0.60737   0.01267  Uiso   1.00
C20    C     0.04400   0.12990   0.60750   0.01267  Uiso   1.00
C21    C     0.02288   0.06501   0.67123   0.01267  Uiso   1.00
C22    C     0.91252   0.07976   0.73360   0.01267  Uiso   1.00
C23    C     0.81730   0.16258   0.73782   0.01267  Uiso   1.00
C24    C     0.75440   0.39009   0.60851   0.01267  Uiso   1.00
C25    C     0.03275   0.37854   0.38216   0.01267  Uiso   1.00
C26    C     0.12988   0.30261   0.31863   0.01267  Uiso   1.00
C27    C     0.11784   0.29876   0.24076   0.01267  Uiso   1.00
C28    C     0.20511   0.23329   0.17569   0.01267  Uiso   1.00
C29    C     0.30443   0.17329   0.18765   0.01267  Uiso   1.00
C30    C     0.31797   0.17257   0.27029   0.01267  Uiso   1.00
C31    C     0.41623   0.10737   0.28977   0.01267  Uiso   1.00
C32    C     0.42390   0.10750   0.37010   0.01267  Uiso   1.00
C33    C     0.33789   0.17123   0.43499   0.01267  Uiso   1.00
C34    C     0.24228   0.23360   0.42024   0.01267  Uiso   1.00
C35    C     0.22988   0.23782   0.33742   0.01267  Uiso   1.00
C36    C     0.39449   0.10851   0.10991   0.01267  Uiso   1.00
C37    C     0.79345   0.62146   0.61784   0.01267  Uiso   1.00
C38    C     0.75112   0.69739   0.68137   0.01267  Uiso   1.00
C39    C     0.65736   0.70124   0.75924   0.01267  Uiso   1.00
C40    C     0.61409   0.76671   0.82431   0.01267  Uiso   1.00
C41    C     0.66537   0.82671   0.81235   0.01267  Uiso   1.00
C42    C     0.76083   0.82743   0.72971   0.01267  Uiso   1.00
C43    C     0.81337   0.89263   0.71023   0.01267  Uiso   1.00
C44    C     0.90150   0.89250   0.62990   0.01267  Uiso   1.00
C45    C     0.94411   0.82877   0.56501   0.01267  Uiso   1.00
C46    C     0.89612   0.76640   0.57976   0.01267  Uiso   1.00
C47    C     0.80512   0.76218   0.66258   0.01267  Uiso   1.00
C48    C     0.61291   0.89149   0.89009   0.01267  Uiso   1.00
C49    C     0.16491   0.87854   0.11784   0.01267  Uiso   1.00
C50    C     0.19851   0.80261   0.18137   0.01267  Uiso   1.00
C51    C     0.10860   0.79876   0.25924   0.01267  Uiso   1.00
C52    C     0.13080   0.73329   0.32431   0.01267  Uiso   1.00
C53    C     0.24208   0.67329   0.31235   0.01267  Uiso   1.00
C54    C     0.33826   0.67257   0.22971   0.01267  Uiso   1.00
C55    C     0.45600   0.60737   0.21023   0.01267  Uiso   1.00
C56    C     0.54400   0.60750   0.12990   0.01267  Uiso   1.00
C57    C     0.52288   0.67123   0.06501   0.01267  Uiso   1.00
C58    C     0.41252   0.73360   0.07976   0.01267  Uiso   1.00
C59    C     0.31730   0.73782   0.16258   0.01267  Uiso   1.00
C60    C     0.25440   0.60851   0.39009   0.01267  Uiso   1.00
C61    C     0.16129   0.12146   0.88216   0.01267  Uiso   1.00
C62    C     0.18249   0.19739   0.81863   0.01267  Uiso   1.00
C63    C     0.16660   0.20124   0.74076   0.01267  Uiso   1.00
C64    C     0.18840   0.26671   0.67569   0.01267  Uiso   1.00
C65    C     0.22772   0.32671   0.68765   0.01267  Uiso   1.00
C66    C     0.24054   0.32743   0.77029   0.01267  Uiso   1.00
C67    C     0.27360   0.39263   0.78977   0.01267  Uiso   1.00
C68    C     0.28140   0.39250   0.87010   0.01267  Uiso   1.00
C69    C     0.25912   0.32877   0.93499   0.01267  Uiso   1.00
C70    C     0.22588   0.26640   0.92024   0.01267  Uiso   1.00
C71    C     0.21770   0.26218   0.83742   0.01267  Uiso   1.00
C72    C     0.25300   0.39149   0.60991   0.01267  Uiso   1.00
C73    C     0.29345   0.61784   0.62146   0.01267  Uiso   1.00
C74    C     0.25112   0.68137   0.69739   0.01267  Uiso   1.00
C75    C     0.15736   0.75924   0.70124   0.01267  Uiso   1.00
C76    C     0.11409   0.82431   0.76671   0.01267  Uiso   1.00
C77    C     0.16537   0.81235   0.82671   0.01267  Uiso   1.00
C78    C     0.26083   0.72971   0.82743   0.01267  Uiso   1.00
C79    C     0.31337   0.71023   0.89263   0.01267  Uiso   1.00
C80    C     0.40150   0.62990   0.89250   0.01267  Uiso   1.00
C81    C     0.44411   0.56501   0.82877   0.01267  Uiso   1.00
C82    C     0.39612   0.57976   0.76640   0.01267  Uiso   1.00
C83    C     0.30512   0.66258   0.76218   0.01267  Uiso   1.00
C84    C     0.11291   0.89009   0.89149   0.01267  Uiso   1.00
C85    C     0.53275   0.38216   0.37854   0.01267  Uiso   1.00
C86    C     0.62988   0.31863   0.30261   0.01267  Uiso   1.00
C87    C     0.61784   0.24076   0.29876   0.01267  Uiso   1.00
C88    C     0.70511   0.17569   0.23329   0.01267  Uiso   1.00
C89    C     0.80443   0.18765   0.17329   0.01267  Uiso   1.00
C90    C     0.81797   0.27029   0.17257   0.01267  Uiso   1.00
C91    C     0.91623   0.28977   0.10737   0.01267  Uiso   1.00
C92    C     0.92390   0.37010   0.10750   0.01267  Uiso   1.00
C93    C     0.83789   0.43499   0.17123   0.01267  Uiso   1.00
C94    C     0.74228   0.42024   0.23360   0.01267  Uiso   1.00
C95    C     0.72988   0.33742   0.23782   0.01267  Uiso   1.00
C96    C     0.89449   0.10991   0.10851   0.01267  Uiso   1.00
O1     O     0.57903   0.88949   0.10005   0.01267  Uiso   1.00
O2     O     0.72755   0.92620   0.08180   0.01267  Uiso   1.00
O3     O     0.83783   0.59664   0.41550   0.01267  Uiso   1.00
O4     O     0.69024   0.56513   0.41599   0.01267  Uiso   1.00
O5     O     0.56857   0.11051   0.89995   0.01267  Uiso   1.00
O6     O     0.73555   0.07380   0.91820   0.01267  Uiso   1.00
O7     O     0.84997   0.40336   0.58450   0.01267  Uiso   1.00
O8     O     0.67136   0.43487   0.58401   0.01267  Uiso   1.00
O9     O     0.92908   0.39995   0.38949   0.01267  Uiso   1.00
O10    O     0.05935   0.41820   0.42620   0.01267  Uiso   1.00
O11    O     0.50333   0.08450   0.09664   0.01267  Uiso   1.00
O12    O     0.35623   0.08401   0.06513   0.01267  Uiso   1.00
O13    O     0.71852   0.60005   0.61051   0.01267  Uiso   1.00
O14    O     0.90375   0.58180   0.57380   0.01267  Uiso   1.00
O15    O     0.68447   0.91550   0.90336   0.01267  Uiso   1.00
O16    O     0.50537   0.91599   0.93487   0.01267  Uiso   1.00
O17    O     0.06857   0.89995   0.11051   0.01267  Uiso   1.00
O18    O     0.23555   0.91820   0.07380   0.01267  Uiso   1.00
O19    O     0.34997   0.58450   0.40336   0.01267  Uiso   1.00
O20    O     0.17136   0.58401   0.43487   0.01267  Uiso   1.00
O21    O     0.07903   0.10005   0.88949   0.01267  Uiso   1.00
O22    O     0.22755   0.08180   0.92620   0.01267  Uiso   1.00
O23    O     0.33783   0.41550   0.59664   0.01267  Uiso   1.00
O24    O     0.19024   0.41599   0.56513   0.01267  Uiso   1.00
O25    O     0.21852   0.61051   0.60005   0.01267  Uiso   1.00
O26    O     0.40375   0.57380   0.58180   0.01267  Uiso   1.00
O27    O     0.18447   0.90336   0.91550   0.01267  Uiso   1.00
O28    O     0.00537   0.93487   0.91599   0.01267  Uiso   1.00
O29    O     0.42908   0.38949   0.39995   0.01267  Uiso   1.00
O30    O     0.55935   0.42620   0.41820   0.01267  Uiso   1.00
O31    O     0.00333   0.09664   0.08450   0.01267  Uiso   1.00
O32    O     0.85623   0.06513   0.08401   0.01267  Uiso   1.00
