data_PERSEM_clean
_audit_creation_date              2014-07-02
_audit_creation_method            'Materials Studio'
_symmetry_space_group_name_H-M    'P1'
_symmetry_Int_Tables_number       1
_symmetry_cell_setting            triclinic
loop_
_symmetry_equiv_pos_as_xyz
  x,y,z
_cell_length_a                    6.3057
_cell_length_b                    8.3529
_cell_length_c                    9.1064
_cell_angle_alpha                 98.2000
_cell_angle_beta                  91.2800
_cell_angle_gamma                 103.2000
loop_
_atom_site_label
_atom_site_type_symbol
_atom_site_fract_x
_atom_site_fract_y
_atom_site_fract_z
_atom_site_U_iso_or_equiv
_atom_site_adp_type
_atom_site_occupancy
U1     U     0.50000   0.50000   0.00000   0.01267  Uiso   1.00
Zn1    Zn    0.00000   0.50000   0.50000   0.01267  Uiso   1.00
H1     H     0.59300   0.95800   0.25500   0.01267  Uiso   1.00
H2     H     0.40700   0.04200   0.74500   0.01267  Uiso   1.00
C1     C     0.13220   0.29120   0.22960   0.01267  Uiso   1.00
C2     C     0.06030   0.13680   0.11270   0.01267  Uiso   1.00
C3     C     0.77350   0.26900   0.01840   0.01267  Uiso   1.00
C4     C     0.34970   0.02070   0.21900   0.01267  Uiso   1.00
C5     C     0.17130   0.00920   0.10310   0.01267  Uiso   1.00
C6     C     0.88830   0.12780   0.01040   0.01267  Uiso   1.00
C7     C     0.86780   0.70880   0.77040   0.01267  Uiso   1.00
C8     C     0.93970   0.86320   0.88730   0.01267  Uiso   1.00
C9     C     0.22650   0.73100   0.98160   0.01267  Uiso   1.00
C10    C     0.65030   0.97930   0.78100   0.01267  Uiso   1.00
C11    C     0.82870   0.99080   0.89690   0.01267  Uiso   1.00
C12    C     0.11170   0.87220   0.98960   0.01267  Uiso   1.00
O1     O     0.35180   0.09950   0.34250   0.01267  Uiso   1.00
O2     O     0.02000   0.29910   0.34065   0.01267  Uiso   1.00
O3     O     0.49510   0.93940   0.17530   0.01267  Uiso   1.00
O4     O     0.29260   0.40182   0.20554   0.01267  Uiso   1.00
O5     O     0.64570   0.29020   0.11866   0.01267  Uiso   1.00
O6     O     0.80720   0.36540   0.92294   0.01267  Uiso   1.00
O7     O     0.64820   0.90050   0.65750   0.01267  Uiso   1.00
O8     O     0.98000   0.70090   0.65935   0.01267  Uiso   1.00
O9     O     0.50490   0.06060   0.82470   0.01267  Uiso   1.00
O10    O     0.70740   0.59818   0.79446   0.01267  Uiso   1.00
O11    O     0.35430   0.70980   0.88134   0.01267  Uiso   1.00
O12    O     0.19280   0.63460   0.07706   0.01267  Uiso   1.00
