data_image0
_cell_length_a       16.9948
_cell_length_b       16.9948
_cell_length_c       16.9948
_cell_angle_alpha    90
_cell_angle_beta     90
_cell_angle_gamma    90

_symmetry_space_group_name_H-M    "P 1"
_symmetry_int_tables_number       1

loop_
  _symmetry_equiv_pos_as_xyz
  'x, y, z'

loop_
  _atom_site_label
  _atom_site_occupancy
  _atom_site_fract_x
  _atom_site_fract_y
  _atom_site_fract_z
  _atom_site_thermal_displace_type
  _atom_site_B_iso_or_equiv
  _atom_site_type_symbol
  C1       1.0000 0.37027  0.90048  0.68776  Biso   1.000  C
  N1       1.0000 0.41228  0.97171  0.68107  Biso   1.000  N
  H1       1.0000 0.38570  0.86410  0.72840  Biso   1.000  H
  H2       1.0000 0.43120  0.12180  0.63410  Biso   1.000  H
  C2       1.0000 0.87027  0.40048  0.18776  Biso   1.000  C
  N2       1.0000 0.91228  0.47171  0.18107  Biso   1.000  N
  H3       1.0000 0.88570  0.36410  0.22840  Biso   1.000  H
  H4       1.0000 0.93120  0.62180  0.13410  Biso   1.000  H
  C3       1.0000 0.62973  0.09952  0.68776  Biso   1.000  C
  N3       1.0000 0.58772  0.02829  0.68107  Biso   1.000  N
  H5       1.0000 0.61430  0.13590  0.72840  Biso   1.000  H
  H6       1.0000 0.56880  0.87820  0.63410  Biso   1.000  H
  C4       1.0000 0.12973  0.59952  0.18776  Biso   1.000  C
  N4       1.0000 0.08772  0.52829  0.18107  Biso   1.000  N
  H7       1.0000 0.11430  0.63590  0.22840  Biso   1.000  H
  H8       1.0000 0.06880  0.37820  0.13410  Biso   1.000  H
  C5       1.0000 0.62973  0.90048  0.31224  Biso   1.000  C
  N5       1.0000 0.58772  0.97171  0.31893  Biso   1.000  N
  H9       1.0000 0.61430  0.86410  0.27160  Biso   1.000  H
  H10      1.0000 0.56880  0.12180  0.36590  Biso   1.000  H
  C6       1.0000 0.12973  0.40048  0.81224  Biso   1.000  C
  N6       1.0000 0.08772  0.47171  0.81893  Biso   1.000  N
  H11      1.0000 0.11430  0.36410  0.77160  Biso   1.000  H
  H12      1.0000 0.06880  0.62180  0.86590  Biso   1.000  H
  C7       1.0000 0.37027  0.09952  0.31224  Biso   1.000  C
  N7       1.0000 0.41228  0.02829  0.31893  Biso   1.000  N
  H13      1.0000 0.38570  0.13590  0.27160  Biso   1.000  H
  H14      1.0000 0.43120  0.87820  0.36590  Biso   1.000  H
  C8       1.0000 0.87027  0.59952  0.81224  Biso   1.000  C
  N8       1.0000 0.91228  0.52829  0.81893  Biso   1.000  N
  H15      1.0000 0.88570  0.63590  0.77160  Biso   1.000  H
  H16      1.0000 0.93120  0.37820  0.86590  Biso   1.000  H
  C9       1.0000 0.68776  0.37027  0.90048  Biso   1.000  C
  N9       1.0000 0.68107  0.41228  0.97171  Biso   1.000  N
  H17      1.0000 0.72840  0.38570  0.86410  Biso   1.000  H
  H18      1.0000 0.63410  0.43120  0.12180  Biso   1.000  H
  C10      1.0000 0.18776  0.87027  0.40048  Biso   1.000  C
  N10      1.0000 0.18107  0.91228  0.47171  Biso   1.000  N
  H19      1.0000 0.22840  0.88570  0.36410  Biso   1.000  H
  H20      1.0000 0.13410  0.93120  0.62180  Biso   1.000  H
  C11      1.0000 0.68776  0.62973  0.09952  Biso   1.000  C
  N11      1.0000 0.68107  0.58772  0.02829  Biso   1.000  N
  H21      1.0000 0.72840  0.61430  0.13590  Biso   1.000  H
  H22      1.0000 0.63410  0.56880  0.87820  Biso   1.000  H
  C12      1.0000 0.18776  0.12973  0.59952  Biso   1.000  C
  N12      1.0000 0.18107  0.08772  0.52829  Biso   1.000  N
  H23      1.0000 0.22840  0.11430  0.63590  Biso   1.000  H
  H24      1.0000 0.13410  0.06880  0.37820  Biso   1.000  H
  C13      1.0000 0.31224  0.62973  0.90048  Biso   1.000  C
  N13      1.0000 0.31893  0.58772  0.97171  Biso   1.000  N
  H25      1.0000 0.27160  0.61430  0.86410  Biso   1.000  H
  H26      1.0000 0.36590  0.56880  0.12180  Biso   1.000  H
  C14      1.0000 0.81224  0.12973  0.40048  Biso   1.000  C
  N14      1.0000 0.81893  0.08772  0.47171  Biso   1.000  N
  H27      1.0000 0.77160  0.11430  0.36410  Biso   1.000  H
  H28      1.0000 0.86590  0.06880  0.62180  Biso   1.000  H
  C15      1.0000 0.31224  0.37027  0.09952  Biso   1.000  C
  N15      1.0000 0.31893  0.41228  0.02829  Biso   1.000  N
  H29      1.0000 0.27160  0.38570  0.13590  Biso   1.000  H
  H30      1.0000 0.36590  0.43120  0.87820  Biso   1.000  H
  C16      1.0000 0.81224  0.87027  0.59952  Biso   1.000  C
  N16      1.0000 0.81893  0.91228  0.52829  Biso   1.000  N
  H31      1.0000 0.77160  0.88570  0.63590  Biso   1.000  H
  H32      1.0000 0.86590  0.93120  0.37820  Biso   1.000  H
  C17      1.0000 0.90048  0.68776  0.37027  Biso   1.000  C
  N17      1.0000 0.97171  0.68107  0.41228  Biso   1.000  N
  H33      1.0000 0.86410  0.72840  0.38570  Biso   1.000  H
  H34      1.0000 0.12180  0.63410  0.43120  Biso   1.000  H
  C18      1.0000 0.40048  0.18776  0.87027  Biso   1.000  C
  N18      1.0000 0.47171  0.18107  0.91228  Biso   1.000  N
  H35      1.0000 0.36410  0.22840  0.88570  Biso   1.000  H
  H36      1.0000 0.62180  0.13410  0.93120  Biso   1.000  H
  C19      1.0000 0.09952  0.68776  0.62973  Biso   1.000  C
  N19      1.0000 0.02829  0.68107  0.58772  Biso   1.000  N
  H37      1.0000 0.13590  0.72840  0.61430  Biso   1.000  H
  H38      1.0000 0.87820  0.63410  0.56880  Biso   1.000  H
  C20      1.0000 0.59952  0.18776  0.12973  Biso   1.000  C
  N20      1.0000 0.52829  0.18107  0.08772  Biso   1.000  N
  H39      1.0000 0.63590  0.22840  0.11430  Biso   1.000  H
  H40      1.0000 0.37820  0.13410  0.06880  Biso   1.000  H
  C21      1.0000 0.90048  0.31224  0.62973  Biso   1.000  C
  N21      1.0000 0.97171  0.31893  0.58772  Biso   1.000  N
  H41      1.0000 0.86410  0.27160  0.61430  Biso   1.000  H
  H42      1.0000 0.12180  0.36590  0.56880  Biso   1.000  H
  C22      1.0000 0.40048  0.81224  0.12973  Biso   1.000  C
  N22      1.0000 0.47171  0.81893  0.08772  Biso   1.000  N
  H43      1.0000 0.36410  0.77160  0.11430  Biso   1.000  H
  H44      1.0000 0.62180  0.86590  0.06880  Biso   1.000  H
  C23      1.0000 0.09952  0.31224  0.37027  Biso   1.000  C
  N23      1.0000 0.02829  0.31893  0.41228  Biso   1.000  N
  H45      1.0000 0.13590  0.27160  0.38570  Biso   1.000  H
  H46      1.0000 0.87820  0.36590  0.43120  Biso   1.000  H
  C24      1.0000 0.59952  0.81224  0.87027  Biso   1.000  C
  N24      1.0000 0.52829  0.81893  0.91228  Biso   1.000  N
  H47      1.0000 0.63590  0.77160  0.88570  Biso   1.000  H
  H48      1.0000 0.37820  0.86590  0.93120  Biso   1.000  H
  C25      1.0000 0.90048  0.37027  0.68776  Biso   1.000  C
  N25      1.0000 0.97171  0.41228  0.68107  Biso   1.000  N
  H49      1.0000 0.86410  0.38570  0.72840  Biso   1.000  H
  H50      1.0000 0.12180  0.43120  0.63410  Biso   1.000  H
  C26      1.0000 0.40048  0.87027  0.18776  Biso   1.000  C
  N26      1.0000 0.47171  0.91228  0.18107  Biso   1.000  N
  H51      1.0000 0.36410  0.88570  0.22840  Biso   1.000  H
  H52      1.0000 0.62180  0.93120  0.13410  Biso   1.000  H
  C27      1.0000 0.09952  0.62973  0.68776  Biso   1.000  C
  N27      1.0000 0.02829  0.58772  0.68107  Biso   1.000  N
  H53      1.0000 0.13590  0.61430  0.72840  Biso   1.000  H
  H54      1.0000 0.87820  0.56880  0.63410  Biso   1.000  H
  C28      1.0000 0.59952  0.12973  0.18776  Biso   1.000  C
  N28      1.0000 0.52829  0.08772  0.18107  Biso   1.000  N
  H55      1.0000 0.63590  0.11430  0.22840  Biso   1.000  H
  H56      1.0000 0.37820  0.06880  0.13410  Biso   1.000  H
  C29      1.0000 0.90048  0.62973  0.31224  Biso   1.000  C
  N29      1.0000 0.97171  0.58772  0.31893  Biso   1.000  N
  H57      1.0000 0.86410  0.61430  0.27160  Biso   1.000  H
  H58      1.0000 0.12180  0.56880  0.36590  Biso   1.000  H
  C30      1.0000 0.40048  0.12973  0.81224  Biso   1.000  C
  N30      1.0000 0.47171  0.08772  0.81893  Biso   1.000  N
  H59      1.0000 0.36410  0.11430  0.77160  Biso   1.000  H
  H60      1.0000 0.62180  0.06880  0.86590  Biso   1.000  H
  C31      1.0000 0.09952  0.37027  0.31224  Biso   1.000  C
  N31      1.0000 0.02829  0.41228  0.31893  Biso   1.000  N
  H61      1.0000 0.13590  0.38570  0.27160  Biso   1.000  H
  H62      1.0000 0.87820  0.43120  0.36590  Biso   1.000  H
  C32      1.0000 0.59952  0.87027  0.81224  Biso   1.000  C
  N32      1.0000 0.52829  0.91228  0.81893  Biso   1.000  N
  H63      1.0000 0.63590  0.88570  0.77160  Biso   1.000  H
  H64      1.0000 0.37820  0.93120  0.86590  Biso   1.000  H
  C33      1.0000 0.37027  0.68776  0.90048  Biso   1.000  C
  N33      1.0000 0.41228  0.68107  0.97171  Biso   1.000  N
  H65      1.0000 0.38570  0.72840  0.86410  Biso   1.000  H
  H66      1.0000 0.43120  0.63410  0.12180  Biso   1.000  H
  C34      1.0000 0.87027  0.18776  0.40048  Biso   1.000  C
  N34      1.0000 0.91228  0.18107  0.47171  Biso   1.000  N
  H67      1.0000 0.88570  0.22840  0.36410  Biso   1.000  H
  H68      1.0000 0.93120  0.13410  0.62180  Biso   1.000  H
  C35      1.0000 0.62973  0.68776  0.09952  Biso   1.000  C
  N35      1.0000 0.58772  0.68107  0.02829  Biso   1.000  N
  H69      1.0000 0.61430  0.72840  0.13590  Biso   1.000  H
  H70      1.0000 0.56880  0.63410  0.87820  Biso   1.000  H
  C36      1.0000 0.12973  0.18776  0.59952  Biso   1.000  C
  N36      1.0000 0.08772  0.18107  0.52829  Biso   1.000  N
  H71      1.0000 0.11430  0.22840  0.63590  Biso   1.000  H
  H72      1.0000 0.06880  0.13410  0.37820  Biso   1.000  H
  C37      1.0000 0.62973  0.31224  0.90048  Biso   1.000  C
  N37      1.0000 0.58772  0.31893  0.97171  Biso   1.000  N
  H73      1.0000 0.61430  0.27160  0.86410  Biso   1.000  H
  H74      1.0000 0.56880  0.36590  0.12180  Biso   1.000  H
  C38      1.0000 0.12973  0.81224  0.40048  Biso   1.000  C
  N38      1.0000 0.08772  0.81893  0.47171  Biso   1.000  N
  H75      1.0000 0.11430  0.77160  0.36410  Biso   1.000  H
  H76      1.0000 0.06880  0.86590  0.62180  Biso   1.000  H
  C39      1.0000 0.37027  0.31224  0.09952  Biso   1.000  C
  N39      1.0000 0.41228  0.31893  0.02829  Biso   1.000  N
  H77      1.0000 0.38570  0.27160  0.13590  Biso   1.000  H
  H78      1.0000 0.43120  0.36590  0.87820  Biso   1.000  H
  C40      1.0000 0.87027  0.81224  0.59952  Biso   1.000  C
  N40      1.0000 0.91228  0.81893  0.52829  Biso   1.000  N
  H79      1.0000 0.88570  0.77160  0.63590  Biso   1.000  H
  H80      1.0000 0.93120  0.86590  0.37820  Biso   1.000  H
  C41      1.0000 0.68776  0.90048  0.37027  Biso   1.000  C
  N41      1.0000 0.68107  0.97171  0.41228  Biso   1.000  N
  H81      1.0000 0.72840  0.86410  0.38570  Biso   1.000  H
  H82      1.0000 0.63410  0.12180  0.43120  Biso   1.000  H
  C42      1.0000 0.18776  0.40048  0.87027  Biso   1.000  C
  N42      1.0000 0.18107  0.47171  0.91228  Biso   1.000  N
  H83      1.0000 0.22840  0.36410  0.88570  Biso   1.000  H
  H84      1.0000 0.13410  0.62180  0.93120  Biso   1.000  H
  C43      1.0000 0.68776  0.09952  0.62973  Biso   1.000  C
  N43      1.0000 0.68107  0.02829  0.58772  Biso   1.000  N
  H85      1.0000 0.72840  0.13590  0.61430  Biso   1.000  H
  H86      1.0000 0.63410  0.87820  0.56880  Biso   1.000  H
  C44      1.0000 0.18776  0.59952  0.12973  Biso   1.000  C
  N44      1.0000 0.18107  0.52829  0.08772  Biso   1.000  N
  H87      1.0000 0.22840  0.63590  0.11430  Biso   1.000  H
  H88      1.0000 0.13410  0.37820  0.06880  Biso   1.000  H
  C45      1.0000 0.31224  0.90048  0.62973  Biso   1.000  C
  N45      1.0000 0.31893  0.97171  0.58772  Biso   1.000  N
  H89      1.0000 0.27160  0.86410  0.61430  Biso   1.000  H
  H90      1.0000 0.36590  0.12180  0.56880  Biso   1.000  H
  C46      1.0000 0.81224  0.40048  0.12973  Biso   1.000  C
  N46      1.0000 0.81893  0.47171  0.08772  Biso   1.000  N
  H91      1.0000 0.77160  0.36410  0.11430  Biso   1.000  H
  H92      1.0000 0.86590  0.62180  0.06880  Biso   1.000  H
  C47      1.0000 0.31224  0.09952  0.37027  Biso   1.000  C
  N47      1.0000 0.31893  0.02829  0.41228  Biso   1.000  N
  H93      1.0000 0.27160  0.13590  0.38570  Biso   1.000  H
  H94      1.0000 0.36590  0.87820  0.43120  Biso   1.000  H
  C48      1.0000 0.81224  0.59952  0.87027  Biso   1.000  C
  N48      1.0000 0.81893  0.52829  0.91228  Biso   1.000  N
  H95      1.0000 0.77160  0.63590  0.88570  Biso   1.000  H
  H96      1.0000 0.86590  0.37820  0.93120  Biso   1.000  H
  Zn1      1.0000 0.50000  0.00000  0.75000  Biso   1.000  Zn
  Zn2      1.0000 0.50000  0.00000  0.25000  Biso   1.000  Zn
  Zn3      1.0000 0.75000  0.50000  0.00000  Biso   1.000  Zn
  Zn4      1.0000 0.25000  0.50000  0.00000  Biso   1.000  Zn
  Zn5      1.0000 0.00000  0.75000  0.50000  Biso   1.000  Zn
  Zn6      1.0000 0.00000  0.25000  0.50000  Biso   1.000  Zn
  Zn7      1.0000 0.00000  0.50000  0.75000  Biso   1.000  Zn
  Zn8      1.0000 0.00000  0.50000  0.25000  Biso   1.000  Zn
  Zn9      1.0000 0.50000  0.75000  0.00000  Biso   1.000  Zn
  Zn10     1.0000 0.50000  0.25000  0.00000  Biso   1.000  Zn
  Zn11     1.0000 0.75000  0.00000  0.50000  Biso   1.000  Zn
  Zn12     1.0000 0.25000  0.00000  0.50000  Biso   1.000  Zn
  C49      1.0000 0.38079  0.01510  0.61921  Biso   1.000  C
  C50      1.0000 0.40864  0.09237  0.59136  Biso   1.000  C
  H97      1.0000 0.44803  0.08410  0.55197  Biso   1.000  H
  C51      1.0000 0.88079  0.51510  0.11921  Biso   1.000  C
  C52      1.0000 0.90864  0.59237  0.09136  Biso   1.000  C
  H98      1.0000 0.94803  0.58410  0.05197  Biso   1.000  H
  C53      1.0000 0.61921  0.98490  0.61921  Biso   1.000  C
  C54      1.0000 0.59136  0.90763  0.59136  Biso   1.000  C
  H99      1.0000 0.55197  0.91590  0.55197  Biso   1.000  H
  C55      1.0000 0.11921  0.48490  0.11921  Biso   1.000  C
  C56      1.0000 0.09136  0.40763  0.09136  Biso   1.000  C
  H100     1.0000 0.05197  0.41590  0.05197  Biso   1.000  H
  C57      1.0000 0.61921  0.01510  0.38079  Biso   1.000  C
  C58      1.0000 0.59136  0.09237  0.40864  Biso   1.000  C
  H101     1.0000 0.55197  0.08410  0.44803  Biso   1.000  H
  C59      1.0000 0.11921  0.51510  0.88079  Biso   1.000  C
  C60      1.0000 0.09136  0.59237  0.90864  Biso   1.000  C
  H102     1.0000 0.05197  0.58410  0.94803  Biso   1.000  H
  C61      1.0000 0.38079  0.98490  0.38079  Biso   1.000  C
  C62      1.0000 0.40864  0.90763  0.40864  Biso   1.000  C
  H103     1.0000 0.44803  0.91590  0.44803  Biso   1.000  H
  C63      1.0000 0.88079  0.48490  0.88079  Biso   1.000  C
  C64      1.0000 0.90864  0.40763  0.90864  Biso   1.000  C
  H104     1.0000 0.94803  0.41590  0.94803  Biso   1.000  H
  C65      1.0000 0.61921  0.38079  0.01510  Biso   1.000  C
  C66      1.0000 0.59136  0.40864  0.09237  Biso   1.000  C
  H105     1.0000 0.55197  0.44803  0.08410  Biso   1.000  H
  C67      1.0000 0.11921  0.88079  0.51510  Biso   1.000  C
  C68      1.0000 0.09136  0.90864  0.59237  Biso   1.000  C
  H106     1.0000 0.05197  0.94803  0.58410  Biso   1.000  H
  C69      1.0000 0.61921  0.61921  0.98490  Biso   1.000  C
  C70      1.0000 0.59136  0.59136  0.90763  Biso   1.000  C
  H107     1.0000 0.55197  0.55197  0.91590  Biso   1.000  H
  C71      1.0000 0.11921  0.11921  0.48490  Biso   1.000  C
  C72      1.0000 0.09136  0.09136  0.40763  Biso   1.000  C
  H108     1.0000 0.05197  0.05197  0.41590  Biso   1.000  H
  C73      1.0000 0.38079  0.61921  0.01510  Biso   1.000  C
  C74      1.0000 0.40864  0.59136  0.09237  Biso   1.000  C
  H109     1.0000 0.44803  0.55197  0.08410  Biso   1.000  H
  C75      1.0000 0.88079  0.11921  0.51510  Biso   1.000  C
  C76      1.0000 0.90864  0.09136  0.59237  Biso   1.000  C
  H110     1.0000 0.94803  0.05197  0.58410  Biso   1.000  H
  C77      1.0000 0.38079  0.38079  0.98490  Biso   1.000  C
  C78      1.0000 0.40864  0.40864  0.90763  Biso   1.000  C
  H111     1.0000 0.44803  0.44803  0.91590  Biso   1.000  H
  C79      1.0000 0.88079  0.88079  0.48490  Biso   1.000  C
  C80      1.0000 0.90864  0.90864  0.40763  Biso   1.000  C
  H112     1.0000 0.94803  0.94803  0.41590  Biso   1.000  H
  C81      1.0000 0.01510  0.61921  0.38079  Biso   1.000  C
  C82      1.0000 0.09237  0.59136  0.40864  Biso   1.000  C
  H113     1.0000 0.08410  0.55197  0.44803  Biso   1.000  H
  C83      1.0000 0.51510  0.11921  0.88079  Biso   1.000  C
  C84      1.0000 0.59237  0.09136  0.90864  Biso   1.000  C
  H114     1.0000 0.58410  0.05197  0.94803  Biso   1.000  H
  C85      1.0000 0.98490  0.61921  0.61921  Biso   1.000  C
  C86      1.0000 0.90763  0.59136  0.59136  Biso   1.000  C
  H115     1.0000 0.91590  0.55197  0.55197  Biso   1.000  H
  C87      1.0000 0.48490  0.11921  0.11921  Biso   1.000  C
  C88      1.0000 0.40763  0.09136  0.09136  Biso   1.000  C
  H116     1.0000 0.41590  0.05197  0.05197  Biso   1.000  H
  C89      1.0000 0.01510  0.38079  0.61921  Biso   1.000  C
  C90      1.0000 0.09237  0.40864  0.59136  Biso   1.000  C
  H117     1.0000 0.08410  0.44803  0.55197  Biso   1.000  H
  C91      1.0000 0.51510  0.88079  0.11921  Biso   1.000  C
  C92      1.0000 0.59237  0.90864  0.09136  Biso   1.000  C
  H118     1.0000 0.58410  0.94803  0.05197  Biso   1.000  H
  C93      1.0000 0.98490  0.38079  0.38079  Biso   1.000  C
  C94      1.0000 0.90763  0.40864  0.40864  Biso   1.000  C
  H119     1.0000 0.91590  0.44803  0.44803  Biso   1.000  H
  C95      1.0000 0.48490  0.88079  0.88079  Biso   1.000  C
  C96      1.0000 0.40763  0.90864  0.90864  Biso   1.000  C
  H120     1.0000 0.41590  0.94803  0.94803  Biso   1.000  H
