data_PEVLIN_clean
_audit_creation_date              2014-07-02
_audit_creation_method            'Materials Studio'
_symmetry_space_group_name_H-M    'P1'
_symmetry_Int_Tables_number       1
_symmetry_cell_setting            triclinic
loop_
_symmetry_equiv_pos_as_xyz
  x,y,z
_cell_length_a                    6.9059
_cell_length_b                    9.9890
_cell_length_c                    11.0921
_cell_angle_alpha                 116.7610
_cell_angle_beta                  104.2740
_cell_angle_gamma                 90.0000
loop_
_atom_site_label
_atom_site_type_symbol
_atom_site_fract_x
_atom_site_fract_y
_atom_site_fract_z
_atom_site_U_iso_or_equiv
_atom_site_adp_type
_atom_site_occupancy
Nd1    Nd    0.44236   0.90850   0.29621   0.01267  Uiso   1.00
Nd2    Nd    0.94236   0.38771   0.29621   0.01267  Uiso   1.00
H1     H     0.45970   0.67890   0.68280   0.01267  Uiso   1.00
H2     H     0.63320   0.85220   0.90940   0.01267  Uiso   1.00
H3     H     0.53000   0.18870   0.80480   0.01267  Uiso   1.00
H4     H     0.18760   0.17900   0.63740   0.01267  Uiso   1.00
H5     H     0.39030   0.24740   0.63360   0.01267  Uiso   1.00
H6     H     0.95970   0.00390   0.68280   0.01267  Uiso   1.00
H7     H     0.13320   0.05720   0.90940   0.01267  Uiso   1.00
H8     H     0.03000   0.61610   0.80480   0.01267  Uiso   1.00
H9     H     0.68760   0.45840   0.63740   0.01267  Uiso   1.00
H10    H     0.89030   0.38620   0.63360   0.01267  Uiso   1.00
C1     C     0.42580   0.97940   0.64240   0.01267  Uiso   1.00
C2     C     0.40400   0.82540   0.60240   0.01267  Uiso   1.00
C3     C     0.47800   0.78080   0.70620   0.01267  Uiso   1.00
C4     C     0.57790   0.88430   0.84300   0.01267  Uiso   1.00
C5     C     0.59420   0.03750   0.87960   0.01267  Uiso   1.00
C6     C     0.51860   0.08620   0.77980   0.01267  Uiso   1.00
C7     C     0.27850   0.16670   0.58000   0.01267  Uiso   1.00
C8     C     0.16900   0.17070   0.44520   0.01267  Uiso   1.00
C9     C     0.29800   0.70420   0.45480   0.01267  Uiso   1.00
C10    C     0.70220   0.15550   0.02640   0.01267  Uiso   1.00
C11    C     0.92580   0.66300   0.64240   0.01267  Uiso   1.00
C12    C     0.90400   0.77700   0.60240   0.01267  Uiso   1.00
C13    C     0.97800   0.92540   0.70620   0.01267  Uiso   1.00
C14    C     0.07790   0.95870   0.84300   0.01267  Uiso   1.00
C15    C     0.09420   0.84210   0.87960   0.01267  Uiso   1.00
C16    C     0.01860   0.69360   0.77980   0.01267  Uiso   1.00
C17    C     0.77850   0.41330   0.58000   0.01267  Uiso   1.00
C18    C     0.66900   0.27450   0.44520   0.01267  Uiso   1.00
C19    C     0.79800   0.75060   0.45480   0.01267  Uiso   1.00
C20    C     0.20220   0.87090   0.02640   0.01267  Uiso   1.00
O1     O     0.35030   0.02190   0.53900   0.01267  Uiso   1.00
O2     O     0.15650   0.05462   0.33064   0.01267  Uiso   1.00
O3     O     0.10020   0.28898   0.45916   0.01267  Uiso   1.00
O4     O     0.28460   0.73141   0.35122   0.01267  Uiso   1.00
O5     O     0.22570   0.58229   0.44158   0.01267  Uiso   1.00
O6     O     0.83650   0.11875   0.10230   0.01267  Uiso   1.00
O7     O     0.65980   0.28830   0.07000   0.01267  Uiso   1.00
O8     O     0.85030   0.51710   0.53900   0.01267  Uiso   1.00
O9     O     0.65650   0.27602   0.33064   0.01267  Uiso   1.00
O10    O     0.60020   0.17018   0.45916   0.01267  Uiso   1.00
O11    O     0.78460   0.61981   0.35122   0.01267  Uiso   1.00
O12    O     0.72570   0.85929   0.44158   0.01267  Uiso   1.00
O13    O     0.33650   0.98355   0.10230   0.01267  Uiso   1.00
O14    O     0.15980   0.78170   0.07000   0.01267  Uiso   1.00
