data_PEVLEJ_clean
_audit_creation_date              2014-07-02
_audit_creation_method            'Materials Studio'
_symmetry_space_group_name_H-M    'P1'
_symmetry_Int_Tables_number       1
_symmetry_cell_setting            triclinic
loop_
_symmetry_equiv_pos_as_xyz
  x,y,z
_cell_length_a                    6.6627
_cell_length_b                    9.6740
_cell_length_c                    10.7118
_cell_angle_alpha                 116.8440
_cell_angle_beta                  104.8740
_cell_angle_gamma                 90.0000
loop_
_atom_site_label
_atom_site_type_symbol
_atom_site_fract_x
_atom_site_fract_y
_atom_site_fract_z
_atom_site_U_iso_or_equiv
_atom_site_adp_type
_atom_site_occupancy
Pr1    Pr    0.97560   0.29116   0.10326   0.01267  Uiso   1.00
Pr2    Pr    0.47560   0.81210   0.10326   0.01267  Uiso   1.00
H1     H     0.96320   0.52250   0.71700   0.01267  Uiso   1.00
H2     H     0.78420   0.34670   0.48800   0.01267  Uiso   1.00
H3     H     0.88820   0.00730   0.59380   0.01267  Uiso   1.00
H4     H     0.02340   0.94970   0.76140   0.01267  Uiso   1.00
H5     H     0.23590   0.02310   0.76340   0.01267  Uiso   1.00
H6     H     0.46320   0.19450   0.71700   0.01267  Uiso   1.00
H7     H     0.28420   0.14130   0.48800   0.01267  Uiso   1.00
H8     H     0.38820   0.58650   0.59380   0.01267  Uiso   1.00
H9     H     0.52340   0.81170   0.76140   0.01267  Uiso   1.00
H10    H     0.73590   0.74030   0.76340   0.01267  Uiso   1.00
C1     C     0.99510   0.22010   0.75900   0.01267  Uiso   1.00
C2     C     0.01530   0.37270   0.79740   0.01267  Uiso   1.00
C3     C     0.94230   0.41730   0.69280   0.01267  Uiso   1.00
C4     C     0.84200   0.31420   0.55740   0.01267  Uiso   1.00
C5     C     0.82480   0.16250   0.52180   0.01267  Uiso   1.00
C6     C     0.90050   0.11330   0.62040   0.01267  Uiso   1.00
C7     C     0.13940   0.03350   0.82020   0.01267  Uiso   1.00
C8     C     0.24700   0.02620   0.95560   0.01267  Uiso   1.00
C9     C     0.12310   0.49460   0.94480   0.01267  Uiso   1.00
C10    C     0.71930   0.04370   0.37380   0.01267  Uiso   1.00
C11    C     0.49510   0.53890   0.75900   0.01267  Uiso   1.00
C12    C     0.51530   0.42470   0.79740   0.01267  Uiso   1.00
C13    C     0.44230   0.27550   0.69280   0.01267  Uiso   1.00
C14    C     0.34200   0.24320   0.55740   0.01267  Uiso   1.00
C15    C     0.32480   0.35930   0.52180   0.01267  Uiso   1.00
C16    C     0.40050   0.50710   0.62040   0.01267  Uiso   1.00
C17    C     0.63940   0.78670   0.82020   0.01267  Uiso   1.00
C18    C     0.74700   0.92940   0.95560   0.01267  Uiso   1.00
C19    C     0.62310   0.45020   0.94480   0.01267  Uiso   1.00
C20    C     0.21930   0.33010   0.37380   0.01267  Uiso   1.00
O1     O     0.06610   0.17880   0.86200   0.01267  Uiso   1.00
O2     O     0.31790   0.90930   0.94060   0.01267  Uiso   1.00
O3     O     0.26030   0.14350   0.06840   0.01267  Uiso   1.00
O4     O     0.13460   0.46520   0.04660   0.01267  Uiso   1.00
O5     O     0.19430   0.61470   0.95840   0.01267  Uiso   1.00
O6     O     0.58300   0.08220   0.29820   0.01267  Uiso   1.00
O7     O     0.75730   0.91330   0.33160   0.01267  Uiso   1.00
O8     O     0.56610   0.68320   0.86200   0.01267  Uiso   1.00
O9     O     0.81790   0.03130   0.94060   0.01267  Uiso   1.00
O10    O     0.76030   0.92490   0.06840   0.01267  Uiso   1.00
O11    O     0.63460   0.58140   0.04660   0.01267  Uiso   1.00
O12    O     0.69430   0.34370   0.95840   0.01267  Uiso   1.00
O13    O     0.08300   0.21600   0.29820   0.01267  Uiso   1.00
O14    O     0.25730   0.41830   0.33160   0.01267  Uiso   1.00
