data_PEVYUM_clean
_audit_creation_date              2014-07-02
_audit_creation_method            'Materials Studio'
_symmetry_space_group_name_H-M    'P1'
_symmetry_Int_Tables_number       1
_symmetry_cell_setting            triclinic
loop_
_symmetry_equiv_pos_as_xyz
  x,y,z
_cell_length_a                    7.3240
_cell_length_b                    9.6503
_cell_length_c                    11.4090
_cell_angle_alpha                 97.0914
_cell_angle_beta                  90.0000
_cell_angle_gamma                 112.3010
loop_
_atom_site_label
_atom_site_type_symbol
_atom_site_fract_x
_atom_site_fract_y
_atom_site_fract_z
_atom_site_U_iso_or_equiv
_atom_site_adp_type
_atom_site_occupancy
Co1    Co    0.59524   0.49808   0.50310   0.01267  Uiso   1.00
Co2    Co    0.09716   0.50192   0.49690   0.01267  Uiso   1.00
H1     H     0.86700   0.02740   0.39030   0.01267  Uiso   1.00
H2     H     0.41140   0.28580   0.26980   0.01267  Uiso   1.00
H3     H     0.40820   0.28040   0.06810   0.01267  Uiso   1.00
H4     H     0.77890   0.71680   0.11590   0.01267  Uiso   1.00
H5     H     0.77040   0.70980   0.31550   0.01267  Uiso   1.00
H6     H     0.60070   0.70380   0.73320   0.01267  Uiso   1.00
H7     H     0.61240   0.71520   0.93290   0.01267  Uiso   1.00
H8     H     0.58490   0.28600   0.88920   0.01267  Uiso   1.00
H9     H     0.58910   0.29400   0.69000   0.01267  Uiso   1.00
H10    H     0.20870   0.00440   0.39820   0.01267  Uiso   1.00
H11    H     0.83960   0.97260   0.60970   0.01267  Uiso   1.00
H12    H     0.12560   0.71420   0.73020   0.01267  Uiso   1.00
H13    H     0.12780   0.71960   0.93190   0.01267  Uiso   1.00
H14    H     0.06210   0.28320   0.88410   0.01267  Uiso   1.00
H15    H     0.06060   0.29020   0.68450   0.01267  Uiso   1.00
H16    H     0.89690   0.29620   0.26680   0.01267  Uiso   1.00
H17    H     0.89720   0.28480   0.06710   0.01267  Uiso   1.00
H18    H     0.29890   0.71400   0.11080   0.01267  Uiso   1.00
H19    H     0.29510   0.70600   0.31000   0.01267  Uiso   1.00
H20    H     0.20430   0.99560   0.60180   0.01267  Uiso   1.00
C1     C     0.48690   0.37280   0.23800   0.01267  Uiso   1.00
C2     C     0.48310   0.36900   0.11660   0.01267  Uiso   1.00
C3     C     0.59340   0.50020   0.06680   0.01267  Uiso   1.00
C4     C     0.70280   0.62780   0.14480   0.01267  Uiso   1.00
C5     C     0.69840   0.62240   0.26500   0.01267  Uiso   1.00
C6     C     0.60110   0.62000   0.76570   0.01267  Uiso   1.00
C7     C     0.60390   0.62700   0.88570   0.01267  Uiso   1.00
C8     C     0.59370   0.50020   0.93730   0.01267  Uiso   1.00
C9     C     0.58950   0.37280   0.85960   0.01267  Uiso   1.00
C10    C     0.59220   0.37880   0.73970   0.01267  Uiso   1.00
C11    C     0.19900   0.20920   0.46750   0.01267  Uiso   1.00
C12    C     0.11120   0.03540   0.44070   0.01267  Uiso   1.00
C13    C     0.11410   0.62720   0.76200   0.01267  Uiso   1.00
C14    C     0.11410   0.63100   0.88340   0.01267  Uiso   1.00
C15    C     0.09320   0.49980   0.93320   0.01267  Uiso   1.00
C16    C     0.07500   0.37220   0.85520   0.01267  Uiso   1.00
C17    C     0.07600   0.37760   0.73500   0.01267  Uiso   1.00
C18    C     0.98110   0.38000   0.23430   0.01267  Uiso   1.00
C19    C     0.97690   0.37300   0.11430   0.01267  Uiso   1.00
C20    C     0.09350   0.49980   0.06270   0.01267  Uiso   1.00
C21    C     0.21670   0.62720   0.14040   0.01267  Uiso   1.00
C22    C     0.21340   0.62120   0.26030   0.01267  Uiso   1.00
C23    C     0.98980   0.79080   0.53250   0.01267  Uiso   1.00
C24    C     0.07580   0.96460   0.55930   0.01267  Uiso   1.00
N1     N     0.59890   0.49880   0.69050   0.01267  Uiso   1.00
N2     N     0.59520   0.49720   0.31230   0.01267  Uiso   1.00
N3     N     0.10010   0.50120   0.30950   0.01267  Uiso   1.00
N4     N     0.09800   0.50280   0.68770   0.01267  Uiso   1.00
O1     O     0.38500   0.26960   0.48900   0.01267  Uiso   1.00
O2     O     0.08110   0.27400   0.46530   0.01267  Uiso   1.00
O3     O     0.93600   0.98000   0.36880   0.01267  Uiso   1.00
O4     O     0.11540   0.73040   0.51100   0.01267  Uiso   1.00
O5     O     0.80710   0.72600   0.53470   0.01267  Uiso   1.00
O6     O     0.95600   0.02000   0.63120   0.01267  Uiso   1.00
F1     F     0.79979   0.40658   0.48940   0.01267  Uiso   1.00
F2     F     0.39321   0.59342   0.51060   0.01267  Uiso   1.00
