data_PEVZAT_clean
_audit_creation_date              2014-07-02
_audit_creation_method            'Materials Studio'
_symmetry_space_group_name_H-M    'P1'
_symmetry_Int_Tables_number       1
_symmetry_cell_setting            triclinic
loop_
_symmetry_equiv_pos_as_xyz
  x,y,z
_cell_length_a                    7.3167
_cell_length_b                    9.6202
_cell_length_c                    11.3957
_cell_angle_alpha                 96.9143
_cell_angle_beta                  90.0000
_cell_angle_gamma                 112.3510
loop_
_atom_site_label
_atom_site_type_symbol
_atom_site_fract_x
_atom_site_fract_y
_atom_site_fract_z
_atom_site_U_iso_or_equiv
_atom_site_adp_type
_atom_site_occupancy
Co1    Co    0.94134   0.50230   0.99650   0.01267  Uiso   1.00
Co2    Co    0.43904   0.49770   0.00350   0.01267  Uiso   1.00
H1     H     0.93410   0.29380   0.76850   0.01267  Uiso   1.00
H2     H     0.92800   0.28640   0.56440   0.01267  Uiso   1.00
H3     H     0.95000   0.71660   0.60820   0.01267  Uiso   1.00
H4     H     0.94410   0.70920   0.81130   0.01267  Uiso   1.00
H5     H     0.12630   0.71840   0.22940   0.01267  Uiso   1.00
H6     H     0.12850   0.72380   0.43290   0.01267  Uiso   1.00
H7     H     0.75500   0.28240   0.38580   0.01267  Uiso   1.00
H8     H     0.76600   0.28920   0.18320   0.01267  Uiso   1.00
H9     H     0.32620   0.99700   0.10200   0.01267  Uiso   1.00
H10    H     0.57800   0.97800   0.19370   0.01267  Uiso   1.00
H11    H     0.64030   0.70620   0.23150   0.01267  Uiso   1.00
H12    H     0.64160   0.71360   0.43560   0.01267  Uiso   1.00
H13    H     0.23340   0.28340   0.39180   0.01267  Uiso   1.00
H14    H     0.23490   0.29080   0.18870   0.01267  Uiso   1.00
H15    H     0.40790   0.28160   0.77060   0.01267  Uiso   1.00
H16    H     0.40470   0.27620   0.56710   0.01267  Uiso   1.00
H17    H     0.47260   0.71760   0.61420   0.01267  Uiso   1.00
H18    H     0.47680   0.71080   0.81680   0.01267  Uiso   1.00
H19    H     0.32920   0.00300   0.89800   0.01267  Uiso   1.00
H20    H     0.60000   0.02200   0.80630   0.01267  Uiso   1.00
C1     C     0.93603   0.38026   0.73540   0.01267  Uiso   1.00
C2     C     0.93476   0.37552   0.61340   0.01267  Uiso   1.00
C3     C     0.94344   0.50288   0.56340   0.01267  Uiso   1.00
C4     C     0.94622   0.62824   0.63910   0.01267  Uiso   1.00
C5     C     0.94344   0.62308   0.76050   0.01267  Uiso   1.00
C6     C     0.04978   0.62876   0.26180   0.01267  Uiso   1.00
C7     C     0.05240   0.63280   0.38360   0.01267  Uiso   1.00
C8     C     0.94321   0.50322   0.43360   0.01267  Uiso   1.00
C9     C     0.83334   0.37348   0.35590   0.01267  Uiso   1.00
C10    C     0.83962   0.37884   0.23480   0.01267  Uiso   1.00
C11    C     0.33804   0.79008   0.03200   0.01267  Uiso   1.00
C12    C     0.42531   0.96522   0.05830   0.01267  Uiso   1.00
C13    C     0.55577   0.61974   0.26460   0.01267  Uiso   1.00
C14    C     0.55924   0.62448   0.38660   0.01267  Uiso   1.00
C15    C     0.44056   0.49712   0.43660   0.01267  Uiso   1.00
C16    C     0.31798   0.37176   0.36090   0.01267  Uiso   1.00
C17    C     0.32036   0.37692   0.23950   0.01267  Uiso   1.00
C18    C     0.42102   0.37124   0.73820   0.01267  Uiso   1.00
C19    C     0.41960   0.36720   0.61640   0.01267  Uiso   1.00
C20    C     0.43999   0.49678   0.56640   0.01267  Uiso   1.00
C21    C     0.45986   0.62652   0.64410   0.01267  Uiso   1.00
C22    C     0.46078   0.62116   0.76520   0.01267  Uiso   1.00
C23    C     0.54796   0.20992   0.96800   0.01267  Uiso   1.00
C24    C     0.46009   0.03478   0.94170   0.01267  Uiso   1.00
N1     N     0.93971   0.50182   0.80916   0.01267  Uiso   1.00
N2     N     0.94450   0.50440   0.18708   0.01267  Uiso   1.00
N3     N     0.43789   0.49818   0.19084   0.01267  Uiso   1.00
N4     N     0.44010   0.49560   0.81292   0.01267  Uiso   1.00
O1     O     0.15216   0.73012   0.00970   0.01267  Uiso   1.00
O2     O     0.45512   0.72524   0.03500   0.01267  Uiso   1.00
O3     O     0.60107   0.01754   0.13070   0.01267  Uiso   1.00
O4     O     0.42204   0.26988   0.99030   0.01267  Uiso   1.00
O5     O     0.72988   0.27476   0.96500   0.01267  Uiso   1.00
O6     O     0.58353   0.98246   0.86930   0.01267  Uiso   1.00
F1     F     0.14190   0.40540   0.99020   0.01267  Uiso   1.00
F2     F     0.73650   0.59460   0.00980   0.01267  Uiso   1.00
