data_PEWKOT_clean
_audit_creation_date              2014-07-02
_audit_creation_method            'Materials Studio'
_symmetry_space_group_name_H-M    'P1'
_symmetry_Int_Tables_number       1
_symmetry_cell_setting            triclinic
loop_
_symmetry_equiv_pos_as_xyz
  x,y,z
_cell_length_a                    16.5598
_cell_length_b                    17.6211
_cell_length_c                    17.6211
_cell_angle_alpha                 77.2444
_cell_angle_beta                  61.9732
_cell_angle_gamma                 61.9731
loop_
_atom_site_label
_atom_site_type_symbol
_atom_site_fract_x
_atom_site_fract_y
_atom_site_fract_z
_atom_site_U_iso_or_equiv
_atom_site_adp_type
_atom_site_occupancy
Cd1    Cd    0.03223   0.90818   0.43130   0.01267  Uiso   1.00
Cd2    Cd    0.87171   0.59182   0.06870   0.01267  Uiso   1.00
Cd3    Cd    0.46352   0.56871   0.40818   0.01267  Uiso   1.00
Cd4    Cd    0.94042   0.93129   0.09182   0.01267  Uiso   1.00
Cd5    Cd    0.96777   0.09182   0.56870   0.01267  Uiso   1.00
Cd6    Cd    0.12829   0.40818   0.93130   0.01267  Uiso   1.00
Cd7    Cd    0.53648   0.43129   0.59182   0.01267  Uiso   1.00
Cd8    Cd    0.05958   0.06871   0.90818   0.01267  Uiso   1.00
H1     H     0.25430   0.56740   0.41580   0.01267  Uiso   1.00
H2     H     0.23120   0.49970   0.33290   0.01267  Uiso   1.00
H3     H     0.19340   0.70480   0.17900   0.01267  Uiso   1.00
H4     H     0.21260   0.77380   0.26280   0.01267  Uiso   1.00
H5     H     0.04370   0.72150   0.51190   0.01267  Uiso   1.00
H6     H     0.98920   0.65970   0.64310   0.01267  Uiso   1.00
H7     H     0.76080   0.88850   0.73310   0.01267  Uiso   1.00
H8     H     0.82300   0.94460   0.59840   0.01267  Uiso   1.00
H9     H     0.73750   0.93260   0.08420   0.01267  Uiso   1.00
H10    H     0.56380   0.00030   0.16710   0.01267  Uiso   1.00
H11    H     0.57720   0.79520   0.32100   0.01267  Uiso   1.00
H12    H     0.74920   0.72620   0.23720   0.01267  Uiso   1.00
H13    H     0.77710   0.77850   0.98810   0.01267  Uiso   1.00
H14    H     0.79200   0.84030   0.85690   0.01267  Uiso   1.00
H15    H     0.88240   0.61150   0.76690   0.01267  Uiso   1.00
H16    H     0.86600   0.55540   0.90160   0.01267  Uiso   1.00
H17    H     0.67010   0.58420   0.06740   0.01267  Uiso   1.00
H18    H     0.56410   0.66710   0.99970   0.01267  Uiso   1.00
H19    H     0.37240   0.82100   0.20480   0.01267  Uiso   1.00
H20    H     0.47540   0.73720   0.27380   0.01267  Uiso   1.00
H21    H     0.55560   0.48810   0.22150   0.01267  Uiso   1.00
H22    H     0.63230   0.35690   0.15970   0.01267  Uiso   1.00
H23    H     0.49390   0.26690   0.38850   0.01267  Uiso   1.00
H24    H     0.42140   0.40160   0.44460   0.01267  Uiso   1.00
H25    H     0.82170   0.91580   0.43260   0.01267  Uiso   1.00
H26    H     0.73090   0.83290   0.50030   0.01267  Uiso   1.00
H27    H     0.89820   0.67900   0.29520   0.01267  Uiso   1.00
H28    H     0.98640   0.76280   0.22620   0.01267  Uiso   1.00
H29    H     0.76520   0.01190   0.27850   0.01267  Uiso   1.00
H30    H     0.64890   0.14310   0.34030   0.01267  Uiso   1.00
H31    H     0.64930   0.23310   0.11150   0.01267  Uiso   1.00
H32    H     0.76760   0.09840   0.05540   0.01267  Uiso   1.00
H33    H     0.74570   0.43260   0.58420   0.01267  Uiso   1.00
H34    H     0.76880   0.50030   0.66710   0.01267  Uiso   1.00
H35    H     0.80660   0.29520   0.82100   0.01267  Uiso   1.00
H36    H     0.78740   0.22620   0.73720   0.01267  Uiso   1.00
H37    H     0.95630   0.27850   0.48810   0.01267  Uiso   1.00
H38    H     0.01080   0.34030   0.35690   0.01267  Uiso   1.00
H39    H     0.23920   0.11150   0.26690   0.01267  Uiso   1.00
H40    H     0.17700   0.05540   0.40160   0.01267  Uiso   1.00
H41    H     0.26250   0.06740   0.91580   0.01267  Uiso   1.00
H42    H     0.43620   0.99970   0.83290   0.01267  Uiso   1.00
H43    H     0.42280   0.20480   0.67900   0.01267  Uiso   1.00
H44    H     0.25080   0.27380   0.76280   0.01267  Uiso   1.00
H45    H     0.22290   0.22150   0.01190   0.01267  Uiso   1.00
H46    H     0.20800   0.15970   0.14310   0.01267  Uiso   1.00
H47    H     0.11760   0.38850   0.23310   0.01267  Uiso   1.00
H48    H     0.13400   0.44460   0.09840   0.01267  Uiso   1.00
H49    H     0.32990   0.41580   0.93260   0.01267  Uiso   1.00
H50    H     0.43590   0.33290   0.00030   0.01267  Uiso   1.00
H51    H     0.62760   0.17900   0.79520   0.01267  Uiso   1.00
H52    H     0.52460   0.26280   0.72620   0.01267  Uiso   1.00
H53    H     0.44440   0.51190   0.77850   0.01267  Uiso   1.00
H54    H     0.36770   0.64310   0.84030   0.01267  Uiso   1.00
H55    H     0.50610   0.73310   0.61150   0.01267  Uiso   1.00
H56    H     0.57860   0.59840   0.55540   0.01267  Uiso   1.00
H57    H     0.17830   0.08420   0.56740   0.01267  Uiso   1.00
H58    H     0.26910   0.16710   0.49970   0.01267  Uiso   1.00
H59    H     0.10180   0.32100   0.70480   0.01267  Uiso   1.00
H60    H     0.01360   0.23720   0.77380   0.01267  Uiso   1.00
H61    H     0.23480   0.98810   0.72150   0.01267  Uiso   1.00
H62    H     0.35110   0.85690   0.65970   0.01267  Uiso   1.00
H63    H     0.35070   0.76690   0.88850   0.01267  Uiso   1.00
H64    H     0.23240   0.90160   0.94460   0.01267  Uiso   1.00
C1     C     0.16931   0.90962   0.51056   0.01267  Uiso   1.00
C2     C     0.22259   0.82587   0.46835   0.01267  Uiso   1.00
C3     C     0.31287   0.75680   0.46126   0.01267  Uiso   1.00
C4     C     0.39092   0.74646   0.48570   0.01267  Uiso   1.00
C5     C     0.24776   0.72326   0.39982   0.01267  Uiso   1.00
C6     C     0.23525   0.67734   0.34776   0.01267  Uiso   1.00
C7     C     0.24130   0.59550   0.36870   0.01267  Uiso   1.00
C8     C     0.22780   0.55490   0.31910   0.01267  Uiso   1.00
C9     C     0.20950   0.59700   0.25000   0.01267  Uiso   1.00
C10    C     0.20460   0.67780   0.22700   0.01267  Uiso   1.00
C11    C     0.21680   0.71840   0.27680   0.01267  Uiso   1.00
C12    C     0.98730   0.75610   0.55750   0.01267  Uiso   1.00
C13    C     0.95510   0.71848   0.63632   0.01267  Uiso   1.00
C14    C     0.87149   0.76826   0.70616   0.01267  Uiso   1.00
C15    C     0.82028   0.85347   0.68977   0.01267  Uiso   1.00
C16    C     0.85808   0.88676   0.60788   0.01267  Uiso   1.00
C17    C     0.08949   0.59038   0.98944   0.01267  Uiso   1.00
C18    C     0.01681   0.67413   0.03165   0.01267  Uiso   1.00
C19    C     0.03093   0.74320   0.03874   0.01267  Uiso   1.00
C20    C     0.12308   0.75354   0.01430   0.01267  Uiso   1.00
C21    C     0.87084   0.77674   0.10018   0.01267  Uiso   1.00
C22    C     0.76035   0.82266   0.15224   0.01267  Uiso   1.00
C23    C     0.70550   0.90450   0.13130   0.01267  Uiso   1.00
C24    C     0.60180   0.94510   0.18090   0.01267  Uiso   1.00
C25    C     0.55650   0.90300   0.25000   0.01267  Uiso   1.00
C26    C     0.60940   0.82220   0.27300   0.01267  Uiso   1.00
C27    C     0.71200   0.78160   0.22320   0.01267  Uiso   1.00
C28    C     0.80090   0.74390   0.94250   0.01267  Uiso   1.00
C29    C     0.80990   0.78152   0.86368   0.01267  Uiso   1.00
C30    C     0.84591   0.73174   0.79384   0.01267  Uiso   1.00
C31    C     0.86352   0.64653   0.81023   0.01267  Uiso   1.00
C32    C     0.85272   0.61324   0.89212   0.01267  Uiso   1.00
C33    C     0.67987   0.48944   0.40962   0.01267  Uiso   1.00
C34    C     0.69094   0.53165   0.32587   0.01267  Uiso   1.00
C35    C     0.77413   0.53874   0.25680   0.01267  Uiso   1.00
C36    C     0.87662   0.51430   0.24646   0.01267  Uiso   1.00
C37    C     0.64758   0.60018   0.22326   0.01267  Uiso   1.00
C38    C     0.58301   0.65224   0.17734   0.01267  Uiso   1.00
C39    C     0.61000   0.63130   0.09550   0.01267  Uiso   1.00
C40    C     0.54690   0.68090   0.05490   0.01267  Uiso   1.00
C41    C     0.45950   0.75000   0.09700   0.01267  Uiso   1.00
C42    C     0.43160   0.77300   0.17780   0.01267  Uiso   1.00
C43    C     0.49360   0.72320   0.21840   0.01267  Uiso   1.00
C44    C     0.54480   0.44250   0.25610   0.01267  Uiso   1.00
C45    C     0.59142   0.36368   0.21848   0.01267  Uiso   1.00
C46    C     0.57765   0.29384   0.26826   0.01267  Uiso   1.00
C47    C     0.51005   0.31023   0.35347   0.01267  Uiso   1.00
C48    C     0.46596   0.39212   0.38676   0.01267  Uiso   1.00
C49    C     0.07893   0.01056   0.09038   0.01267  Uiso   1.00
C50    C     0.04846   0.96835   0.17413   0.01267  Uiso   1.00
C51    C     0.06967   0.96126   0.24320   0.01267  Uiso   1.00
C52    C     0.13738   0.98570   0.25354   0.01267  Uiso   1.00
C53    C     0.97102   0.89982   0.27674   0.01267  Uiso   1.00
C54    C     0.91259   0.84776   0.32266   0.01267  Uiso   1.00
C55    C     0.83680   0.86870   0.40450   0.01267  Uiso   1.00
C56    C     0.78270   0.81910   0.44510   0.01267  Uiso   1.00
C57    C     0.80650   0.75000   0.40300   0.01267  Uiso   1.00
C58    C     0.88240   0.72700   0.32220   0.01267  Uiso   1.00
C59    C     0.93520   0.77680   0.28160   0.01267  Uiso   1.00
C60    C     0.74340   0.05750   0.24390   0.01267  Uiso   1.00
C61    C     0.67358   0.13632   0.28152   0.01267  Uiso   1.00
C62    C     0.63975   0.20616   0.23174   0.01267  Uiso   1.00
C63    C     0.67375   0.18977   0.14653   0.01267  Uiso   1.00
C64    C     0.74484   0.10788   0.11324   0.01267  Uiso   1.00
C65    C     0.83069   0.09038   0.48944   0.01267  Uiso   1.00
C66    C     0.77741   0.17413   0.53165   0.01267  Uiso   1.00
C67    C     0.68713   0.24320   0.53874   0.01267  Uiso   1.00
C68    C     0.60908   0.25354   0.51430   0.01267  Uiso   1.00
C69    C     0.75224   0.27674   0.60018   0.01267  Uiso   1.00
C70    C     0.76475   0.32266   0.65224   0.01267  Uiso   1.00
C71    C     0.75870   0.40450   0.63130   0.01267  Uiso   1.00
C72    C     0.77220   0.44510   0.68090   0.01267  Uiso   1.00
C73    C     0.79050   0.40300   0.75000   0.01267  Uiso   1.00
C74    C     0.79540   0.32220   0.77300   0.01267  Uiso   1.00
C75    C     0.78320   0.28160   0.72320   0.01267  Uiso   1.00
C76    C     0.01270   0.24390   0.44250   0.01267  Uiso   1.00
C77    C     0.04490   0.28152   0.36368   0.01267  Uiso   1.00
C78    C     0.12851   0.23174   0.29384   0.01267  Uiso   1.00
C79    C     0.17972   0.14653   0.31023   0.01267  Uiso   1.00
C80    C     0.14192   0.11324   0.39212   0.01267  Uiso   1.00
C81    C     0.91051   0.40962   0.01056   0.01267  Uiso   1.00
C82    C     0.98319   0.32587   0.96835   0.01267  Uiso   1.00
C83    C     0.96907   0.25680   0.96126   0.01267  Uiso   1.00
C84    C     0.87692   0.24646   0.98570   0.01267  Uiso   1.00
C85    C     0.12916   0.22326   0.89982   0.01267  Uiso   1.00
C86    C     0.23965   0.17734   0.84776   0.01267  Uiso   1.00
C87    C     0.29450   0.09550   0.86870   0.01267  Uiso   1.00
C88    C     0.39820   0.05490   0.81910   0.01267  Uiso   1.00
C89    C     0.44350   0.09700   0.75000   0.01267  Uiso   1.00
C90    C     0.39060   0.17780   0.72700   0.01267  Uiso   1.00
C91    C     0.28800   0.21840   0.77680   0.01267  Uiso   1.00
C92    C     0.19910   0.25610   0.05750   0.01267  Uiso   1.00
C93    C     0.19010   0.21848   0.13632   0.01267  Uiso   1.00
C94    C     0.15409   0.26826   0.20616   0.01267  Uiso   1.00
C95    C     0.13648   0.35347   0.18977   0.01267  Uiso   1.00
C96    C     0.14728   0.38676   0.10788   0.01267  Uiso   1.00
C97    C     0.32013   0.51056   0.59038   0.01267  Uiso   1.00
C98    C     0.30906   0.46835   0.67413   0.01267  Uiso   1.00
C99    C     0.22587   0.46126   0.74320   0.01267  Uiso   1.00
C100   C     0.12338   0.48570   0.75354   0.01267  Uiso   1.00
C101   C     0.35242   0.39982   0.77674   0.01267  Uiso   1.00
C102   C     0.41699   0.34776   0.82266   0.01267  Uiso   1.00
C103   C     0.39000   0.36870   0.90450   0.01267  Uiso   1.00
C104   C     0.45310   0.31910   0.94510   0.01267  Uiso   1.00
C105   C     0.54050   0.25000   0.90300   0.01267  Uiso   1.00
C106   C     0.56840   0.22700   0.82220   0.01267  Uiso   1.00
C107   C     0.50640   0.27680   0.78160   0.01267  Uiso   1.00
C108   C     0.45520   0.55750   0.74390   0.01267  Uiso   1.00
C109   C     0.40858   0.63632   0.78152   0.01267  Uiso   1.00
C110   C     0.42235   0.70616   0.73174   0.01267  Uiso   1.00
C111   C     0.48995   0.68977   0.64653   0.01267  Uiso   1.00
C112   C     0.53404   0.60788   0.61324   0.01267  Uiso   1.00
C113   C     0.92107   0.98944   0.90962   0.01267  Uiso   1.00
C114   C     0.95154   0.03165   0.82587   0.01267  Uiso   1.00
C115   C     0.93033   0.03874   0.75680   0.01267  Uiso   1.00
C116   C     0.86262   0.01430   0.74646   0.01267  Uiso   1.00
C117   C     0.02898   0.10018   0.72326   0.01267  Uiso   1.00
C118   C     0.08741   0.15224   0.67734   0.01267  Uiso   1.00
C119   C     0.16320   0.13130   0.59550   0.01267  Uiso   1.00
C120   C     0.21730   0.18090   0.55490   0.01267  Uiso   1.00
C121   C     0.19350   0.25000   0.59700   0.01267  Uiso   1.00
C122   C     0.11760   0.27300   0.67780   0.01267  Uiso   1.00
C123   C     0.06480   0.22320   0.71840   0.01267  Uiso   1.00
C124   C     0.25660   0.94250   0.75610   0.01267  Uiso   1.00
C125   C     0.32642   0.86368   0.71848   0.01267  Uiso   1.00
C126   C     0.36025   0.79384   0.76826   0.01267  Uiso   1.00
C127   C     0.32625   0.81023   0.85347   0.01267  Uiso   1.00
C128   C     0.25516   0.89212   0.88676   0.01267  Uiso   1.00
Br1    Br    0.18814   0.54303   0.18321   0.01267  Uiso   1.00
Br2    Br    0.41438   0.95697   0.31679   0.01267  Uiso   1.00
Br3    Br    0.37135   0.81679   0.04303   0.01267  Uiso   1.00
Br4    Br    0.73117   0.68321   0.45697   0.01267  Uiso   1.00
Br5    Br    0.81186   0.45697   0.81679   0.01267  Uiso   1.00
Br6    Br    0.58562   0.04303   0.68321   0.01267  Uiso   1.00
Br7    Br    0.62865   0.18321   0.95697   0.01267  Uiso   1.00
Br8    Br    0.26883   0.31679   0.54303   0.01267  Uiso   1.00
N1     N     0.18197   0.80395   0.42871   0.01267  Uiso   1.00
N2     N     0.32787   0.69155   0.41825   0.01267  Uiso   1.00
N3     N     0.94130   0.84039   0.54301   0.01267  Uiso   1.00
N4     N     0.91463   0.69605   0.07129   0.01267  Uiso   1.00
N5     N     0.93767   0.80845   0.08175   0.01267  Uiso   1.00
N6     N     0.82470   0.65961   0.95699   0.01267  Uiso   1.00
N7     N     0.61068   0.57129   0.30395   0.01267  Uiso   1.00
N8     N     0.74612   0.58175   0.19155   0.01267  Uiso   1.00
N9     N     0.48431   0.45699   0.34039   0.01267  Uiso   1.00
N10    N     0.98592   0.92871   0.19605   0.01267  Uiso   1.00
N11    N     0.01942   0.91825   0.30845   0.01267  Uiso   1.00
N12    N     0.78169   0.04301   0.15961   0.01267  Uiso   1.00
N13    N     0.81803   0.19605   0.57129   0.01267  Uiso   1.00
N14    N     0.67213   0.30845   0.58175   0.01267  Uiso   1.00
N15    N     0.05870   0.15961   0.45699   0.01267  Uiso   1.00
N16    N     0.08537   0.30395   0.92871   0.01267  Uiso   1.00
N17    N     0.06233   0.19155   0.91825   0.01267  Uiso   1.00
N18    N     0.17530   0.34039   0.04301   0.01267  Uiso   1.00
N19    N     0.38932   0.42871   0.69605   0.01267  Uiso   1.00
N20    N     0.25388   0.41825   0.80845   0.01267  Uiso   1.00
N21    N     0.51569   0.54301   0.65961   0.01267  Uiso   1.00
N22    N     0.01408   0.07129   0.80395   0.01267  Uiso   1.00
N23    N     0.98058   0.08175   0.69155   0.01267  Uiso   1.00
N24    N     0.21831   0.95699   0.84039   0.01267  Uiso   1.00
O1     O     0.46761   0.67765   0.47073   0.01267  Uiso   1.00
O2     O     0.37802   0.81130   0.52074   0.01267  Uiso   1.00
O3     O     0.21199   0.93193   0.53877   0.01267  Uiso   1.00
O4     O     0.08098   0.95645   0.51549   0.01267  Uiso   1.00
O5     O     0.11599   0.82235   0.02927   0.01267  Uiso   1.00
O6     O     0.21006   0.68870   0.97926   0.01267  Uiso   1.00
O7     O     0.18269   0.56807   0.96123   0.01267  Uiso   1.00
O8     O     0.05292   0.54355   0.98451   0.01267  Uiso   1.00
O9     O     0.93834   0.52927   0.17765   0.01267  Uiso   1.00
O10    O     0.89876   0.47926   0.31130   0.01267  Uiso   1.00
O11    O     0.75076   0.46123   0.43193   0.01267  Uiso   1.00
O12    O     0.59647   0.48451   0.45645   0.01267  Uiso   1.00
O13    O     0.14526   0.97073   0.32235   0.01267  Uiso   1.00
O14    O     0.18932   0.02074   0.18870   0.01267  Uiso   1.00
O15    O     0.14392   0.03877   0.06807   0.01267  Uiso   1.00
O16    O     0.03743   0.01549   0.04355   0.01267  Uiso   1.00
O17    O     0.53239   0.32235   0.52927   0.01267  Uiso   1.00
O18    O     0.62198   0.18870   0.47926   0.01267  Uiso   1.00
O19    O     0.78801   0.06807   0.46123   0.01267  Uiso   1.00
O20    O     0.91902   0.04355   0.48451   0.01267  Uiso   1.00
O21    O     0.88401   0.17765   0.97073   0.01267  Uiso   1.00
O22    O     0.78994   0.31130   0.02074   0.01267  Uiso   1.00
O23    O     0.81731   0.43193   0.03877   0.01267  Uiso   1.00
O24    O     0.94708   0.45645   0.01549   0.01267  Uiso   1.00
O25    O     0.06166   0.47073   0.82235   0.01267  Uiso   1.00
O26    O     0.10124   0.52074   0.68870   0.01267  Uiso   1.00
O27    O     0.24924   0.53877   0.56807   0.01267  Uiso   1.00
O28    O     0.40353   0.51549   0.54355   0.01267  Uiso   1.00
O29    O     0.85474   0.02927   0.67765   0.01267  Uiso   1.00
O30    O     0.81068   0.97926   0.81130   0.01267  Uiso   1.00
O31    O     0.85608   0.96123   0.93193   0.01267  Uiso   1.00
O32    O     0.96257   0.98451   0.95645   0.01267  Uiso   1.00
