data_PEWXUL_clean
_audit_creation_date              2014-07-02
_audit_creation_method            'Materials Studio'
_symmetry_space_group_name_H-M    'P1'
_symmetry_Int_Tables_number       1
_symmetry_cell_setting            triclinic
loop_
_symmetry_equiv_pos_as_xyz
  x,y,z
_cell_length_a                    8.6320
_cell_length_b                    13.5204
_cell_length_c                    13.5204
_cell_angle_alpha                 95.3357
_cell_angle_beta                  96.9758
_cell_angle_gamma                 96.9758
loop_
_atom_site_label
_atom_site_type_symbol
_atom_site_fract_x
_atom_site_fract_y
_atom_site_fract_z
_atom_site_U_iso_or_equiv
_atom_site_adp_type
_atom_site_occupancy
Ni1    Ni    0.75000   0.67731   0.32269   0.01267  Uiso   1.00
H1     H     0.50870   0.60200   0.13380   0.01267  Uiso   1.00
H2     H     0.48730   0.60130   0.96050   0.01267  Uiso   1.00
H3     H     0.92650   0.75600   0.99600   0.01267  Uiso   1.00
H4     H     0.93640   0.75130   0.16770   0.01267  Uiso   1.00
H5     H     0.61210   0.70850   0.82230   0.01267  Uiso   1.00
H6     H     0.66630   0.60310   0.81770   0.01267  Uiso   1.00
H7     H     0.67500   0.81290   0.50010   0.01267  Uiso   1.00
H8     H     0.70750   0.82980   0.67600   0.01267  Uiso   1.00
H9     H     0.92080   0.57860   0.67140   0.01267  Uiso   1.00
H10    H     0.89940   0.57320   0.49820   0.01267  Uiso   1.00
H11    H     0.86580   0.77970   0.83330   0.01267  Uiso   1.00
H12    H     0.91990   0.67430   0.82850   0.01267  Uiso   1.00
H13    H     0.99130   0.86620   0.39800   0.01267  Uiso   1.00
H14    H     0.01270   0.03950   0.39870   0.01267  Uiso   1.00
H15    H     0.57350   0.00400   0.24400   0.01267  Uiso   1.00
H16    H     0.56360   0.83230   0.24870   0.01267  Uiso   1.00
H17    H     0.88790   0.17770   0.29150   0.01267  Uiso   1.00
H18    H     0.83370   0.18230   0.39690   0.01267  Uiso   1.00
H19    H     0.82500   0.49990   0.18710   0.01267  Uiso   1.00
H20    H     0.79250   0.32400   0.17020   0.01267  Uiso   1.00
H21    H     0.57920   0.32860   0.42140   0.01267  Uiso   1.00
H22    H     0.60060   0.50180   0.42680   0.01267  Uiso   1.00
H23    H     0.63420   0.16670   0.22030   0.01267  Uiso   1.00
H24    H     0.58010   0.17150   0.32570   0.01267  Uiso   1.00
C1     C     0.59550   0.63310   0.10490   0.01267  Uiso   1.00
C2     C     0.58360   0.63260   0.00260   0.01267  Uiso   1.00
C3     C     0.70620   0.67700   0.95880   0.01267  Uiso   1.00
C4     C     0.83880   0.72280   0.02260   0.01267  Uiso   1.00
C5     C     0.84450   0.71960   0.12480   0.01267  Uiso   1.00
C6     C     0.69520   0.67420   0.84580   0.01267  Uiso   1.00
C7     C     0.85540   0.62550   0.53450   0.01267  Uiso   1.00
C8     C     0.86930   0.62910   0.63830   0.01267  Uiso   1.00
C9     C     0.81580   0.70450   0.69310   0.01267  Uiso   1.00
C10    C     0.74490   0.77380   0.64020   0.01267  Uiso   1.00
C11    C     0.72830   0.76420   0.53560   0.01267  Uiso   1.00
C12    C     0.83350   0.71220   0.80580   0.01267  Uiso   1.00
C13    C     0.38460   0.65350   0.34510   0.01267  Uiso   1.00
C14    C     0.90450   0.89510   0.36690   0.01267  Uiso   1.00
C15    C     0.91640   0.99740   0.36740   0.01267  Uiso   1.00
C16    C     0.79380   0.04120   0.32300   0.01267  Uiso   1.00
C17    C     0.66120   0.97740   0.27720   0.01267  Uiso   1.00
C18    C     0.65550   0.87520   0.28040   0.01267  Uiso   1.00
C19    C     0.80480   0.15420   0.32580   0.01267  Uiso   1.00
C20    C     0.64460   0.46550   0.37450   0.01267  Uiso   1.00
C21    C     0.63070   0.36170   0.37090   0.01267  Uiso   1.00
C22    C     0.68420   0.30690   0.29550   0.01267  Uiso   1.00
C23    C     0.75510   0.35980   0.22620   0.01267  Uiso   1.00
C24    C     0.77170   0.46440   0.23580   0.01267  Uiso   1.00
C25    C     0.66650   0.19420   0.28780   0.01267  Uiso   1.00
C26    C     0.11540   0.65490   0.34650   0.01267  Uiso   1.00
N1     N     0.72550   0.67460   0.16640   0.01267  Uiso   1.00
N2     N     0.78310   0.69100   0.48280   0.01267  Uiso   1.00
N3     N     0.50980   0.66970   0.32830   0.01267  Uiso   1.00
N4     N     0.77450   0.83360   0.32540   0.01267  Uiso   1.00
N5     N     0.71690   0.51720   0.30900   0.01267  Uiso   1.00
N6     N     0.99020   0.67170   0.33030   0.01267  Uiso   1.00
N7     N     0.25000   0.62560   0.37440   0.01267  Uiso   1.00
Ni2    Ni    0.25000   0.32269   0.67731   0.01267  Uiso   1.00
H25    H     0.49130   0.39800   0.86620   0.01267  Uiso   1.00
H26    H     0.51270   0.39870   0.03950   0.01267  Uiso   1.00
H27    H     0.07350   0.24400   0.00400   0.01267  Uiso   1.00
H28    H     0.06360   0.24870   0.83230   0.01267  Uiso   1.00
H29    H     0.38790   0.29150   0.17770   0.01267  Uiso   1.00
H30    H     0.33370   0.39690   0.18230   0.01267  Uiso   1.00
H31    H     0.32500   0.18710   0.49990   0.01267  Uiso   1.00
H32    H     0.29250   0.17020   0.32400   0.01267  Uiso   1.00
H33    H     0.07920   0.42140   0.32860   0.01267  Uiso   1.00
H34    H     0.10060   0.42680   0.50180   0.01267  Uiso   1.00
H35    H     0.13420   0.22030   0.16670   0.01267  Uiso   1.00
H36    H     0.08010   0.32570   0.17150   0.01267  Uiso   1.00
H37    H     0.00870   0.13380   0.60200   0.01267  Uiso   1.00
H38    H     0.98730   0.96050   0.60130   0.01267  Uiso   1.00
H39    H     0.42650   0.99600   0.75600   0.01267  Uiso   1.00
H40    H     0.43640   0.16770   0.75130   0.01267  Uiso   1.00
H41    H     0.11210   0.82230   0.70850   0.01267  Uiso   1.00
H42    H     0.16630   0.81770   0.60310   0.01267  Uiso   1.00
H43    H     0.17500   0.50010   0.81290   0.01267  Uiso   1.00
H44    H     0.20750   0.67600   0.82980   0.01267  Uiso   1.00
H45    H     0.42080   0.67140   0.57860   0.01267  Uiso   1.00
H46    H     0.39940   0.49820   0.57320   0.01267  Uiso   1.00
H47    H     0.36580   0.83330   0.77970   0.01267  Uiso   1.00
H48    H     0.41990   0.82850   0.67430   0.01267  Uiso   1.00
C27    C     0.40450   0.36690   0.89510   0.01267  Uiso   1.00
C28    C     0.41640   0.36740   0.99740   0.01267  Uiso   1.00
C29    C     0.29380   0.32300   0.04120   0.01267  Uiso   1.00
C30    C     0.16120   0.27720   0.97740   0.01267  Uiso   1.00
C31    C     0.15550   0.28040   0.87520   0.01267  Uiso   1.00
C32    C     0.30480   0.32580   0.15420   0.01267  Uiso   1.00
C33    C     0.14460   0.37450   0.46550   0.01267  Uiso   1.00
C34    C     0.13070   0.37090   0.36170   0.01267  Uiso   1.00
C35    C     0.18420   0.29550   0.30690   0.01267  Uiso   1.00
C36    C     0.25510   0.22620   0.35980   0.01267  Uiso   1.00
C37    C     0.27170   0.23580   0.46440   0.01267  Uiso   1.00
C38    C     0.16650   0.28780   0.19420   0.01267  Uiso   1.00
C39    C     0.61540   0.34650   0.65490   0.01267  Uiso   1.00
C40    C     0.09550   0.10490   0.63310   0.01267  Uiso   1.00
C41    C     0.08360   0.00260   0.63260   0.01267  Uiso   1.00
C42    C     0.20620   0.95880   0.67700   0.01267  Uiso   1.00
C43    C     0.33880   0.02260   0.72280   0.01267  Uiso   1.00
C44    C     0.34450   0.12480   0.71960   0.01267  Uiso   1.00
C45    C     0.19520   0.84580   0.67420   0.01267  Uiso   1.00
C46    C     0.35540   0.53450   0.62550   0.01267  Uiso   1.00
C47    C     0.36930   0.63830   0.62910   0.01267  Uiso   1.00
C48    C     0.31580   0.69310   0.70450   0.01267  Uiso   1.00
C49    C     0.24490   0.64020   0.77380   0.01267  Uiso   1.00
C50    C     0.22830   0.53560   0.76420   0.01267  Uiso   1.00
C51    C     0.33350   0.80580   0.71220   0.01267  Uiso   1.00
C52    C     0.88460   0.34510   0.65350   0.01267  Uiso   1.00
N8     N     0.27450   0.32540   0.83360   0.01267  Uiso   1.00
N9     N     0.21690   0.30900   0.51720   0.01267  Uiso   1.00
N10    N     0.49020   0.33030   0.67170   0.01267  Uiso   1.00
N11    N     0.22550   0.16640   0.67460   0.01267  Uiso   1.00
N12    N     0.28310   0.48280   0.69100   0.01267  Uiso   1.00
N13    N     0.00980   0.32830   0.66970   0.01267  Uiso   1.00
N14    N     0.75000   0.37440   0.62560   0.01267  Uiso   1.00
