data_PEWXUL01_clean
_audit_creation_date              2014-07-02
_audit_creation_method            'Materials Studio'
_symmetry_space_group_name_H-M    'P1'
_symmetry_Int_Tables_number       1
_symmetry_cell_setting            triclinic
loop_
_symmetry_equiv_pos_as_xyz
  x,y,z
_cell_length_a                    8.6300
_cell_length_b                    13.5145
_cell_length_c                    13.5145
_cell_angle_alpha                 94.8880
_cell_angle_beta                  96.8852
_cell_angle_gamma                 96.8852
loop_
_atom_site_label
_atom_site_type_symbol
_atom_site_fract_x
_atom_site_fract_y
_atom_site_fract_z
_atom_site_U_iso_or_equiv
_atom_site_adp_type
_atom_site_occupancy
Ni1    Ni    0.75000   0.67556   0.32444   0.01267  Uiso   1.00
H1     H     0.50320   0.60520   0.13680   0.01267  Uiso   1.00
H2     H     0.48500   0.60040   0.96320   0.01267  Uiso   1.00
H3     H     0.92990   0.74540   0.99480   0.01267  Uiso   1.00
H4     H     0.93860   0.74610   0.16870   0.01267  Uiso   1.00
H5     H     0.67150   0.59850   0.81970   0.01267  Uiso   1.00
H6     H     0.61170   0.70230   0.82270   0.01267  Uiso   1.00
H7     H     0.90210   0.57220   0.49880   0.01267  Uiso   1.00
H8     H     0.91740   0.57270   0.67230   0.01267  Uiso   1.00
H9     H     0.70500   0.82610   0.67650   0.01267  Uiso   1.00
H10    H     0.67740   0.80890   0.50130   0.01267  Uiso   1.00
H11    H     0.92260   0.67440   0.83140   0.01267  Uiso   1.00
H12    H     0.86220   0.77800   0.83360   0.01267  Uiso   1.00
H13    H     0.99680   0.86320   0.39480   0.01267  Uiso   1.00
H14    H     0.01500   0.03680   0.39960   0.01267  Uiso   1.00
H15    H     0.57010   0.00520   0.25460   0.01267  Uiso   1.00
H16    H     0.56140   0.83130   0.25390   0.01267  Uiso   1.00
H17    H     0.82850   0.18030   0.40150   0.01267  Uiso   1.00
H18    H     0.88830   0.17730   0.29770   0.01267  Uiso   1.00
H19    H     0.59790   0.50120   0.42780   0.01267  Uiso   1.00
H20    H     0.58260   0.32770   0.42730   0.01267  Uiso   1.00
H21    H     0.79500   0.32350   0.17390   0.01267  Uiso   1.00
H22    H     0.82260   0.49870   0.19110   0.01267  Uiso   1.00
H23    H     0.57740   0.16860   0.32560   0.01267  Uiso   1.00
H24    H     0.63780   0.16640   0.22200   0.01267  Uiso   1.00
C1     C     0.59200   0.63410   0.10730   0.01267  Uiso   1.00
C2     C     0.57900   0.63160   0.00420   0.01267  Uiso   1.00
C3     C     0.70400   0.67230   0.95990   0.01267  Uiso   1.00
C4     C     0.84100   0.71400   0.02280   0.01267  Uiso   1.00
C5     C     0.84400   0.71400   0.12480   0.01267  Uiso   1.00
C6     C     0.69400   0.66780   0.84700   0.01267  Uiso   1.00
C7     C     0.85500   0.62320   0.53600   0.01267  Uiso   1.00
C8     C     0.86800   0.62650   0.63870   0.01267  Uiso   1.00
C9     C     0.81500   0.70270   0.69330   0.01267  Uiso   1.00
C10    C     0.74600   0.77110   0.64190   0.01267  Uiso   1.00
C11    C     0.73100   0.76090   0.53790   0.01267  Uiso   1.00
C12    C     0.83300   0.70890   0.80650   0.01267  Uiso   1.00
C13    C     0.38300   0.65270   0.34710   0.01267  Uiso   1.00
C14    C     0.90800   0.89270   0.36590   0.01267  Uiso   1.00
C15    C     0.92100   0.99580   0.36840   0.01267  Uiso   1.00
C16    C     0.79600   0.04010   0.32770   0.01267  Uiso   1.00
C17    C     0.65900   0.97720   0.28600   0.01267  Uiso   1.00
C18    C     0.65600   0.87520   0.28600   0.01267  Uiso   1.00
C19    C     0.80600   0.15300   0.33220   0.01267  Uiso   1.00
C20    C     0.64500   0.46400   0.37680   0.01267  Uiso   1.00
C21    C     0.63200   0.36130   0.37350   0.01267  Uiso   1.00
C22    C     0.68500   0.30670   0.29730   0.01267  Uiso   1.00
C23    C     0.75400   0.35810   0.22890   0.01267  Uiso   1.00
C24    C     0.76900   0.46210   0.23910   0.01267  Uiso   1.00
C25    C     0.66700   0.19350   0.29110   0.01267  Uiso   1.00
C26    C     0.11700   0.65290   0.34730   0.01267  Uiso   1.00
N1     N     0.72440   0.67320   0.16800   0.01267  Uiso   1.00
N2     N     0.78300   0.68790   0.48450   0.01267  Uiso   1.00
N3     N     0.51050   0.66840   0.33060   0.01267  Uiso   1.00
N4     N     0.77560   0.83200   0.32680   0.01267  Uiso   1.00
N5     N     0.71700   0.51550   0.31210   0.01267  Uiso   1.00
N6     N     0.98950   0.66940   0.33160   0.01267  Uiso   1.00
N7     N     0.25000   0.62430   0.37570   0.01267  Uiso   1.00
Ni2    Ni    0.25000   0.32444   0.67556   0.01267  Uiso   1.00
H25    H     0.49680   0.39480   0.86320   0.01267  Uiso   1.00
H26    H     0.51500   0.39960   0.03680   0.01267  Uiso   1.00
H27    H     0.07010   0.25460   0.00520   0.01267  Uiso   1.00
H28    H     0.06140   0.25390   0.83130   0.01267  Uiso   1.00
H29    H     0.32850   0.40150   0.18030   0.01267  Uiso   1.00
H30    H     0.38830   0.29770   0.17730   0.01267  Uiso   1.00
H31    H     0.09790   0.42780   0.50120   0.01267  Uiso   1.00
H32    H     0.08260   0.42730   0.32770   0.01267  Uiso   1.00
H33    H     0.29500   0.17390   0.32350   0.01267  Uiso   1.00
H34    H     0.32260   0.19110   0.49870   0.01267  Uiso   1.00
H35    H     0.07740   0.32560   0.16860   0.01267  Uiso   1.00
H36    H     0.13780   0.22200   0.16640   0.01267  Uiso   1.00
H37    H     0.00320   0.13680   0.60520   0.01267  Uiso   1.00
H38    H     0.98500   0.96320   0.60040   0.01267  Uiso   1.00
H39    H     0.42990   0.99480   0.74540   0.01267  Uiso   1.00
H40    H     0.43860   0.16870   0.74610   0.01267  Uiso   1.00
H41    H     0.17150   0.81970   0.59850   0.01267  Uiso   1.00
H42    H     0.11170   0.82270   0.70230   0.01267  Uiso   1.00
H43    H     0.40210   0.49880   0.57220   0.01267  Uiso   1.00
H44    H     0.41740   0.67230   0.57270   0.01267  Uiso   1.00
H45    H     0.20500   0.67650   0.82610   0.01267  Uiso   1.00
H46    H     0.17740   0.50130   0.80890   0.01267  Uiso   1.00
H47    H     0.42260   0.83140   0.67440   0.01267  Uiso   1.00
H48    H     0.36220   0.83360   0.77800   0.01267  Uiso   1.00
C27    C     0.40800   0.36590   0.89270   0.01267  Uiso   1.00
C28    C     0.42100   0.36840   0.99580   0.01267  Uiso   1.00
C29    C     0.29600   0.32770   0.04010   0.01267  Uiso   1.00
C30    C     0.15900   0.28600   0.97720   0.01267  Uiso   1.00
C31    C     0.15600   0.28600   0.87520   0.01267  Uiso   1.00
C32    C     0.30600   0.33220   0.15300   0.01267  Uiso   1.00
C33    C     0.14500   0.37680   0.46400   0.01267  Uiso   1.00
C34    C     0.13200   0.37350   0.36130   0.01267  Uiso   1.00
C35    C     0.18500   0.29730   0.30670   0.01267  Uiso   1.00
C36    C     0.25400   0.22890   0.35810   0.01267  Uiso   1.00
C37    C     0.26900   0.23910   0.46210   0.01267  Uiso   1.00
C38    C     0.16700   0.29110   0.19350   0.01267  Uiso   1.00
C39    C     0.61700   0.34730   0.65290   0.01267  Uiso   1.00
C40    C     0.09200   0.10730   0.63410   0.01267  Uiso   1.00
C41    C     0.07900   0.00420   0.63160   0.01267  Uiso   1.00
C42    C     0.20400   0.95990   0.67230   0.01267  Uiso   1.00
C43    C     0.34100   0.02280   0.71400   0.01267  Uiso   1.00
C44    C     0.34400   0.12480   0.71400   0.01267  Uiso   1.00
C45    C     0.19400   0.84700   0.66780   0.01267  Uiso   1.00
C46    C     0.35500   0.53600   0.62320   0.01267  Uiso   1.00
C47    C     0.36800   0.63870   0.62650   0.01267  Uiso   1.00
C48    C     0.31500   0.69330   0.70270   0.01267  Uiso   1.00
C49    C     0.24600   0.64190   0.77110   0.01267  Uiso   1.00
C50    C     0.23100   0.53790   0.76090   0.01267  Uiso   1.00
C51    C     0.33300   0.80650   0.70890   0.01267  Uiso   1.00
C52    C     0.88300   0.34710   0.65270   0.01267  Uiso   1.00
N8     N     0.27560   0.32680   0.83200   0.01267  Uiso   1.00
N9     N     0.21700   0.31210   0.51550   0.01267  Uiso   1.00
N10    N     0.48950   0.33160   0.66940   0.01267  Uiso   1.00
N11    N     0.22440   0.16800   0.67320   0.01267  Uiso   1.00
N12    N     0.28300   0.48450   0.68790   0.01267  Uiso   1.00
N13    N     0.01050   0.33060   0.66840   0.01267  Uiso   1.00
N14    N     0.75000   0.37570   0.62430   0.01267  Uiso   1.00
