data_image0
_cell_length_a       16.662
_cell_length_b       14.861
_cell_length_c       17.9777
_cell_angle_alpha    90
_cell_angle_beta     113.117
_cell_angle_gamma    90

_symmetry_space_group_name_H-M    "P 1"
_symmetry_int_tables_number       1

loop_
  _symmetry_equiv_pos_as_xyz
  'x, y, z'

loop_
  _atom_site_label
  _atom_site_occupancy
  _atom_site_fract_x
  _atom_site_fract_y
  _atom_site_fract_z
  _atom_site_thermal_displace_type
  _atom_site_B_iso_or_equiv
  _atom_site_type_symbol
  C1       1.0000 0.28250  0.96640  0.41061  Biso   1.000  C
  H1       1.0000 0.27250  0.02780  0.40110  Biso   1.000  H
  C2       1.0000 0.27360  0.82370  0.39731  Biso   1.000  C
  H2       1.0000 0.25520  0.76670  0.37620  Biso   1.000  H
  C3       1.0000 0.34050  0.84010  0.46762  Biso   1.000  C
  H3       1.0000 0.37640  0.79790  0.50350  Biso   1.000  H
  C4       1.0000 0.40950  0.98140  0.54304  Biso   1.000  C
  H4       1.0000 0.41460  0.95430  0.59380  Biso   1.000  H
  H5       1.0000 0.38920  0.04270  0.54210  Biso   1.000  H
  C5       1.0000 0.49870  0.98290  0.53876  Biso   1.000  C
  H6       1.0000 0.53710  0.02000  0.58270  Biso   1.000  H
  H7       1.0000 0.52200  0.92230  0.54780  Biso   1.000  H
  C6       1.0000 0.12240  0.02830  0.09532  Biso   1.000  C
  H8       1.0000 0.13120  0.08230  0.12350  Biso   1.000  H
  C7       1.0000 0.10300  0.88860  0.06480  Biso   1.000  C
  H9       1.0000 0.09530  0.82700  0.06840  Biso   1.000  H
  C8       1.0000 0.10340  0.93240  0.99900  Biso   1.000  C
  H10      1.0000 0.09710  0.90650  0.94990  Biso   1.000  H
  C9       1.0000 0.12520  0.09620  0.96900  Biso   1.000  C
  H11      1.0000 0.12180  0.15260  0.99480  Biso   1.000  H
  H12      1.0000 0.07790  0.09500  0.91600  Biso   1.000  H
  C10      1.0000 0.21030  0.09160  0.95960  Biso   1.000  C
  H13      1.0000 0.21450  0.14260  0.92770  Biso   1.000  H
  H14      1.0000 0.21140  0.03740  0.93010  Biso   1.000  H
  C11      1.0000 0.92360  0.95530  0.24426  Biso   1.000  C
  H15      1.0000 0.92120  0.89280  0.24240  Biso   1.000  H
  C12      1.0000 0.84990  0.00280  0.23683  Biso   1.000  C
  H16      1.0000 0.79860  0.97310  0.23110  Biso   1.000  H
  C13      1.0000 0.85390  0.09560  0.23810  Biso   1.000  C
  H17      1.0000 0.80480  0.12910  0.23310  Biso   1.000  H
  C14      1.0000 0.93050  0.13920  0.24671  Biso   1.000  C
  C15      1.0000 0.00470  0.08790  0.25790  Biso   1.000  C
  C16      1.0000 0.09510  0.12650  0.27980  Biso   1.000  C
  C17      1.0000 0.93060  0.24090  0.24284  Biso   1.000  C
  Cd1      1.0000 0.11805  0.92415  0.24950  Biso   1.000  Cd
  N1       1.0000 0.11564  0.94972  0.12545  Biso   1.000  N
  N2       1.0000 0.23631  0.90166  0.36119  Biso   1.000  N
  N3       1.0000 0.99886  0.99652  0.25410  Biso   1.000  N
  N4       1.0000 0.11475  0.02058  0.01782  Biso   1.000  N
  N5       1.0000 0.34510  0.93092  0.47563  Biso   1.000  N
  O1       1.0000 0.91354  0.28140  0.29541  Biso   1.000  O
  O2       1.0000 0.93902  0.27982  0.18631  Biso   1.000  O
  O3       1.0000 0.15231  0.07845  0.27351  Biso   1.000  O
  O4       1.0000 0.10523  0.20463  0.30458  Biso   1.000  O
  C18      1.0000 0.78250  0.46640  0.91061  Biso   1.000  C
  H18      1.0000 0.77250  0.52780  0.90110  Biso   1.000  H
  C19      1.0000 0.77360  0.32370  0.89731  Biso   1.000  C
  H19      1.0000 0.75520  0.26670  0.87620  Biso   1.000  H
  C20      1.0000 0.84050  0.34010  0.96762  Biso   1.000  C
  H20      1.0000 0.87640  0.29790  0.00350  Biso   1.000  H
  C21      1.0000 0.90950  0.48140  0.04304  Biso   1.000  C
  H21      1.0000 0.91460  0.45430  0.09380  Biso   1.000  H
  H22      1.0000 0.88920  0.54270  0.04210  Biso   1.000  H
  C22      1.0000 0.99870  0.48290  0.03876  Biso   1.000  C
  H23      1.0000 0.03710  0.52000  0.08270  Biso   1.000  H
  H24      1.0000 0.02200  0.42230  0.04780  Biso   1.000  H
  C23      1.0000 0.62240  0.52830  0.59532  Biso   1.000  C
  H25      1.0000 0.63120  0.58230  0.62350  Biso   1.000  H
  C24      1.0000 0.60300  0.38860  0.56480  Biso   1.000  C
  H26      1.0000 0.59530  0.32700  0.56840  Biso   1.000  H
  C25      1.0000 0.60340  0.43240  0.49900  Biso   1.000  C
  H27      1.0000 0.59710  0.40650  0.44990  Biso   1.000  H
  C26      1.0000 0.62520  0.59620  0.46900  Biso   1.000  C
  H28      1.0000 0.62180  0.65260  0.49480  Biso   1.000  H
  H29      1.0000 0.57790  0.59500  0.41600  Biso   1.000  H
  C27      1.0000 0.71030  0.59160  0.45960  Biso   1.000  C
  H30      1.0000 0.71450  0.64260  0.42770  Biso   1.000  H
  H31      1.0000 0.71140  0.53740  0.43010  Biso   1.000  H
  C28      1.0000 0.42360  0.45530  0.74426  Biso   1.000  C
  H32      1.0000 0.42120  0.39280  0.74240  Biso   1.000  H
  C29      1.0000 0.34990  0.50280  0.73683  Biso   1.000  C
  H33      1.0000 0.29860  0.47310  0.73110  Biso   1.000  H
  C30      1.0000 0.35390  0.59560  0.73810  Biso   1.000  C
  H34      1.0000 0.30480  0.62910  0.73310  Biso   1.000  H
  C31      1.0000 0.43050  0.63920  0.74671  Biso   1.000  C
  C32      1.0000 0.50470  0.58790  0.75790  Biso   1.000  C
  C33      1.0000 0.59510  0.62650  0.77980  Biso   1.000  C
  C34      1.0000 0.43060  0.74090  0.74284  Biso   1.000  C
  Cd2      1.0000 0.61805  0.42415  0.74950  Biso   1.000  Cd
  N6       1.0000 0.61564  0.44972  0.62545  Biso   1.000  N
  N7       1.0000 0.73631  0.40166  0.86119  Biso   1.000  N
  N8       1.0000 0.49886  0.49652  0.75410  Biso   1.000  N
  N9       1.0000 0.61475  0.52058  0.51782  Biso   1.000  N
  N10      1.0000 0.84510  0.43092  0.97563  Biso   1.000  N
  O5       1.0000 0.41354  0.78140  0.79541  Biso   1.000  O
  O6       1.0000 0.43902  0.77982  0.68631  Biso   1.000  O
  O7       1.0000 0.65231  0.57845  0.77351  Biso   1.000  O
  O8       1.0000 0.60523  0.70463  0.80458  Biso   1.000  O
  C35      1.0000 0.21750  0.96640  0.58939  Biso   1.000  C
  H35      1.0000 0.22750  0.02780  0.59890  Biso   1.000  H
  C36      1.0000 0.22640  0.82370  0.60269  Biso   1.000  C
  H36      1.0000 0.24480  0.76670  0.62380  Biso   1.000  H
  C37      1.0000 0.15950  0.84010  0.53238  Biso   1.000  C
  H37      1.0000 0.12360  0.79790  0.49650  Biso   1.000  H
  C38      1.0000 0.09050  0.98140  0.45696  Biso   1.000  C
  H38      1.0000 0.08540  0.95430  0.40620  Biso   1.000  H
  H39      1.0000 0.11080  0.04270  0.45790  Biso   1.000  H
  C39      1.0000 0.00130  0.98290  0.46124  Biso   1.000  C
  H40      1.0000 0.96290  0.02000  0.41730  Biso   1.000  H
  H41      1.0000 0.97800  0.92230  0.45220  Biso   1.000  H
  C40      1.0000 0.37760  0.02830  0.90468  Biso   1.000  C
  H42      1.0000 0.36880  0.08230  0.87650  Biso   1.000  H
  C41      1.0000 0.39700  0.88860  0.93520  Biso   1.000  C
  H43      1.0000 0.40470  0.82700  0.93160  Biso   1.000  H
  C42      1.0000 0.39660  0.93240  0.00100  Biso   1.000  C
  H44      1.0000 0.40290  0.90650  0.05010  Biso   1.000  H
  C43      1.0000 0.37480  0.09620  0.03100  Biso   1.000  C
  H45      1.0000 0.37820  0.15260  0.00520  Biso   1.000  H
  H46      1.0000 0.42210  0.09500  0.08400  Biso   1.000  H
  C44      1.0000 0.28970  0.09160  0.04040  Biso   1.000  C
  H47      1.0000 0.28550  0.14260  0.07230  Biso   1.000  H
  H48      1.0000 0.28860  0.03740  0.06990  Biso   1.000  H
  C45      1.0000 0.57640  0.95530  0.75574  Biso   1.000  C
  H49      1.0000 0.57880  0.89280  0.75760  Biso   1.000  H
  C46      1.0000 0.65010  0.00280  0.76317  Biso   1.000  C
  H50      1.0000 0.70140  0.97310  0.76890  Biso   1.000  H
  C47      1.0000 0.64610  0.09560  0.76190  Biso   1.000  C
  H51      1.0000 0.69520  0.12910  0.76690  Biso   1.000  H
  C48      1.0000 0.56950  0.13920  0.75329  Biso   1.000  C
  C49      1.0000 0.49530  0.08790  0.74210  Biso   1.000  C
  C50      1.0000 0.40490  0.12650  0.72020  Biso   1.000  C
  C51      1.0000 0.56940  0.24090  0.75716  Biso   1.000  C
  Cd3      1.0000 0.38195  0.92415  0.75050  Biso   1.000  Cd
  N11      1.0000 0.38436  0.94972  0.87455  Biso   1.000  N
  N12      1.0000 0.26369  0.90166  0.63881  Biso   1.000  N
  N13      1.0000 0.50114  0.99652  0.74590  Biso   1.000  N
  N14      1.0000 0.38525  0.02058  0.98218  Biso   1.000  N
  N15      1.0000 0.15490  0.93092  0.52437  Biso   1.000  N
  O9       1.0000 0.58646  0.28140  0.70459  Biso   1.000  O
  O10      1.0000 0.56098  0.27982  0.81369  Biso   1.000  O
  O11      1.0000 0.34769  0.07845  0.72649  Biso   1.000  O
  O12      1.0000 0.39477  0.20463  0.69542  Biso   1.000  O
  C52      1.0000 0.71750  0.46640  0.08939  Biso   1.000  C
  H52      1.0000 0.72750  0.52780  0.09890  Biso   1.000  H
  C53      1.0000 0.72640  0.32370  0.10269  Biso   1.000  C
  H53      1.0000 0.74480  0.26670  0.12380  Biso   1.000  H
  C54      1.0000 0.65950  0.34010  0.03238  Biso   1.000  C
  H54      1.0000 0.62360  0.29790  0.99650  Biso   1.000  H
  C55      1.0000 0.59050  0.48140  0.95696  Biso   1.000  C
  H55      1.0000 0.58540  0.45430  0.90620  Biso   1.000  H
  H56      1.0000 0.61080  0.54270  0.95790  Biso   1.000  H
  C56      1.0000 0.50130  0.48290  0.96124  Biso   1.000  C
  H57      1.0000 0.46290  0.52000  0.91730  Biso   1.000  H
  H58      1.0000 0.47800  0.42230  0.95220  Biso   1.000  H
  C57      1.0000 0.87760  0.52830  0.40468  Biso   1.000  C
  H59      1.0000 0.86880  0.58230  0.37650  Biso   1.000  H
  C58      1.0000 0.89700  0.38860  0.43520  Biso   1.000  C
  H60      1.0000 0.90470  0.32700  0.43160  Biso   1.000  H
  C59      1.0000 0.89660  0.43240  0.50100  Biso   1.000  C
  H61      1.0000 0.90290  0.40650  0.55010  Biso   1.000  H
  C60      1.0000 0.87480  0.59620  0.53100  Biso   1.000  C
  H62      1.0000 0.87820  0.65260  0.50520  Biso   1.000  H
  H63      1.0000 0.92210  0.59500  0.58400  Biso   1.000  H
  C61      1.0000 0.78970  0.59160  0.54040  Biso   1.000  C
  H64      1.0000 0.78550  0.64260  0.57230  Biso   1.000  H
  H65      1.0000 0.78860  0.53740  0.56990  Biso   1.000  H
  C62      1.0000 0.07640  0.45530  0.25574  Biso   1.000  C
  H66      1.0000 0.07880  0.39280  0.25760  Biso   1.000  H
  C63      1.0000 0.15010  0.50280  0.26317  Biso   1.000  C
  H67      1.0000 0.20140  0.47310  0.26890  Biso   1.000  H
  C64      1.0000 0.14610  0.59560  0.26190  Biso   1.000  C
  H68      1.0000 0.19520  0.62910  0.26690  Biso   1.000  H
  C65      1.0000 0.06950  0.63920  0.25329  Biso   1.000  C
  C66      1.0000 0.99530  0.58790  0.24210  Biso   1.000  C
  C67      1.0000 0.90490  0.62650  0.22020  Biso   1.000  C
  C68      1.0000 0.06940  0.74090  0.25716  Biso   1.000  C
  Cd4      1.0000 0.88195  0.42415  0.25050  Biso   1.000  Cd
  N16      1.0000 0.88436  0.44972  0.37455  Biso   1.000  N
  N17      1.0000 0.76369  0.40166  0.13881  Biso   1.000  N
  N18      1.0000 0.00114  0.49652  0.24590  Biso   1.000  N
  N19      1.0000 0.88525  0.52058  0.48218  Biso   1.000  N
  N20      1.0000 0.65490  0.43092  0.02437  Biso   1.000  N
  O13      1.0000 0.08646  0.78140  0.20459  Biso   1.000  O
  O14      1.0000 0.06098  0.77982  0.31369  Biso   1.000  O
  O15      1.0000 0.84769  0.57845  0.22649  Biso   1.000  O
  O16      1.0000 0.89477  0.70463  0.19542  Biso   1.000  O
  C69      1.0000 0.71750  0.03360  0.58939  Biso   1.000  C
  H69      1.0000 0.72750  0.97220  0.59890  Biso   1.000  H
  C70      1.0000 0.72640  0.17630  0.60269  Biso   1.000  C
  H70      1.0000 0.74480  0.23330  0.62380  Biso   1.000  H
  C71      1.0000 0.65950  0.15990  0.53238  Biso   1.000  C
  H71      1.0000 0.62360  0.20210  0.49650  Biso   1.000  H
  C72      1.0000 0.59050  0.01860  0.45696  Biso   1.000  C
  H72      1.0000 0.58540  0.04570  0.40620  Biso   1.000  H
  H73      1.0000 0.61080  0.95730  0.45790  Biso   1.000  H
  C73      1.0000 0.50130  0.01710  0.46124  Biso   1.000  C
  H74      1.0000 0.46290  0.98000  0.41730  Biso   1.000  H
  H75      1.0000 0.47800  0.07770  0.45220  Biso   1.000  H
  C74      1.0000 0.87760  0.97170  0.90468  Biso   1.000  C
  H76      1.0000 0.86880  0.91770  0.87650  Biso   1.000  H
  C75      1.0000 0.89700  0.11140  0.93520  Biso   1.000  C
  H77      1.0000 0.90470  0.17300  0.93160  Biso   1.000  H
  C76      1.0000 0.89660  0.06760  0.00100  Biso   1.000  C
  H78      1.0000 0.90290  0.09350  0.05010  Biso   1.000  H
  C77      1.0000 0.87480  0.90380  0.03100  Biso   1.000  C
  H79      1.0000 0.87820  0.84740  0.00520  Biso   1.000  H
  H80      1.0000 0.92210  0.90500  0.08400  Biso   1.000  H
  C78      1.0000 0.78970  0.90840  0.04040  Biso   1.000  C
  H81      1.0000 0.78550  0.85740  0.07230  Biso   1.000  H
  H82      1.0000 0.78860  0.96260  0.06990  Biso   1.000  H
  C79      1.0000 0.07640  0.04470  0.75574  Biso   1.000  C
  H83      1.0000 0.07880  0.10720  0.75760  Biso   1.000  H
  C80      1.0000 0.15010  0.99720  0.76317  Biso   1.000  C
  H84      1.0000 0.20140  0.02690  0.76890  Biso   1.000  H
  C81      1.0000 0.14610  0.90440  0.76190  Biso   1.000  C
  H85      1.0000 0.19520  0.87090  0.76690  Biso   1.000  H
  C82      1.0000 0.06950  0.86080  0.75329  Biso   1.000  C
  C83      1.0000 0.99530  0.91210  0.74210  Biso   1.000  C
  C84      1.0000 0.90490  0.87350  0.72020  Biso   1.000  C
  C85      1.0000 0.06940  0.75910  0.75716  Biso   1.000  C
  Cd5      1.0000 0.88195  0.07585  0.75050  Biso   1.000  Cd
  N21      1.0000 0.88436  0.05028  0.87455  Biso   1.000  N
  N22      1.0000 0.76369  0.09834  0.63881  Biso   1.000  N
  N23      1.0000 0.00114  0.00348  0.74590  Biso   1.000  N
  N24      1.0000 0.88525  0.97942  0.98218  Biso   1.000  N
  N25      1.0000 0.65490  0.06908  0.52437  Biso   1.000  N
  O17      1.0000 0.08646  0.71860  0.70459  Biso   1.000  O
  O18      1.0000 0.06098  0.72018  0.81369  Biso   1.000  O
  O19      1.0000 0.84769  0.92155  0.72649  Biso   1.000  O
  O20      1.0000 0.89477  0.79537  0.69542  Biso   1.000  O
  C86      1.0000 0.21750  0.53360  0.08939  Biso   1.000  C
  H86      1.0000 0.22750  0.47220  0.09890  Biso   1.000  H
  C87      1.0000 0.22640  0.67630  0.10269  Biso   1.000  C
  H87      1.0000 0.24480  0.73330  0.12380  Biso   1.000  H
  C88      1.0000 0.15950  0.65990  0.03238  Biso   1.000  C
  H88      1.0000 0.12360  0.70210  0.99650  Biso   1.000  H
  C89      1.0000 0.09050  0.51860  0.95696  Biso   1.000  C
  H89      1.0000 0.08540  0.54570  0.90620  Biso   1.000  H
  H90      1.0000 0.11080  0.45730  0.95790  Biso   1.000  H
  C90      1.0000 0.00130  0.51710  0.96124  Biso   1.000  C
  H91      1.0000 0.96290  0.48000  0.91730  Biso   1.000  H
  H92      1.0000 0.97800  0.57770  0.95220  Biso   1.000  H
  C91      1.0000 0.37760  0.47170  0.40468  Biso   1.000  C
  H93      1.0000 0.36880  0.41770  0.37650  Biso   1.000  H
  C92      1.0000 0.39700  0.61140  0.43520  Biso   1.000  C
  H94      1.0000 0.40470  0.67300  0.43160  Biso   1.000  H
  C93      1.0000 0.39660  0.56760  0.50100  Biso   1.000  C
  H95      1.0000 0.40290  0.59350  0.55010  Biso   1.000  H
  C94      1.0000 0.37480  0.40380  0.53100  Biso   1.000  C
  H96      1.0000 0.37820  0.34740  0.50520  Biso   1.000  H
  H97      1.0000 0.42210  0.40500  0.58400  Biso   1.000  H
  C95      1.0000 0.28970  0.40840  0.54040  Biso   1.000  C
  H98      1.0000 0.28550  0.35740  0.57230  Biso   1.000  H
  H99      1.0000 0.28860  0.46260  0.56990  Biso   1.000  H
  C96      1.0000 0.57640  0.54470  0.25574  Biso   1.000  C
  H100     1.0000 0.57880  0.60720  0.25760  Biso   1.000  H
  C97      1.0000 0.65010  0.49720  0.26317  Biso   1.000  C
  H101     1.0000 0.70140  0.52690  0.26890  Biso   1.000  H
  C98      1.0000 0.64610  0.40440  0.26190  Biso   1.000  C
  H102     1.0000 0.69520  0.37090  0.26690  Biso   1.000  H
  C99      1.0000 0.56950  0.36080  0.25329  Biso   1.000  C
  C100     1.0000 0.49530  0.41210  0.24210  Biso   1.000  C
  C101     1.0000 0.40490  0.37350  0.22020  Biso   1.000  C
  C102     1.0000 0.56940  0.25910  0.25716  Biso   1.000  C
  Cd6      1.0000 0.38195  0.57585  0.25050  Biso   1.000  Cd
  N26      1.0000 0.38436  0.55028  0.37455  Biso   1.000  N
  N27      1.0000 0.26369  0.59834  0.13881  Biso   1.000  N
  N28      1.0000 0.50114  0.50348  0.24590  Biso   1.000  N
  N29      1.0000 0.38525  0.47942  0.48218  Biso   1.000  N
  N30      1.0000 0.15490  0.56908  0.02437  Biso   1.000  N
  O21      1.0000 0.58646  0.21860  0.20459  Biso   1.000  O
  O22      1.0000 0.56098  0.22018  0.31369  Biso   1.000  O
  O23      1.0000 0.34769  0.42155  0.22649  Biso   1.000  O
  O24      1.0000 0.39477  0.29537  0.19542  Biso   1.000  O
  C103     1.0000 0.78250  0.03360  0.41061  Biso   1.000  C
  H103     1.0000 0.77250  0.97220  0.40110  Biso   1.000  H
  C104     1.0000 0.77360  0.17630  0.39731  Biso   1.000  C
  H104     1.0000 0.75520  0.23330  0.37620  Biso   1.000  H
  C105     1.0000 0.84050  0.15990  0.46762  Biso   1.000  C
  H105     1.0000 0.87640  0.20210  0.50350  Biso   1.000  H
  C106     1.0000 0.90950  0.01860  0.54304  Biso   1.000  C
  H106     1.0000 0.91460  0.04570  0.59380  Biso   1.000  H
  H107     1.0000 0.88920  0.95730  0.54210  Biso   1.000  H
  C107     1.0000 0.99870  0.01710  0.53876  Biso   1.000  C
  H108     1.0000 0.03710  0.98000  0.58270  Biso   1.000  H
  H109     1.0000 0.02200  0.07770  0.54780  Biso   1.000  H
  C108     1.0000 0.62240  0.97170  0.09532  Biso   1.000  C
  H110     1.0000 0.63120  0.91770  0.12350  Biso   1.000  H
  C109     1.0000 0.60300  0.11140  0.06480  Biso   1.000  C
  H111     1.0000 0.59530  0.17300  0.06840  Biso   1.000  H
  C110     1.0000 0.60340  0.06760  0.99900  Biso   1.000  C
  H112     1.0000 0.59710  0.09350  0.94990  Biso   1.000  H
  C111     1.0000 0.62520  0.90380  0.96900  Biso   1.000  C
  H113     1.0000 0.62180  0.84740  0.99480  Biso   1.000  H
  H114     1.0000 0.57790  0.90500  0.91600  Biso   1.000  H
  C112     1.0000 0.71030  0.90840  0.95960  Biso   1.000  C
  H115     1.0000 0.71450  0.85740  0.92770  Biso   1.000  H
  H116     1.0000 0.71140  0.96260  0.93010  Biso   1.000  H
  C113     1.0000 0.42360  0.04470  0.24426  Biso   1.000  C
  H117     1.0000 0.42120  0.10720  0.24240  Biso   1.000  H
  C114     1.0000 0.34990  0.99720  0.23683  Biso   1.000  C
  H118     1.0000 0.29860  0.02690  0.23110  Biso   1.000  H
  C115     1.0000 0.35390  0.90440  0.23810  Biso   1.000  C
  H119     1.0000 0.30480  0.87090  0.23310  Biso   1.000  H
  C116     1.0000 0.43050  0.86080  0.24671  Biso   1.000  C
  C117     1.0000 0.50470  0.91210  0.25790  Biso   1.000  C
  C118     1.0000 0.59510  0.87350  0.27980  Biso   1.000  C
  C119     1.0000 0.43060  0.75910  0.24284  Biso   1.000  C
  Cd7      1.0000 0.61805  0.07585  0.24950  Biso   1.000  Cd
  N31      1.0000 0.61564  0.05028  0.12545  Biso   1.000  N
  N32      1.0000 0.73631  0.09834  0.36119  Biso   1.000  N
  N33      1.0000 0.49886  0.00348  0.25410  Biso   1.000  N
  N34      1.0000 0.61475  0.97942  0.01782  Biso   1.000  N
  N35      1.0000 0.84510  0.06908  0.47563  Biso   1.000  N
  O25      1.0000 0.41354  0.71860  0.29541  Biso   1.000  O
  O26      1.0000 0.43902  0.72018  0.18631  Biso   1.000  O
  O27      1.0000 0.65231  0.92155  0.27351  Biso   1.000  O
  O28      1.0000 0.60523  0.79537  0.30458  Biso   1.000  O
  C120     1.0000 0.28250  0.53360  0.91061  Biso   1.000  C
  H120     1.0000 0.27250  0.47220  0.90110  Biso   1.000  H
  C121     1.0000 0.27360  0.67630  0.89731  Biso   1.000  C
  H121     1.0000 0.25520  0.73330  0.87620  Biso   1.000  H
  C122     1.0000 0.34050  0.65990  0.96762  Biso   1.000  C
  H122     1.0000 0.37640  0.70210  0.00350  Biso   1.000  H
  C123     1.0000 0.40950  0.51860  0.04304  Biso   1.000  C
  H123     1.0000 0.41460  0.54570  0.09380  Biso   1.000  H
  H124     1.0000 0.38920  0.45730  0.04210  Biso   1.000  H
  C124     1.0000 0.49870  0.51710  0.03876  Biso   1.000  C
  H125     1.0000 0.53710  0.48000  0.08270  Biso   1.000  H
  H126     1.0000 0.52200  0.57770  0.04780  Biso   1.000  H
  C125     1.0000 0.12240  0.47170  0.59532  Biso   1.000  C
  H127     1.0000 0.13120  0.41770  0.62350  Biso   1.000  H
  C126     1.0000 0.10300  0.61140  0.56480  Biso   1.000  C
  H128     1.0000 0.09530  0.67300  0.56840  Biso   1.000  H
  C127     1.0000 0.10340  0.56760  0.49900  Biso   1.000  C
  H129     1.0000 0.09710  0.59350  0.44990  Biso   1.000  H
  C128     1.0000 0.12520  0.40380  0.46900  Biso   1.000  C
  H130     1.0000 0.12180  0.34740  0.49480  Biso   1.000  H
  H131     1.0000 0.07790  0.40500  0.41600  Biso   1.000  H
  C129     1.0000 0.21030  0.40840  0.45960  Biso   1.000  C
  H132     1.0000 0.21450  0.35740  0.42770  Biso   1.000  H
  H133     1.0000 0.21140  0.46260  0.43010  Biso   1.000  H
  C130     1.0000 0.92360  0.54470  0.74426  Biso   1.000  C
  H134     1.0000 0.92120  0.60720  0.74240  Biso   1.000  H
  C131     1.0000 0.84990  0.49720  0.73683  Biso   1.000  C
  H135     1.0000 0.79860  0.52690  0.73110  Biso   1.000  H
  C132     1.0000 0.85390  0.40440  0.73810  Biso   1.000  C
  H136     1.0000 0.80480  0.37090  0.73310  Biso   1.000  H
  C133     1.0000 0.93050  0.36080  0.74671  Biso   1.000  C
  C134     1.0000 0.00470  0.41210  0.75790  Biso   1.000  C
  C135     1.0000 0.09510  0.37350  0.77980  Biso   1.000  C
  C136     1.0000 0.93060  0.25910  0.74284  Biso   1.000  C
  Cd8      1.0000 0.11805  0.57585  0.74950  Biso   1.000  Cd
  N36      1.0000 0.11564  0.55028  0.62545  Biso   1.000  N
  N37      1.0000 0.23631  0.59834  0.86119  Biso   1.000  N
  N38      1.0000 0.99886  0.50348  0.75410  Biso   1.000  N
  N39      1.0000 0.11475  0.47942  0.51782  Biso   1.000  N
  N40      1.0000 0.34510  0.56908  0.97563  Biso   1.000  N
  O29      1.0000 0.91354  0.21860  0.79541  Biso   1.000  O
  O30      1.0000 0.93902  0.22018  0.68631  Biso   1.000  O
  O31      1.0000 0.15231  0.42155  0.77351  Biso   1.000  O
  O32      1.0000 0.10523  0.29537  0.80458  Biso   1.000  O
