data_image0
_cell_length_a       12.537
_cell_length_b       14.977
_cell_length_c       15.404
_cell_angle_alpha    90
_cell_angle_beta     90
_cell_angle_gamma    90

_symmetry_space_group_name_H-M    "P 1"
_symmetry_int_tables_number       1

loop_
  _symmetry_equiv_pos_as_xyz
  'x, y, z'

loop_
  _atom_site_label
  _atom_site_occupancy
  _atom_site_fract_x
  _atom_site_fract_y
  _atom_site_fract_z
  _atom_site_thermal_displace_type
  _atom_site_B_iso_or_equiv
  _atom_site_type_symbol
  Mg1      1.0000 0.99616  0.53021  0.94990  Biso   1.000  Mg
  Mg2      1.0000 0.79941  0.67543  0.83546  Biso   1.000  Mg
  C1       1.0000 0.90680  0.33610  0.71890  Biso   1.000  C
  H1       1.0000 0.95810  0.32260  0.76140  Biso   1.000  H
  C2       1.0000 0.81650  0.30010  0.58600  Biso   1.000  C
  H2       1.0000 0.80590  0.26120  0.53880  Biso   1.000  H
  C3       1.0000 0.89060  0.27820  0.64980  Biso   1.000  C
  O1       1.0000 0.94190  0.46190  0.85070  Biso   1.000  O
  O2       1.0000 0.80510  0.54390  0.80390  Biso   1.000  O
  C4       1.0000 0.84770  0.41350  0.72520  Biso   1.000  C
  C5       1.0000 0.86700  0.47880  0.79930  Biso   1.000  C
  C6       1.0000 0.75790  0.37860  0.59120  Biso   1.000  C
  C7       1.0000 0.77380  0.43510  0.66190  Biso   1.000  C
  H3       1.0000 0.73400  0.48820  0.66660  Biso   1.000  H
  C8       1.0000 0.13470  0.44460  0.04280  Biso   1.000  C
  O3       1.0000 0.10790  0.52050  0.06750  Biso   1.000  O
  C9       1.0000 0.95640  0.19400  0.64290  Biso   1.000  C
  O4       1.0000 0.09380  0.42220  0.97760  Biso   1.000  O
  O5       1.0000 0.03890  0.18990  0.68810  Biso   1.000  O
  O6       1.0000 0.92380  0.13490  0.59140  Biso   1.000  O
  C10      1.0000 0.67490  0.40310  0.52580  Biso   1.000  C
  O7       1.0000 0.65870  0.35250  0.46340  Biso   1.000  O
  O8       1.0000 0.62210  0.47340  0.53650  Biso   1.000  O
  C11      1.0000 0.19570  0.39920  0.08350  Biso   1.000  C
  H4       1.0000 0.24980  0.43680  0.10970  Biso   1.000  H
  H5       1.0000 0.22950  0.35640  0.04500  Biso   1.000  H
  H6       1.0000 0.15720  0.36760  0.12860  Biso   1.000  H
  Mg3      1.0000 0.50384  0.46979  0.44990  Biso   1.000  Mg
  Mg4      1.0000 0.70059  0.32457  0.33546  Biso   1.000  Mg
  C12      1.0000 0.59320  0.66390  0.21890  Biso   1.000  C
  H7       1.0000 0.54190  0.67740  0.26140  Biso   1.000  H
  C13      1.0000 0.68350  0.69990  0.08600  Biso   1.000  C
  H8       1.0000 0.69410  0.73880  0.03880  Biso   1.000  H
  C14      1.0000 0.60940  0.72180  0.14980  Biso   1.000  C
  O9       1.0000 0.55810  0.53810  0.35070  Biso   1.000  O
  O10      1.0000 0.69490  0.45610  0.30390  Biso   1.000  O
  C15      1.0000 0.65230  0.58650  0.22520  Biso   1.000  C
  C16      1.0000 0.63300  0.52120  0.29930  Biso   1.000  C
  C17      1.0000 0.74210  0.62140  0.09120  Biso   1.000  C
  C18      1.0000 0.72620  0.56490  0.16190  Biso   1.000  C
  H9       1.0000 0.76600  0.51180  0.16660  Biso   1.000  H
  C19      1.0000 0.36530  0.55540  0.54280  Biso   1.000  C
  O11      1.0000 0.39210  0.47950  0.56750  Biso   1.000  O
  C20      1.0000 0.54360  0.80600  0.14290  Biso   1.000  C
  O12      1.0000 0.40620  0.57780  0.47760  Biso   1.000  O
  O13      1.0000 0.46110  0.81010  0.18810  Biso   1.000  O
  O14      1.0000 0.57620  0.86510  0.09140  Biso   1.000  O
  C21      1.0000 0.82510  0.59690  0.02580  Biso   1.000  C
  O15      1.0000 0.84130  0.64750  0.96340  Biso   1.000  O
  O16      1.0000 0.87790  0.52660  0.03650  Biso   1.000  O
  C22      1.0000 0.30430  0.60080  0.58350  Biso   1.000  C
  H10      1.0000 0.25020  0.56320  0.60970  Biso   1.000  H
  H11      1.0000 0.27050  0.64360  0.54500  Biso   1.000  H
  H12      1.0000 0.34280  0.63240  0.62860  Biso   1.000  H
  Mg5      1.0000 0.00384  0.03021  0.55010  Biso   1.000  Mg
  Mg6      1.0000 0.20059  0.17543  0.66454  Biso   1.000  Mg
  C23      1.0000 0.09320  0.83610  0.78110  Biso   1.000  C
  H13      1.0000 0.04190  0.82260  0.73860  Biso   1.000  H
  C24      1.0000 0.18350  0.80010  0.91400  Biso   1.000  C
  H14      1.0000 0.19410  0.76120  0.96120  Biso   1.000  H
  C25      1.0000 0.10940  0.77820  0.85020  Biso   1.000  C
  O17      1.0000 0.05810  0.96190  0.64930  Biso   1.000  O
  O18      1.0000 0.19490  0.04390  0.69610  Biso   1.000  O
  C26      1.0000 0.15230  0.91350  0.77480  Biso   1.000  C
  C27      1.0000 0.13300  0.97880  0.70070  Biso   1.000  C
  C28      1.0000 0.24210  0.87860  0.90880  Biso   1.000  C
  C29      1.0000 0.22620  0.93510  0.83810  Biso   1.000  C
  H15      1.0000 0.26600  0.98820  0.83340  Biso   1.000  H
  C30      1.0000 0.86530  0.94460  0.45720  Biso   1.000  C
  O19      1.0000 0.89210  0.02050  0.43250  Biso   1.000  O
  C31      1.0000 0.04360  0.69400  0.85710  Biso   1.000  C
  O20      1.0000 0.90620  0.92220  0.52240  Biso   1.000  O
  O21      1.0000 0.96110  0.68990  0.81190  Biso   1.000  O
  O22      1.0000 0.07620  0.63490  0.90860  Biso   1.000  O
  C32      1.0000 0.32510  0.90310  0.97420  Biso   1.000  C
  O23      1.0000 0.34130  0.85250  0.03660  Biso   1.000  O
  O24      1.0000 0.37790  0.97340  0.96350  Biso   1.000  O
  C33      1.0000 0.80430  0.89920  0.41650  Biso   1.000  C
  H16      1.0000 0.75020  0.93680  0.39030  Biso   1.000  H
  H17      1.0000 0.77050  0.85640  0.45500  Biso   1.000  H
  H18      1.0000 0.84280  0.86760  0.37140  Biso   1.000  H
  Mg7      1.0000 0.49616  0.96979  0.05010  Biso   1.000  Mg
  Mg8      1.0000 0.29941  0.82457  0.16454  Biso   1.000  Mg
  C34      1.0000 0.40680  0.16390  0.28110  Biso   1.000  C
  H19      1.0000 0.45810  0.17740  0.23860  Biso   1.000  H
  C35      1.0000 0.31650  0.19990  0.41400  Biso   1.000  C
  H20      1.0000 0.30590  0.23880  0.46120  Biso   1.000  H
  C36      1.0000 0.39060  0.22180  0.35020  Biso   1.000  C
  O25      1.0000 0.44190  0.03810  0.14930  Biso   1.000  O
  O26      1.0000 0.30510  0.95610  0.19610  Biso   1.000  O
  C37      1.0000 0.34770  0.08650  0.27480  Biso   1.000  C
  C38      1.0000 0.36700  0.02120  0.20070  Biso   1.000  C
  C39      1.0000 0.25790  0.12140  0.40880  Biso   1.000  C
  C40      1.0000 0.27380  0.06490  0.33810  Biso   1.000  C
  H21      1.0000 0.23400  0.01180  0.33340  Biso   1.000  H
  C41      1.0000 0.63470  0.05540  0.95720  Biso   1.000  C
  O27      1.0000 0.60790  0.97950  0.93250  Biso   1.000  O
  C42      1.0000 0.45640  0.30600  0.35710  Biso   1.000  C
  O28      1.0000 0.59380  0.07780  0.02240  Biso   1.000  O
  O29      1.0000 0.53890  0.31010  0.31190  Biso   1.000  O
  O30      1.0000 0.42380  0.36510  0.40860  Biso   1.000  O
  C43      1.0000 0.17490  0.09690  0.47420  Biso   1.000  C
  O31      1.0000 0.15870  0.14750  0.53660  Biso   1.000  O
  O32      1.0000 0.12210  0.02660  0.46350  Biso   1.000  O
  C44      1.0000 0.69570  0.10080  0.91650  Biso   1.000  C
  H22      1.0000 0.74980  0.06320  0.89030  Biso   1.000  H
  H23      1.0000 0.72950  0.14360  0.95500  Biso   1.000  H
  H24      1.0000 0.65720  0.13240  0.87140  Biso   1.000  H
