data_PEYPIU_clean
_audit_creation_date              2014-07-02
_audit_creation_method            'Materials Studio'
_symmetry_space_group_name_H-M    'P1'
_symmetry_Int_Tables_number       1
_symmetry_cell_setting            triclinic
loop_
_symmetry_equiv_pos_as_xyz
  x,y,z
_cell_length_a                    10.8947
_cell_length_b                    10.9708
_cell_length_c                    13.9891
_cell_angle_alpha                 81.5400
_cell_angle_beta                  89.0160
_cell_angle_gamma                 87.6580
loop_
_atom_site_label
_atom_site_type_symbol
_atom_site_fract_x
_atom_site_fract_y
_atom_site_fract_z
_atom_site_U_iso_or_equiv
_atom_site_adp_type
_atom_site_occupancy
Zn1    Zn    0.72700   0.66383   0.60703   0.01267  Uiso   1.00
Zn2    Zn    0.72296   0.62223   0.81924   0.01267  Uiso   1.00
H1     H     0.54830   0.64810   0.45150   0.01267  Uiso   1.00
H2     H     0.54220   0.64080   0.29040   0.01267  Uiso   1.00
H3     H     0.54430   0.63530   0.98110   0.01267  Uiso   1.00
H4     H     0.90660   0.62630   0.13740   0.01267  Uiso   1.00
H5     H     0.90180   0.68410   0.43890   0.01267  Uiso   1.00
H6     H     0.78240   0.27730   0.58330   0.01267  Uiso   1.00
H7     H     0.53970   0.65060   0.14000   0.01267  Uiso   1.00
H8     H     0.12520   0.64460   0.57180   0.01267  Uiso   1.00
H9     H     0.90490   0.68100   0.27680   0.01267  Uiso   1.00
H10    H     0.78180   0.07270   0.57420   0.01267  Uiso   1.00
H11    H     0.89930   0.60880   0.97830   0.01267  Uiso   1.00
H12    H     0.33130   0.65150   0.57250   0.01267  Uiso   1.00
H13    H     0.20890   0.79070   0.94570   0.01267  Uiso   1.00
H14    H     0.21600   0.65740   0.00590   0.01267  Uiso   1.00
H15    H     0.63060   0.07300   0.00030   0.01267  Uiso   1.00
H16    H     0.51440   0.09780   0.93370   0.01267  Uiso   1.00
C1     C     0.72620   0.40690   0.72340   0.01267  Uiso   1.00
C2     C     0.72590   0.27150   0.72080   0.01267  Uiso   1.00
C3     C     0.95790   0.64190   0.71290   0.01267  Uiso   1.00
C4     C     0.68940   0.06040   0.79170   0.01267  Uiso   1.00
C5     C     0.72360   0.64500   0.15910   0.01267  Uiso   1.00
C6     C     0.15620   0.66400   0.79680   0.01267  Uiso   1.00
C7     C     0.62120   0.65440   0.41590   0.01267  Uiso   1.00
C8     C     0.61720   0.64900   0.31910   0.01267  Uiso   1.00
C9     C     0.72410   0.65570   0.26310   0.01267  Uiso   1.00
C10    C     0.09410   0.65320   0.71390   0.01267  Uiso   1.00
C11    C     0.61840   0.63410   0.01330   0.01267  Uiso   1.00
C12    C     0.83100   0.62950   0.10710   0.01267  Uiso   1.00
C13    C     0.82810   0.67590   0.40830   0.01267  Uiso   1.00
C14    C     0.75900   0.22360   0.63760   0.01267  Uiso   1.00
C15    C     0.61490   0.64420   0.10830   0.01267  Uiso   1.00
C16    C     0.69000   0.18630   0.79830   0.01267  Uiso   1.00
C17    C     0.28460   0.66850   0.79620   0.01267  Uiso   1.00
C18    C     0.16450   0.64980   0.62950   0.01267  Uiso   1.00
C19    C     0.48970   0.65490   0.71360   0.01267  Uiso   1.00
C20    C     0.35560   0.66140   0.71490   0.01267  Uiso   1.00
C21    C     0.72520   0.01230   0.70870   0.01267  Uiso   1.00
C22    C     0.83090   0.67230   0.31090   0.01267  Uiso   1.00
C23    C     0.75850   0.09920   0.63230   0.01267  Uiso   1.00
C24    C     0.82580   0.61910   0.01140   0.01267  Uiso   1.00
C25    C     0.28820   0.65380   0.63020   0.01267  Uiso   1.00
C26    C     0.72520   0.87790   0.70260   0.01267  Uiso   1.00
C27    C     0.21490   0.70330   0.94110   0.01267  Uiso   1.00
C28    C     0.60350   0.09230   0.93390   0.01267  Uiso   1.00
N1     N     0.72520   0.66830   0.46170   0.01267  Uiso   1.00
N2     N     0.72230   0.62270   0.96280   0.01267  Uiso   1.00
O1     O     0.73260   0.47550   0.64420   0.01267  Uiso   1.00
O2     O     0.90810   0.66050   0.63180   0.01267  Uiso   1.00
O3     O     0.90400   0.61500   0.79260   0.01267  Uiso   1.00
O4     O     0.54360   0.66480   0.63320   0.01267  Uiso   1.00
O5     O     0.54170   0.64020   0.79230   0.01267  Uiso   1.00
O6     O     0.72880   0.80790   0.78000   0.01267  Uiso   1.00
O7     O     0.72330   0.84780   0.62100   0.01267  Uiso   1.00
O8     O     0.71740   0.44140   0.80460   0.01267  Uiso   1.00
O9     O     0.11360   0.66880   0.88770   0.01267  Uiso   1.00
O10    O     0.32410   0.67400   0.88800   0.01267  Uiso   1.00
O11    O     0.64850   0.99870   0.87850   0.01267  Uiso   1.00
O12    O     0.65270   0.20680   0.88880   0.01267  Uiso   1.00
Zn3    Zn    0.27300   0.33617   0.39297   0.01267  Uiso   1.00
Zn4    Zn    0.27704   0.37777   0.18076   0.01267  Uiso   1.00
H17    H     0.45170   0.35190   0.54850   0.01267  Uiso   1.00
H18    H     0.45780   0.35920   0.70960   0.01267  Uiso   1.00
H19    H     0.45570   0.36470   0.01890   0.01267  Uiso   1.00
H20    H     0.09340   0.37370   0.86260   0.01267  Uiso   1.00
H21    H     0.09820   0.31590   0.56110   0.01267  Uiso   1.00
H22    H     0.21760   0.72270   0.41670   0.01267  Uiso   1.00
H23    H     0.46030   0.34940   0.86000   0.01267  Uiso   1.00
H24    H     0.87480   0.35540   0.42820   0.01267  Uiso   1.00
H25    H     0.09510   0.31900   0.72320   0.01267  Uiso   1.00
H26    H     0.21820   0.92730   0.42580   0.01267  Uiso   1.00
H27    H     0.10070   0.39120   0.02170   0.01267  Uiso   1.00
H28    H     0.66870   0.34850   0.42750   0.01267  Uiso   1.00
H29    H     0.79110   0.20930   0.05430   0.01267  Uiso   1.00
H30    H     0.78400   0.34260   0.99410   0.01267  Uiso   1.00
H31    H     0.36940   0.92700   0.99970   0.01267  Uiso   1.00
H32    H     0.48560   0.90220   0.06630   0.01267  Uiso   1.00
C29    C     0.27380   0.59310   0.27660   0.01267  Uiso   1.00
C30    C     0.27410   0.72850   0.27920   0.01267  Uiso   1.00
C31    C     0.04210   0.35810   0.28710   0.01267  Uiso   1.00
C32    C     0.31060   0.93960   0.20830   0.01267  Uiso   1.00
C33    C     0.27640   0.35500   0.84090   0.01267  Uiso   1.00
C34    C     0.84380   0.33600   0.20320   0.01267  Uiso   1.00
C35    C     0.37880   0.34560   0.58410   0.01267  Uiso   1.00
C36    C     0.38280   0.35100   0.68090   0.01267  Uiso   1.00
C37    C     0.27590   0.34430   0.73690   0.01267  Uiso   1.00
C38    C     0.90590   0.34680   0.28610   0.01267  Uiso   1.00
C39    C     0.38160   0.36590   0.98670   0.01267  Uiso   1.00
C40    C     0.16900   0.37050   0.89290   0.01267  Uiso   1.00
C41    C     0.17190   0.32410   0.59170   0.01267  Uiso   1.00
C42    C     0.24100   0.77640   0.36240   0.01267  Uiso   1.00
C43    C     0.38510   0.35580   0.89170   0.01267  Uiso   1.00
C44    C     0.31000   0.81370   0.20170   0.01267  Uiso   1.00
C45    C     0.71540   0.33150   0.20380   0.01267  Uiso   1.00
C46    C     0.83550   0.35020   0.37050   0.01267  Uiso   1.00
C47    C     0.51030   0.34510   0.28640   0.01267  Uiso   1.00
C48    C     0.64440   0.33860   0.28510   0.01267  Uiso   1.00
C49    C     0.27480   0.98770   0.29130   0.01267  Uiso   1.00
C50    C     0.16910   0.32770   0.68910   0.01267  Uiso   1.00
C51    C     0.24150   0.90080   0.36770   0.01267  Uiso   1.00
C52    C     0.17420   0.38090   0.98860   0.01267  Uiso   1.00
C53    C     0.71180   0.34620   0.36980   0.01267  Uiso   1.00
C54    C     0.27480   0.12210   0.29740   0.01267  Uiso   1.00
C55    C     0.78510   0.29670   0.05890   0.01267  Uiso   1.00
C56    C     0.39650   0.90770   0.06610   0.01267  Uiso   1.00
N3     N     0.27480   0.33170   0.53830   0.01267  Uiso   1.00
N4     N     0.27770   0.37730   0.03720   0.01267  Uiso   1.00
O13    O     0.26740   0.52450   0.35580   0.01267  Uiso   1.00
O14    O     0.09190   0.33950   0.36820   0.01267  Uiso   1.00
O15    O     0.09600   0.38500   0.20740   0.01267  Uiso   1.00
O16    O     0.45640   0.33520   0.36680   0.01267  Uiso   1.00
O17    O     0.45830   0.35980   0.20770   0.01267  Uiso   1.00
O18    O     0.27120   0.19210   0.22000   0.01267  Uiso   1.00
O19    O     0.27670   0.15220   0.37900   0.01267  Uiso   1.00
O20    O     0.28260   0.55860   0.19540   0.01267  Uiso   1.00
O21    O     0.88640   0.33120   0.11230   0.01267  Uiso   1.00
O22    O     0.67590   0.32600   0.11200   0.01267  Uiso   1.00
O23    O     0.35150   0.00130   0.12150   0.01267  Uiso   1.00
O24    O     0.34730   0.79320   0.11120   0.01267  Uiso   1.00
