data_image0
_cell_length_a       28.764
_cell_length_b       28.764
_cell_length_c       12.563
_cell_angle_alpha    90
_cell_angle_beta     90
_cell_angle_gamma    120

_symmetry_space_group_name_H-M    "P 1"
_symmetry_int_tables_number       1

loop_
  _symmetry_equiv_pos_as_xyz
  'x, y, z'

loop_
  _atom_site_label
  _atom_site_occupancy
  _atom_site_fract_x
  _atom_site_fract_y
  _atom_site_fract_z
  _atom_site_thermal_displace_type
  _atom_site_B_iso_or_equiv
  _atom_site_type_symbol
  C1       1.0000 0.42150  0.02210  0.88020  Biso   1.000  C
  C2       1.0000 0.47270  0.02170  0.86580  Biso   1.000  C
  C3       1.0000 0.51830  0.06000  0.91810  Biso   1.000  C
  H1       1.0000 0.51740  0.08690  0.95910  Biso   1.000  H
  C4       1.0000 0.56520  0.05770  0.90870  Biso   1.000  C
  H2       1.0000 0.59660  0.08420  0.94190  Biso   1.000  H
  C5       1.0000 0.56680  0.01710  0.85090  Biso   1.000  C
  C6       1.0000 0.52170  0.97930  0.79790  Biso   1.000  C
  H3       1.0000 0.52300  0.95330  0.75490  Biso   1.000  H
  C7       1.0000 0.47350  0.98050  0.80920  Biso   1.000  C
  H4       1.0000 0.44180  0.95320  0.77840  Biso   1.000  H
  C8       1.0000 0.61830  0.01580  0.84060  Biso   1.000  C
  C9       1.0000 0.61860  0.96830  0.84140  Biso   1.000  C
  H5       1.0000 0.58580  0.93580  0.84750  Biso   1.000  H
  C10      1.0000 0.70270  0.90860  0.76990  Biso   1.000  C
  H6       1.0000 0.72770  0.93730  0.72770  Biso   1.000  H
  C11      1.0000 0.70220  0.86070  0.76800  Biso   1.000  C
  H7       1.0000 0.72560  0.85590  0.72320  Biso   1.000  H
  O1       1.0000 0.42093  0.05521  0.94630  Biso   1.000  O
  O2       1.0000 0.37871  0.98678  0.83300  Biso   1.000  O
  O3       1.0000 0.68300  0.75396  0.75020  Biso   1.000  O
  C12      1.0000 0.08817  0.35543  0.21353  Biso   1.000  C
  C13      1.0000 0.13937  0.35503  0.19913  Biso   1.000  C
  C14      1.0000 0.18497  0.39333  0.25143  Biso   1.000  C
  H8       1.0000 0.18407  0.42023  0.29243  Biso   1.000  H
  C15      1.0000 0.23187  0.39103  0.24203  Biso   1.000  C
  H9       1.0000 0.26327  0.41753  0.27523  Biso   1.000  H
  C16      1.0000 0.23347  0.35043  0.18423  Biso   1.000  C
  C17      1.0000 0.18837  0.31263  0.13123  Biso   1.000  C
  H10      1.0000 0.18967  0.28663  0.08823  Biso   1.000  H
  C18      1.0000 0.14017  0.31383  0.14253  Biso   1.000  C
  H11      1.0000 0.10847  0.28653  0.11173  Biso   1.000  H
  C19      1.0000 0.28497  0.34913  0.17393  Biso   1.000  C
  C20      1.0000 0.28527  0.30163  0.17473  Biso   1.000  C
  H12      1.0000 0.25247  0.26913  0.18083  Biso   1.000  H
  C21      1.0000 0.36937  0.24193  0.10323  Biso   1.000  C
  H13      1.0000 0.39437  0.27063  0.06103  Biso   1.000  H
  C22      1.0000 0.36887  0.19403  0.10133  Biso   1.000  C
  H14      1.0000 0.39227  0.18923  0.05653  Biso   1.000  H
  O4       1.0000 0.08760  0.38854  0.27963  Biso   1.000  O
  O5       1.0000 0.04538  0.32011  0.16633  Biso   1.000  O
  O6       1.0000 0.34967  0.08729  0.08353  Biso   1.000  O
  C23      1.0000 0.75483  0.68877  0.54687  Biso   1.000  C
  C24      1.0000 0.80603  0.68837  0.53247  Biso   1.000  C
  C25      1.0000 0.85163  0.72667  0.58477  Biso   1.000  C
  H15      1.0000 0.85073  0.75357  0.62577  Biso   1.000  H
  C26      1.0000 0.89853  0.72437  0.57537  Biso   1.000  C
  H16      1.0000 0.92993  0.75087  0.60857  Biso   1.000  H
  C27      1.0000 0.90013  0.68377  0.51757  Biso   1.000  C
  C28      1.0000 0.85503  0.64597  0.46457  Biso   1.000  C
  H17      1.0000 0.85633  0.61997  0.42157  Biso   1.000  H
  C29      1.0000 0.80683  0.64717  0.47587  Biso   1.000  C
  H18      1.0000 0.77513  0.61987  0.44507  Biso   1.000  H
  C30      1.0000 0.95163  0.68247  0.50727  Biso   1.000  C
  C31      1.0000 0.95193  0.63497  0.50807  Biso   1.000  C
  H19      1.0000 0.91913  0.60247  0.51417  Biso   1.000  H
  C32      1.0000 0.03603  0.57527  0.43657  Biso   1.000  C
  H20      1.0000 0.06103  0.60397  0.39437  Biso   1.000  H
  C33      1.0000 0.03553  0.52737  0.43467  Biso   1.000  C
  H21      1.0000 0.05893  0.52257  0.38987  Biso   1.000  H
  O7       1.0000 0.75426  0.72188  0.61297  Biso   1.000  O
  O8       1.0000 0.71204  0.65345  0.49967  Biso   1.000  O
  O9       1.0000 0.01633  0.42063  0.41687  Biso   1.000  O
  C34      1.0000 0.97790  0.39940  0.88020  Biso   1.000  C
  C35      1.0000 0.97830  0.45100  0.86580  Biso   1.000  C
  C36      1.0000 0.94000  0.45830  0.91810  Biso   1.000  C
  H22      1.0000 0.91310  0.43050  0.95910  Biso   1.000  H
  C37      1.0000 0.94230  0.50750  0.90870  Biso   1.000  C
  H23      1.0000 0.91580  0.51240  0.94190  Biso   1.000  H
  C38      1.0000 0.98290  0.54970  0.85090  Biso   1.000  C
  C39      1.0000 0.02070  0.54240  0.79790  Biso   1.000  C
  H24      1.0000 0.04670  0.56970  0.75490  Biso   1.000  H
  C40      1.0000 0.01950  0.49300  0.80920  Biso   1.000  C
  H25      1.0000 0.04680  0.48860  0.77840  Biso   1.000  H
  C41      1.0000 0.98420  0.60250  0.84060  Biso   1.000  C
  C42      1.0000 0.03170  0.65030  0.84140  Biso   1.000  C
  H26      1.0000 0.06420  0.65000  0.84750  Biso   1.000  H
  C43      1.0000 0.09140  0.79410  0.76990  Biso   1.000  C
  H27      1.0000 0.06270  0.79040  0.72770  Biso   1.000  H
  C44      1.0000 0.13930  0.84150  0.76800  Biso   1.000  C
  H28      1.0000 0.14410  0.86970  0.72320  Biso   1.000  H
  O10      1.0000 0.94479  0.36572  0.94630  Biso   1.000  O
  O11      1.0000 0.01322  0.39193  0.83300  Biso   1.000  O
  O12      1.0000 0.24604  0.92904  0.75020  Biso   1.000  O
  C45      1.0000 0.64457  0.73273  0.21353  Biso   1.000  C
  C46      1.0000 0.64497  0.78433  0.19913  Biso   1.000  C
  C47      1.0000 0.60667  0.79163  0.25143  Biso   1.000  C
  H29      1.0000 0.57977  0.76383  0.29243  Biso   1.000  H
  C48      1.0000 0.60897  0.84083  0.24203  Biso   1.000  C
  H30      1.0000 0.58247  0.84573  0.27523  Biso   1.000  H
  C49      1.0000 0.64957  0.88303  0.18423  Biso   1.000  C
  C50      1.0000 0.68737  0.87573  0.13123  Biso   1.000  C
  H31      1.0000 0.71337  0.90303  0.08823  Biso   1.000  H
  C51      1.0000 0.68617  0.82633  0.14253  Biso   1.000  C
  H32      1.0000 0.71347  0.82193  0.11173  Biso   1.000  H
  C52      1.0000 0.65087  0.93583  0.17393  Biso   1.000  C
  C53      1.0000 0.69837  0.98363  0.17473  Biso   1.000  C
  H33      1.0000 0.73087  0.98333  0.18083  Biso   1.000  H
  C54      1.0000 0.75807  0.12743  0.10323  Biso   1.000  C
  H34      1.0000 0.72937  0.12373  0.06103  Biso   1.000  H
  C55      1.0000 0.80597  0.17483  0.10133  Biso   1.000  C
  H35      1.0000 0.81077  0.20303  0.05653  Biso   1.000  H
  O13      1.0000 0.61146  0.69905  0.27963  Biso   1.000  O
  O14      1.0000 0.67989  0.72526  0.16633  Biso   1.000  O
  O15      1.0000 0.91271  0.26237  0.08353  Biso   1.000  O
  C56      1.0000 0.31123  0.06607  0.54687  Biso   1.000  C
  C57      1.0000 0.31163  0.11767  0.53247  Biso   1.000  C
  C58      1.0000 0.27333  0.12497  0.58477  Biso   1.000  C
  H36      1.0000 0.24643  0.09717  0.62577  Biso   1.000  H
  C59      1.0000 0.27563  0.17417  0.57537  Biso   1.000  C
  H37      1.0000 0.24913  0.17907  0.60857  Biso   1.000  H
  C60      1.0000 0.31623  0.21637  0.51757  Biso   1.000  C
  C61      1.0000 0.35403  0.20907  0.46457  Biso   1.000  C
  H38      1.0000 0.38003  0.23637  0.42157  Biso   1.000  H
  C62      1.0000 0.35283  0.15967  0.47587  Biso   1.000  C
  H39      1.0000 0.38013  0.15527  0.44507  Biso   1.000  H
  C63      1.0000 0.31753  0.26917  0.50727  Biso   1.000  C
  C64      1.0000 0.36503  0.31697  0.50807  Biso   1.000  C
  H40      1.0000 0.39753  0.31667  0.51417  Biso   1.000  H
  C65      1.0000 0.42473  0.46077  0.43657  Biso   1.000  C
  H41      1.0000 0.39603  0.45707  0.39437  Biso   1.000  H
  C66      1.0000 0.47263  0.50817  0.43467  Biso   1.000  C
  H42      1.0000 0.47743  0.53637  0.38987  Biso   1.000  H
  O16      1.0000 0.27812  0.03239  0.61297  Biso   1.000  O
  O17      1.0000 0.34655  0.05860  0.49967  Biso   1.000  O
  O18      1.0000 0.57937  0.59571  0.41687  Biso   1.000  O
  C67      1.0000 0.60060  0.57850  0.88020  Biso   1.000  C
  C68      1.0000 0.54900  0.52730  0.86580  Biso   1.000  C
  C69      1.0000 0.54170  0.48170  0.91810  Biso   1.000  C
  H43      1.0000 0.56950  0.48260  0.95910  Biso   1.000  H
  C70      1.0000 0.49250  0.43480  0.90870  Biso   1.000  C
  H44      1.0000 0.48760  0.40340  0.94190  Biso   1.000  H
  C71      1.0000 0.45030  0.43320  0.85090  Biso   1.000  C
  C72      1.0000 0.45760  0.47830  0.79790  Biso   1.000  C
  H45      1.0000 0.43030  0.47700  0.75490  Biso   1.000  H
  C73      1.0000 0.50700  0.52650  0.80920  Biso   1.000  C
  H46      1.0000 0.51140  0.55820  0.77840  Biso   1.000  H
  C74      1.0000 0.39750  0.38170  0.84060  Biso   1.000  C
  C75      1.0000 0.34970  0.38140  0.84140  Biso   1.000  C
  H47      1.0000 0.35000  0.41420  0.84750  Biso   1.000  H
  C76      1.0000 0.20590  0.29730  0.76990  Biso   1.000  C
  H48      1.0000 0.20960  0.27230  0.72770  Biso   1.000  H
  C77      1.0000 0.15850  0.29780  0.76800  Biso   1.000  C
  H49      1.0000 0.13030  0.27440  0.72320  Biso   1.000  H
  O19      1.0000 0.63428  0.57907  0.94630  Biso   1.000  O
  O20      1.0000 0.60807  0.62129  0.83300  Biso   1.000  O
  O21      1.0000 0.07096  0.31700  0.75020  Biso   1.000  O
  C78      1.0000 0.26727  0.91183  0.21353  Biso   1.000  C
  C79      1.0000 0.21567  0.86063  0.19913  Biso   1.000  C
  C80      1.0000 0.20837  0.81503  0.25143  Biso   1.000  C
  H50      1.0000 0.23617  0.81593  0.29243  Biso   1.000  H
  C81      1.0000 0.15917  0.76813  0.24203  Biso   1.000  C
  H51      1.0000 0.15427  0.73673  0.27523  Biso   1.000  H
  C82      1.0000 0.11697  0.76653  0.18423  Biso   1.000  C
  C83      1.0000 0.12427  0.81163  0.13123  Biso   1.000  C
  H52      1.0000 0.09697  0.81033  0.08823  Biso   1.000  H
  C84      1.0000 0.17367  0.85983  0.14253  Biso   1.000  C
  H53      1.0000 0.17807  0.89153  0.11173  Biso   1.000  H
  C85      1.0000 0.06417  0.71503  0.17393  Biso   1.000  C
  C86      1.0000 0.01637  0.71473  0.17473  Biso   1.000  C
  H54      1.0000 0.01667  0.74753  0.18083  Biso   1.000  H
  C87      1.0000 0.87257  0.63063  0.10323  Biso   1.000  C
  H55      1.0000 0.87627  0.60563  0.06103  Biso   1.000  H
  C88      1.0000 0.82517  0.63113  0.10133  Biso   1.000  C
  H56      1.0000 0.79697  0.60773  0.05653  Biso   1.000  H
  O22      1.0000 0.30095  0.91240  0.27963  Biso   1.000  O
  O23      1.0000 0.27474  0.95462  0.16633  Biso   1.000  O
  O24      1.0000 0.73763  0.65033  0.08353  Biso   1.000  O
  C89      1.0000 0.93393  0.24517  0.54687  Biso   1.000  C
  C90      1.0000 0.88233  0.19397  0.53247  Biso   1.000  C
  C91      1.0000 0.87503  0.14837  0.58477  Biso   1.000  C
  H57      1.0000 0.90283  0.14927  0.62577  Biso   1.000  H
  C92      1.0000 0.82583  0.10147  0.57537  Biso   1.000  C
  H58      1.0000 0.82093  0.07007  0.60857  Biso   1.000  H
  C93      1.0000 0.78363  0.09987  0.51757  Biso   1.000  C
  C94      1.0000 0.79093  0.14497  0.46457  Biso   1.000  C
  H59      1.0000 0.76363  0.14367  0.42157  Biso   1.000  H
  C95      1.0000 0.84033  0.19317  0.47587  Biso   1.000  C
  H60      1.0000 0.84473  0.22487  0.44507  Biso   1.000  H
  C96      1.0000 0.73083  0.04837  0.50727  Biso   1.000  C
  C97      1.0000 0.68303  0.04807  0.50807  Biso   1.000  C
  H61      1.0000 0.68333  0.08087  0.51417  Biso   1.000  H
  C98      1.0000 0.53923  0.96397  0.43657  Biso   1.000  C
  H62      1.0000 0.54293  0.93897  0.39437  Biso   1.000  H
  C99      1.0000 0.49183  0.96447  0.43467  Biso   1.000  C
  H63      1.0000 0.46363  0.94107  0.38987  Biso   1.000  H
  O25      1.0000 0.96761  0.24574  0.61297  Biso   1.000  O
  O26      1.0000 0.94140  0.28796  0.49967  Biso   1.000  O
  O27      1.0000 0.40429  0.98367  0.41687  Biso   1.000  O
  C100     1.0000 0.02210  0.42150  0.11980  Biso   1.000  C
  C101     1.0000 0.02170  0.47270  0.13420  Biso   1.000  C
  C102     1.0000 0.06000  0.51830  0.08190  Biso   1.000  C
  H64      1.0000 0.08690  0.51740  0.04090  Biso   1.000  H
  C103     1.0000 0.05770  0.56520  0.09130  Biso   1.000  C
  H65      1.0000 0.08420  0.59660  0.05810  Biso   1.000  H
  C104     1.0000 0.01710  0.56680  0.14910  Biso   1.000  C
  C105     1.0000 0.97930  0.52170  0.20210  Biso   1.000  C
  H66      1.0000 0.95330  0.52300  0.24510  Biso   1.000  H
  C106     1.0000 0.98050  0.47350  0.19080  Biso   1.000  C
  H67      1.0000 0.95320  0.44180  0.22160  Biso   1.000  H
  C107     1.0000 0.01580  0.61830  0.15940  Biso   1.000  C
  C108     1.0000 0.96830  0.61860  0.15860  Biso   1.000  C
  H68      1.0000 0.93580  0.58580  0.15250  Biso   1.000  H
  C109     1.0000 0.90860  0.70270  0.23010  Biso   1.000  C
  H69      1.0000 0.93730  0.72770  0.27230  Biso   1.000  H
  C110     1.0000 0.86070  0.70220  0.23200  Biso   1.000  C
  H70      1.0000 0.85590  0.72560  0.27680  Biso   1.000  H
  O28      1.0000 0.05521  0.42093  0.05370  Biso   1.000  O
  O29      1.0000 0.98678  0.37871  0.16700  Biso   1.000  O
  O30      1.0000 0.75396  0.68300  0.24980  Biso   1.000  O
  C111     1.0000 0.68877  0.75483  0.45313  Biso   1.000  C
  C112     1.0000 0.68837  0.80603  0.46753  Biso   1.000  C
  C113     1.0000 0.72667  0.85163  0.41523  Biso   1.000  C
  H71      1.0000 0.75357  0.85073  0.37423  Biso   1.000  H
  C114     1.0000 0.72437  0.89853  0.42463  Biso   1.000  C
  H72      1.0000 0.75087  0.92993  0.39143  Biso   1.000  H
  C115     1.0000 0.68377  0.90013  0.48243  Biso   1.000  C
  C116     1.0000 0.64597  0.85503  0.53543  Biso   1.000  C
  H73      1.0000 0.61997  0.85633  0.57843  Biso   1.000  H
  C117     1.0000 0.64717  0.80683  0.52413  Biso   1.000  C
  H74      1.0000 0.61987  0.77513  0.55493  Biso   1.000  H
  C118     1.0000 0.68247  0.95163  0.49273  Biso   1.000  C
  C119     1.0000 0.63497  0.95193  0.49193  Biso   1.000  C
  H75      1.0000 0.60247  0.91913  0.48583  Biso   1.000  H
  C120     1.0000 0.57527  0.03603  0.56343  Biso   1.000  C
  H76      1.0000 0.60397  0.06103  0.60563  Biso   1.000  H
  C121     1.0000 0.52737  0.03553  0.56533  Biso   1.000  C
  H77      1.0000 0.52257  0.05893  0.61013  Biso   1.000  H
  O31      1.0000 0.72188  0.75426  0.38703  Biso   1.000  O
  O32      1.0000 0.65345  0.71204  0.50033  Biso   1.000  O
  O33      1.0000 0.42063  0.01633  0.58313  Biso   1.000  O
  C122     1.0000 0.35543  0.08817  0.78647  Biso   1.000  C
  C123     1.0000 0.35503  0.13937  0.80087  Biso   1.000  C
  C124     1.0000 0.39333  0.18497  0.74857  Biso   1.000  C
  H78      1.0000 0.42023  0.18407  0.70757  Biso   1.000  H
  C125     1.0000 0.39103  0.23187  0.75797  Biso   1.000  C
  H79      1.0000 0.41753  0.26327  0.72477  Biso   1.000  H
  C126     1.0000 0.35043  0.23347  0.81577  Biso   1.000  C
  C127     1.0000 0.31263  0.18837  0.86877  Biso   1.000  C
  H80      1.0000 0.28663  0.18967  0.91177  Biso   1.000  H
  C128     1.0000 0.31383  0.14017  0.85747  Biso   1.000  C
  H81      1.0000 0.28653  0.10847  0.88827  Biso   1.000  H
  C129     1.0000 0.34913  0.28497  0.82607  Biso   1.000  C
  C130     1.0000 0.30163  0.28527  0.82527  Biso   1.000  C
  H82      1.0000 0.26913  0.25247  0.81917  Biso   1.000  H
  C131     1.0000 0.24193  0.36937  0.89677  Biso   1.000  C
  H83      1.0000 0.27063  0.39437  0.93897  Biso   1.000  H
  C132     1.0000 0.19403  0.36887  0.89867  Biso   1.000  C
  H84      1.0000 0.18923  0.39227  0.94347  Biso   1.000  H
  O34      1.0000 0.38854  0.08760  0.72037  Biso   1.000  O
  O35      1.0000 0.32011  0.04538  0.83367  Biso   1.000  O
  O36      1.0000 0.08729  0.34967  0.91647  Biso   1.000  O
  C133     1.0000 0.39940  0.97790  0.11980  Biso   1.000  C
  C134     1.0000 0.45100  0.97830  0.13420  Biso   1.000  C
  C135     1.0000 0.45830  0.94000  0.08190  Biso   1.000  C
  H85      1.0000 0.43050  0.91310  0.04090  Biso   1.000  H
  C136     1.0000 0.50750  0.94230  0.09130  Biso   1.000  C
  H86      1.0000 0.51240  0.91580  0.05810  Biso   1.000  H
  C137     1.0000 0.54970  0.98290  0.14910  Biso   1.000  C
  C138     1.0000 0.54240  0.02070  0.20210  Biso   1.000  C
  H87      1.0000 0.56970  0.04670  0.24510  Biso   1.000  H
  C139     1.0000 0.49300  0.01950  0.19080  Biso   1.000  C
  H88      1.0000 0.48860  0.04680  0.22160  Biso   1.000  H
  C140     1.0000 0.60250  0.98420  0.15940  Biso   1.000  C
  C141     1.0000 0.65030  0.03170  0.15860  Biso   1.000  C
  H89      1.0000 0.65000  0.06420  0.15250  Biso   1.000  H
  C142     1.0000 0.79410  0.09140  0.23010  Biso   1.000  C
  H90      1.0000 0.79040  0.06270  0.27230  Biso   1.000  H
  C143     1.0000 0.84150  0.13930  0.23200  Biso   1.000  C
  H91      1.0000 0.86970  0.14410  0.27680  Biso   1.000  H
  O37      1.0000 0.36572  0.94479  0.05370  Biso   1.000  O
  O38      1.0000 0.39193  0.01322  0.16700  Biso   1.000  O
  O39      1.0000 0.92904  0.24604  0.24980  Biso   1.000  O
  C144     1.0000 0.06607  0.31123  0.45313  Biso   1.000  C
  C145     1.0000 0.11767  0.31163  0.46753  Biso   1.000  C
  C146     1.0000 0.12497  0.27333  0.41523  Biso   1.000  C
  H92      1.0000 0.09717  0.24643  0.37423  Biso   1.000  H
  C147     1.0000 0.17417  0.27563  0.42463  Biso   1.000  C
  H93      1.0000 0.17907  0.24913  0.39143  Biso   1.000  H
  C148     1.0000 0.21637  0.31623  0.48243  Biso   1.000  C
  C149     1.0000 0.20907  0.35403  0.53543  Biso   1.000  C
  H94      1.0000 0.23637  0.38003  0.57843  Biso   1.000  H
  C150     1.0000 0.15967  0.35283  0.52413  Biso   1.000  C
  H95      1.0000 0.15527  0.38013  0.55493  Biso   1.000  H
  C151     1.0000 0.26917  0.31753  0.49273  Biso   1.000  C
  C152     1.0000 0.31697  0.36503  0.49193  Biso   1.000  C
  H96      1.0000 0.31667  0.39753  0.48583  Biso   1.000  H
  C153     1.0000 0.46077  0.42473  0.56343  Biso   1.000  C
  H97      1.0000 0.45707  0.39603  0.60563  Biso   1.000  H
  C154     1.0000 0.50817  0.47263  0.56533  Biso   1.000  C
  H98      1.0000 0.53637  0.47743  0.61013  Biso   1.000  H
  O40      1.0000 0.03239  0.27812  0.38703  Biso   1.000  O
  O41      1.0000 0.05860  0.34655  0.50033  Biso   1.000  O
  O42      1.0000 0.59571  0.57937  0.58313  Biso   1.000  O
  C155     1.0000 0.73273  0.64457  0.78647  Biso   1.000  C
  C156     1.0000 0.78433  0.64497  0.80087  Biso   1.000  C
  C157     1.0000 0.79163  0.60667  0.74857  Biso   1.000  C
  H99      1.0000 0.76383  0.57977  0.70757  Biso   1.000  H
  C158     1.0000 0.84083  0.60897  0.75797  Biso   1.000  C
  H100     1.0000 0.84573  0.58247  0.72477  Biso   1.000  H
  C159     1.0000 0.88303  0.64957  0.81577  Biso   1.000  C
  C160     1.0000 0.87573  0.68737  0.86877  Biso   1.000  C
  H101     1.0000 0.90303  0.71337  0.91177  Biso   1.000  H
  C161     1.0000 0.82633  0.68617  0.85747  Biso   1.000  C
  H102     1.0000 0.82193  0.71347  0.88827  Biso   1.000  H
  C162     1.0000 0.93583  0.65087  0.82607  Biso   1.000  C
  C163     1.0000 0.98363  0.69837  0.82527  Biso   1.000  C
  H103     1.0000 0.98333  0.73087  0.81917  Biso   1.000  H
  C164     1.0000 0.12743  0.75807  0.89677  Biso   1.000  C
  H104     1.0000 0.12373  0.72937  0.93897  Biso   1.000  H
  C165     1.0000 0.17483  0.80597  0.89867  Biso   1.000  C
  H105     1.0000 0.20303  0.81077  0.94347  Biso   1.000  H
  O43      1.0000 0.69905  0.61146  0.72037  Biso   1.000  O
  O44      1.0000 0.72526  0.67989  0.83367  Biso   1.000  O
  O45      1.0000 0.26237  0.91271  0.91647  Biso   1.000  O
  C166     1.0000 0.57850  0.60060  0.11980  Biso   1.000  C
  C167     1.0000 0.52730  0.54900  0.13420  Biso   1.000  C
  C168     1.0000 0.48170  0.54170  0.08190  Biso   1.000  C
  H106     1.0000 0.48260  0.56950  0.04090  Biso   1.000  H
  C169     1.0000 0.43480  0.49250  0.09130  Biso   1.000  C
  H107     1.0000 0.40340  0.48760  0.05810  Biso   1.000  H
  C170     1.0000 0.43320  0.45030  0.14910  Biso   1.000  C
  C171     1.0000 0.47830  0.45760  0.20210  Biso   1.000  C
  H108     1.0000 0.47700  0.43030  0.24510  Biso   1.000  H
  C172     1.0000 0.52650  0.50700  0.19080  Biso   1.000  C
  H109     1.0000 0.55820  0.51140  0.22160  Biso   1.000  H
  C173     1.0000 0.38170  0.39750  0.15940  Biso   1.000  C
  C174     1.0000 0.38140  0.34970  0.15860  Biso   1.000  C
  H110     1.0000 0.41420  0.35000  0.15250  Biso   1.000  H
  C175     1.0000 0.29730  0.20590  0.23010  Biso   1.000  C
  H111     1.0000 0.27230  0.20960  0.27230  Biso   1.000  H
  C176     1.0000 0.29780  0.15850  0.23200  Biso   1.000  C
  H112     1.0000 0.27440  0.13030  0.27680  Biso   1.000  H
  O46      1.0000 0.57907  0.63428  0.05370  Biso   1.000  O
  O47      1.0000 0.62129  0.60807  0.16700  Biso   1.000  O
  O48      1.0000 0.31700  0.07096  0.24980  Biso   1.000  O
  C177     1.0000 0.24517  0.93393  0.45313  Biso   1.000  C
  C178     1.0000 0.19397  0.88233  0.46753  Biso   1.000  C
  C179     1.0000 0.14837  0.87503  0.41523  Biso   1.000  C
  H113     1.0000 0.14927  0.90283  0.37423  Biso   1.000  H
  C180     1.0000 0.10147  0.82583  0.42463  Biso   1.000  C
  H114     1.0000 0.07007  0.82093  0.39143  Biso   1.000  H
  C181     1.0000 0.09987  0.78363  0.48243  Biso   1.000  C
  C182     1.0000 0.14497  0.79093  0.53543  Biso   1.000  C
  H115     1.0000 0.14367  0.76363  0.57843  Biso   1.000  H
  C183     1.0000 0.19317  0.84033  0.52413  Biso   1.000  C
  H116     1.0000 0.22487  0.84473  0.55493  Biso   1.000  H
  C184     1.0000 0.04837  0.73083  0.49273  Biso   1.000  C
  C185     1.0000 0.04807  0.68303  0.49193  Biso   1.000  C
  H117     1.0000 0.08087  0.68333  0.48583  Biso   1.000  H
  C186     1.0000 0.96397  0.53923  0.56343  Biso   1.000  C
  H118     1.0000 0.93897  0.54293  0.60563  Biso   1.000  H
  C187     1.0000 0.96447  0.49183  0.56533  Biso   1.000  C
  H119     1.0000 0.94107  0.46363  0.61013  Biso   1.000  H
  O49      1.0000 0.24574  0.96761  0.38703  Biso   1.000  O
  O50      1.0000 0.28796  0.94140  0.50033  Biso   1.000  O
  O51      1.0000 0.98367  0.40429  0.58313  Biso   1.000  O
  C188     1.0000 0.91183  0.26727  0.78647  Biso   1.000  C
  C189     1.0000 0.86063  0.21567  0.80087  Biso   1.000  C
  C190     1.0000 0.81503  0.20837  0.74857  Biso   1.000  C
  H120     1.0000 0.81593  0.23617  0.70757  Biso   1.000  H
  C191     1.0000 0.76813  0.15917  0.75797  Biso   1.000  C
  H121     1.0000 0.73673  0.15427  0.72477  Biso   1.000  H
  C192     1.0000 0.76653  0.11697  0.81577  Biso   1.000  C
  C193     1.0000 0.81163  0.12427  0.86877  Biso   1.000  C
  H122     1.0000 0.81033  0.09697  0.91177  Biso   1.000  H
  C194     1.0000 0.85983  0.17367  0.85747  Biso   1.000  C
  H123     1.0000 0.89153  0.17807  0.88827  Biso   1.000  H
  C195     1.0000 0.71503  0.06417  0.82607  Biso   1.000  C
  C196     1.0000 0.71473  0.01637  0.82527  Biso   1.000  C
  H124     1.0000 0.74753  0.01667  0.81917  Biso   1.000  H
  C197     1.0000 0.63063  0.87257  0.89677  Biso   1.000  C
  H125     1.0000 0.60563  0.87627  0.93897  Biso   1.000  H
  C198     1.0000 0.63113  0.82517  0.89867  Biso   1.000  C
  H126     1.0000 0.60773  0.79697  0.94347  Biso   1.000  H
  O52      1.0000 0.91240  0.30095  0.72037  Biso   1.000  O
  O53      1.0000 0.95462  0.27474  0.83367  Biso   1.000  O
  O54      1.0000 0.65033  0.73763  0.91647  Biso   1.000  O
  C199     1.0000 0.66667  0.06348  0.83333  Biso   1.000  C
  H127     1.0000 0.66667  0.09618  0.83333  Biso   1.000  H
  C200     1.0000 0.66667  0.96688  0.83333  Biso   1.000  C
  C201     1.0000 0.66667  0.91578  0.83333  Biso   1.000  C
  C202     1.0000 0.66667  0.81978  0.83333  Biso   1.000  C
  C203     1.0000 0.66667  0.76628  0.83333  Biso   1.000  C
  C204     1.0000 0.93652  0.60318  0.83333  Biso   1.000  C
  H128     1.0000 0.90382  0.57048  0.83333  Biso   1.000  H
  C205     1.0000 0.03312  0.69978  0.83333  Biso   1.000  C
  C206     1.0000 0.08422  0.75088  0.83333  Biso   1.000  C
  C207     1.0000 0.18022  0.84688  0.83333  Biso   1.000  C
  C208     1.0000 0.23372  0.90038  0.83333  Biso   1.000  C
  C209     1.0000 0.39682  0.33333  0.83333  Biso   1.000  C
  H129     1.0000 0.42952  0.33333  0.83333  Biso   1.000  H
  C210     1.0000 0.30022  0.33333  0.83333  Biso   1.000  C
  C211     1.0000 0.24912  0.33333  0.83333  Biso   1.000  C
  C212     1.0000 0.15312  0.33333  0.83333  Biso   1.000  C
  C213     1.0000 0.09962  0.33333  0.83333  Biso   1.000  C
  C214     1.0000 0.06348  0.66667  0.16667  Biso   1.000  C
  H130     1.0000 0.09618  0.66667  0.16667  Biso   1.000  H
  C215     1.0000 0.96688  0.66667  0.16667  Biso   1.000  C
  C216     1.0000 0.91578  0.66667  0.16667  Biso   1.000  C
  C217     1.0000 0.81978  0.66667  0.16667  Biso   1.000  C
  C218     1.0000 0.76628  0.66667  0.16667  Biso   1.000  C
  C219     1.0000 0.73015  0.00000  0.50000  Biso   1.000  C
  H131     1.0000 0.76285  0.00000  0.50000  Biso   1.000  H
  C220     1.0000 0.63355  0.00000  0.50000  Biso   1.000  C
  C221     1.0000 0.58245  0.00000  0.50000  Biso   1.000  C
  C222     1.0000 0.48645  0.00000  0.50000  Biso   1.000  C
  C223     1.0000 0.43295  0.00000  0.50000  Biso   1.000  C
  C224     1.0000 0.60318  0.93652  0.16667  Biso   1.000  C
  H132     1.0000 0.57048  0.90382  0.16667  Biso   1.000  H
  C225     1.0000 0.69978  0.03312  0.16667  Biso   1.000  C
  C226     1.0000 0.75088  0.08422  0.16667  Biso   1.000  C
  C227     1.0000 0.84688  0.18022  0.16667  Biso   1.000  C
  C228     1.0000 0.90038  0.23372  0.16667  Biso   1.000  C
  C229     1.0000 0.26985  0.26985  0.50000  Biso   1.000  C
  H133     1.0000 0.23715  0.23715  0.50000  Biso   1.000  H
  C230     1.0000 0.36645  0.36645  0.50000  Biso   1.000  C
  C231     1.0000 0.41755  0.41755  0.50000  Biso   1.000  C
  C232     1.0000 0.51355  0.51355  0.50000  Biso   1.000  C
  C233     1.0000 0.56705  0.56705  0.50000  Biso   1.000  C
  C234     1.0000 0.33333  0.39682  0.16667  Biso   1.000  C
  H134     1.0000 0.33333  0.42952  0.16667  Biso   1.000  H
  C235     1.0000 0.33333  0.30022  0.16667  Biso   1.000  C
  C236     1.0000 0.33333  0.24912  0.16667  Biso   1.000  C
  C237     1.0000 0.33333  0.15312  0.16667  Biso   1.000  C
  C238     1.0000 0.33333  0.09962  0.16667  Biso   1.000  C
  C239     1.0000 0.00000  0.73015  0.50000  Biso   1.000  C
  H135     1.0000 0.00000  0.76285  0.50000  Biso   1.000  H
  C240     1.0000 0.00000  0.63355  0.50000  Biso   1.000  C
  C241     1.0000 0.00000  0.58245  0.50000  Biso   1.000  C
  C242     1.0000 0.00000  0.48645  0.50000  Biso   1.000  C
  C243     1.0000 0.00000  0.43295  0.50000  Biso   1.000  C
  La1      1.0000 0.32222  0.00000  0.00000  Biso   1.000  La
  La2      1.0000 0.98888  0.33333  0.33333  Biso   1.000  La
  La3      1.0000 0.65555  0.66667  0.66667  Biso   1.000  La
  La4      1.0000 0.00000  0.32222  0.00000  Biso   1.000  La
  La5      1.0000 0.66667  0.65555  0.33333  Biso   1.000  La
  La6      1.0000 0.33333  0.98888  0.66667  Biso   1.000  La
  La7      1.0000 0.67778  0.67778  0.00000  Biso   1.000  La
  La8      1.0000 0.34445  0.01112  0.33333  Biso   1.000  La
  La9      1.0000 0.01112  0.34445  0.66667  Biso   1.000  La
