data_image0
_cell_length_a       10.4385
_cell_length_b       27.184
_cell_length_c       9.3482
_cell_angle_alpha    90
_cell_angle_beta     90
_cell_angle_gamma    90

_symmetry_space_group_name_H-M    "P 1"
_symmetry_int_tables_number       1

loop_
  _symmetry_equiv_pos_as_xyz
  'x, y, z'

loop_
  _atom_site_label
  _atom_site_occupancy
  _atom_site_fract_x
  _atom_site_fract_y
  _atom_site_fract_z
  _atom_site_thermal_displace_type
  _atom_site_B_iso_or_equiv
  _atom_site_type_symbol
  C1       1.0000 0.50030  0.07810  0.07560  Biso   1.000  C
  C2       1.0000 0.47200  0.13030  0.12420  Biso   1.000  C
  C3       1.0000 0.57190  0.16340  0.15600  Biso   1.000  C
  H1       1.0000 0.65690  0.15430  0.14280  Biso   1.000  H
  C4       1.0000 0.34700  0.14560  0.14130  Biso   1.000  C
  H2       1.0000 0.28040  0.12420  0.11880  Biso   1.000  H
  C5       1.0000 0.31900  0.19280  0.19200  Biso   1.000  C
  H3       1.0000 0.23460  0.20280  0.20470  Biso   1.000  H
  C6       1.0000 0.42080  0.22460  0.22320  Biso   1.000  C
  C7       1.0000 0.54150  0.20930  0.20800  Biso   1.000  C
  C8       1.0000 0.71400  0.26470  0.11800  Biso   1.000  C
  H4       1.0000 0.75250  0.23590  0.07610  Biso   1.000  H
  H5       1.0000 0.78000  0.28750  0.14460  Biso   1.000  H
  H6       1.0000 0.65820  0.27990  0.04910  Biso   1.000  H
  O1       1.0000 0.61320  0.06690  0.06640  Biso   1.000  O
  O2       1.0000 0.41250  0.05180  0.04520  Biso   1.000  O
  C9       1.0000 0.99970  0.92190  0.07560  Biso   1.000  C
  C10      1.0000 0.02800  0.86970  0.12420  Biso   1.000  C
  C11      1.0000 0.92810  0.83660  0.15600  Biso   1.000  C
  H7       1.0000 0.84310  0.84570  0.14280  Biso   1.000  H
  C12      1.0000 0.15300  0.85440  0.14130  Biso   1.000  C
  H8       1.0000 0.21960  0.87580  0.11880  Biso   1.000  H
  C13      1.0000 0.18100  0.80720  0.19200  Biso   1.000  C
  H9       1.0000 0.26540  0.79720  0.20470  Biso   1.000  H
  C14      1.0000 0.07920  0.77540  0.22320  Biso   1.000  C
  C15      1.0000 0.95850  0.79070  0.20800  Biso   1.000  C
  C16      1.0000 0.78600  0.73530  0.11800  Biso   1.000  C
  H10      1.0000 0.74750  0.76410  0.07610  Biso   1.000  H
  H11      1.0000 0.72000  0.71250  0.14460  Biso   1.000  H
  H12      1.0000 0.84180  0.72010  0.04910  Biso   1.000  H
  O3       1.0000 0.88680  0.93310  0.06640  Biso   1.000  O
  O4       1.0000 0.08750  0.94820  0.04520  Biso   1.000  O
  C17      1.0000 0.99970  0.57810  0.42440  Biso   1.000  C
  C18      1.0000 0.02800  0.63030  0.37580  Biso   1.000  C
  C19      1.0000 0.92810  0.66340  0.34400  Biso   1.000  C
  H13      1.0000 0.84310  0.65430  0.35720  Biso   1.000  H
  C20      1.0000 0.15300  0.64560  0.35870  Biso   1.000  C
  H14      1.0000 0.21960  0.62420  0.38120  Biso   1.000  H
  C21      1.0000 0.18100  0.69280  0.30800  Biso   1.000  C
  H15      1.0000 0.26540  0.70280  0.29530  Biso   1.000  H
  C22      1.0000 0.07920  0.72460  0.27680  Biso   1.000  C
  C23      1.0000 0.95850  0.70930  0.29200  Biso   1.000  C
  C24      1.0000 0.78600  0.76470  0.38200  Biso   1.000  C
  H16      1.0000 0.74750  0.73590  0.42390  Biso   1.000  H
  H17      1.0000 0.72000  0.78750  0.35540  Biso   1.000  H
  H18      1.0000 0.84180  0.77990  0.45090  Biso   1.000  H
  O5       1.0000 0.88680  0.56690  0.43360  Biso   1.000  O
  O6       1.0000 0.08750  0.55180  0.45480  Biso   1.000  O
  C25      1.0000 0.50030  0.42190  0.42440  Biso   1.000  C
  C26      1.0000 0.47200  0.36970  0.37580  Biso   1.000  C
  C27      1.0000 0.57190  0.33660  0.34400  Biso   1.000  C
  H19      1.0000 0.65690  0.34570  0.35720  Biso   1.000  H
  C28      1.0000 0.34700  0.35440  0.35870  Biso   1.000  C
  H20      1.0000 0.28040  0.37580  0.38120  Biso   1.000  H
  C29      1.0000 0.31900  0.30720  0.30800  Biso   1.000  C
  H21      1.0000 0.23460  0.29720  0.29530  Biso   1.000  H
  C30      1.0000 0.42080  0.27540  0.27680  Biso   1.000  C
  C31      1.0000 0.54150  0.29070  0.29200  Biso   1.000  C
  C32      1.0000 0.71400  0.23530  0.38200  Biso   1.000  C
  H22      1.0000 0.75250  0.26410  0.42390  Biso   1.000  H
  H23      1.0000 0.78000  0.21250  0.35540  Biso   1.000  H
  H24      1.0000 0.65820  0.22010  0.45090  Biso   1.000  H
  O7       1.0000 0.61320  0.43310  0.43360  Biso   1.000  O
  O8       1.0000 0.41250  0.44820  0.45480  Biso   1.000  O
  C33      1.0000 0.49970  0.92190  0.92440  Biso   1.000  C
  C34      1.0000 0.52800  0.86970  0.87580  Biso   1.000  C
  C35      1.0000 0.42810  0.83660  0.84400  Biso   1.000  C
  H25      1.0000 0.34310  0.84570  0.85720  Biso   1.000  H
  C36      1.0000 0.65300  0.85440  0.85870  Biso   1.000  C
  H26      1.0000 0.71960  0.87580  0.88120  Biso   1.000  H
  C37      1.0000 0.68100  0.80720  0.80800  Biso   1.000  C
  H27      1.0000 0.76540  0.79720  0.79530  Biso   1.000  H
  C38      1.0000 0.57920  0.77540  0.77680  Biso   1.000  C
  C39      1.0000 0.45850  0.79070  0.79200  Biso   1.000  C
  C40      1.0000 0.28600  0.73530  0.88200  Biso   1.000  C
  H28      1.0000 0.24750  0.76410  0.92390  Biso   1.000  H
  H29      1.0000 0.22000  0.71250  0.85540  Biso   1.000  H
  H30      1.0000 0.34180  0.72010  0.95090  Biso   1.000  H
  O9       1.0000 0.38680  0.93310  0.93360  Biso   1.000  O
  O10      1.0000 0.58750  0.94820  0.95480  Biso   1.000  O
  C41      1.0000 0.00030  0.07810  0.92440  Biso   1.000  C
  C42      1.0000 0.97200  0.13030  0.87580  Biso   1.000  C
  C43      1.0000 0.07190  0.16340  0.84400  Biso   1.000  C
  H31      1.0000 0.15690  0.15430  0.85720  Biso   1.000  H
  C44      1.0000 0.84700  0.14560  0.85870  Biso   1.000  C
  H32      1.0000 0.78040  0.12420  0.88120  Biso   1.000  H
  C45      1.0000 0.81900  0.19280  0.80800  Biso   1.000  C
  H33      1.0000 0.73460  0.20280  0.79530  Biso   1.000  H
  C46      1.0000 0.92080  0.22460  0.77680  Biso   1.000  C
  C47      1.0000 0.04150  0.20930  0.79200  Biso   1.000  C
  C48      1.0000 0.21400  0.26470  0.88200  Biso   1.000  C
  H34      1.0000 0.25250  0.23590  0.92390  Biso   1.000  H
  H35      1.0000 0.28000  0.28750  0.85540  Biso   1.000  H
  H36      1.0000 0.15820  0.27990  0.95090  Biso   1.000  H
  O11      1.0000 0.11320  0.06690  0.93360  Biso   1.000  O
  O12      1.0000 0.91250  0.05180  0.95480  Biso   1.000  O
  C49      1.0000 0.00030  0.42190  0.57560  Biso   1.000  C
  C50      1.0000 0.97200  0.36970  0.62420  Biso   1.000  C
  C51      1.0000 0.07190  0.33660  0.65600  Biso   1.000  C
  H37      1.0000 0.15690  0.34570  0.64280  Biso   1.000  H
  C52      1.0000 0.84700  0.35440  0.64130  Biso   1.000  C
  H38      1.0000 0.78040  0.37580  0.61880  Biso   1.000  H
  C53      1.0000 0.81900  0.30720  0.69200  Biso   1.000  C
  H39      1.0000 0.73460  0.29720  0.70470  Biso   1.000  H
  C54      1.0000 0.92080  0.27540  0.72320  Biso   1.000  C
  C55      1.0000 0.04150  0.29070  0.70800  Biso   1.000  C
  C56      1.0000 0.21400  0.23530  0.61800  Biso   1.000  C
  H40      1.0000 0.25250  0.26410  0.57610  Biso   1.000  H
  H41      1.0000 0.28000  0.21250  0.64460  Biso   1.000  H
  H42      1.0000 0.15820  0.22010  0.54910  Biso   1.000  H
  O13      1.0000 0.11320  0.43310  0.56640  Biso   1.000  O
  O14      1.0000 0.91250  0.44820  0.54520  Biso   1.000  O
  C57      1.0000 0.49970  0.57810  0.57560  Biso   1.000  C
  C58      1.0000 0.52800  0.63030  0.62420  Biso   1.000  C
  C59      1.0000 0.42810  0.66340  0.65600  Biso   1.000  C
  H43      1.0000 0.34310  0.65430  0.64280  Biso   1.000  H
  C60      1.0000 0.65300  0.64560  0.64130  Biso   1.000  C
  H44      1.0000 0.71960  0.62420  0.61880  Biso   1.000  H
  C61      1.0000 0.68100  0.69280  0.69200  Biso   1.000  C
  H45      1.0000 0.76540  0.70280  0.70470  Biso   1.000  H
  C62      1.0000 0.57920  0.72460  0.72320  Biso   1.000  C
  C63      1.0000 0.45850  0.70930  0.70800  Biso   1.000  C
  C64      1.0000 0.28600  0.76470  0.61800  Biso   1.000  C
  H46      1.0000 0.24750  0.73590  0.57610  Biso   1.000  H
  H47      1.0000 0.22000  0.78750  0.64460  Biso   1.000  H
  H48      1.0000 0.34180  0.77990  0.54910  Biso   1.000  H
  O15      1.0000 0.38680  0.56690  0.56640  Biso   1.000  O
  O16      1.0000 0.58750  0.55180  0.54520  Biso   1.000  O
  Eu1      1.0000 0.75000  0.00000  0.02597  Biso   1.000  Eu
  Eu2      1.0000 0.75000  0.50000  0.47403  Biso   1.000  Eu
  Eu3      1.0000 0.25000  0.00000  0.97403  Biso   1.000  Eu
  Eu4      1.0000 0.25000  0.50000  0.52597  Biso   1.000  Eu
  C65      1.0000 0.63900  0.25000  0.25000  Biso   1.000  C
  C66      1.0000 0.86100  0.75000  0.25000  Biso   1.000  C
  C67      1.0000 0.36100  0.75000  0.75000  Biso   1.000  C
  C68      1.0000 0.13900  0.25000  0.75000  Biso   1.000  C
