data_image0
_cell_length_a       13.333
_cell_length_b       22.7104
_cell_length_c       18.4681
_cell_angle_alpha    90
_cell_angle_beta     109.127
_cell_angle_gamma    90

_symmetry_space_group_name_H-M    "P 1"
_symmetry_int_tables_number       1

loop_
  _symmetry_equiv_pos_as_xyz
  'x, y, z'

loop_
  _atom_site_label
  _atom_site_occupancy
  _atom_site_fract_x
  _atom_site_fract_y
  _atom_site_fract_z
  _atom_site_thermal_displace_type
  _atom_site_B_iso_or_equiv
  _atom_site_type_symbol
  Cu1      1.0000 0.44228  0.26260  0.50671  Biso   1.000  Cu
  N1       1.0000 0.49180  0.26259  0.41490  Biso   1.000  N
  C1       1.0000 0.52440  0.30689  0.38220  Biso   1.000  C
  H1       1.0000 0.52030  0.34540  0.39980  Biso   1.000  H
  C2       1.0000 0.56500  0.29810  0.32210  Biso   1.000  C
  H2       1.0000 0.58700  0.33050  0.29950  Biso   1.000  H
  C3       1.0000 0.57250  0.24310  0.29640  Biso   1.000  C
  H3       1.0000 0.60120  0.23730  0.25670  Biso   1.000  H
  C4       1.0000 0.53780  0.19470  0.32870  Biso   1.000  C
  C5       1.0000 0.49690  0.20698  0.38822  Biso   1.000  C
  C6       1.0000 0.45760  0.16077  0.42300  Biso   1.000  C
  C7       1.0000 0.46010  0.10245  0.39870  Biso   1.000  C
  C8       1.0000 0.41870  0.05952  0.43530  Biso   1.000  C
  H4       1.0000 0.41680  0.01990  0.42030  Biso   1.000  H
  C9       1.0000 0.38110  0.07526  0.49300  Biso   1.000  C
  H5       1.0000 0.35360  0.04650  0.51810  Biso   1.000  H
  C10      1.0000 0.38370  0.13441  0.51470  Biso   1.000  C
  H6       1.0000 0.35900  0.14470  0.55520  Biso   1.000  H
  N2       1.0000 0.41970  0.17629  0.48016  Biso   1.000  N
  C11      1.0000 0.53860  0.13460  0.30460  Biso   1.000  C
  H7       1.0000 0.56580  0.12570  0.26490  Biso   1.000  H
  C12      1.0000 0.50110  0.09100  0.33790  Biso   1.000  C
  H8       1.0000 0.50210  0.05220  0.32060  Biso   1.000  H
  Cu2      1.0000 0.25066  0.36917  0.50728  Biso   1.000  Cu
  N3       1.0000 0.22960  0.43322  0.42918  Biso   1.000  N
  C13      1.0000 0.21200  0.42938  0.35450  Biso   1.000  C
  H9       1.0000 0.20520  0.39190  0.33180  Biso   1.000  H
  C14      1.0000 0.20330  0.47875  0.30850  Biso   1.000  C
  H10      1.0000 0.19100  0.47410  0.25570  Biso   1.000  H
  C15      1.0000 0.21240  0.53347  0.33900  Biso   1.000  C
  H11      1.0000 0.20700  0.56670  0.30760  Biso   1.000  H
  C16      1.0000 0.23000  0.54018  0.41800  Biso   1.000  C
  C17      1.0000 0.23950  0.48805  0.46074  Biso   1.000  C
  C18      1.0000 0.26040  0.49089  0.54184  Biso   1.000  C
  C19      1.0000 0.27000  0.54504  0.57880  Biso   1.000  C
  C20      1.0000 0.28690  0.54396  0.65810  Biso   1.000  C
  H12      1.0000 0.29220  0.57930  0.68570  Biso   1.000  H
  C21      1.0000 0.29530  0.49129  0.69420  Biso   1.000  C
  H13      1.0000 0.30700  0.49020  0.74720  Biso   1.000  H
  C22      1.0000 0.28670  0.43903  0.65356  Biso   1.000  C
  H14      1.0000 0.29270  0.40310  0.67990  Biso   1.000  H
  N4       1.0000 0.27020  0.43820  0.57859  Biso   1.000  N
  C23      1.0000 0.24130  0.59516  0.45780  Biso   1.000  C
  H15      1.0000 0.23580  0.63040  0.43010  Biso   1.000  H
  C24      1.0000 0.25940  0.59758  0.53370  Biso   1.000  C
  H16      1.0000 0.26530  0.63450  0.55780  Biso   1.000  H
  Cu3      1.0000 0.06278  0.23727  0.01493  Biso   1.000  Cu
  N5       1.0000 0.07590  0.32281  0.04651  Biso   1.000  N
  C25      1.0000 0.10560  0.36827  0.01370  Biso   1.000  C
  H17      1.0000 0.13390  0.36160  0.97400  Biso   1.000  H
  C26      1.0000 0.09610  0.42588  0.03650  Biso   1.000  C
  H18      1.0000 0.11830  0.45740  0.01250  Biso   1.000  H
  C27      1.0000 0.05490  0.43662  0.09320  Biso   1.000  C
  H19      1.0000 0.04830  0.47560  0.10830  Biso   1.000  H
  C28      1.0000 0.02190  0.38962  0.12940  Biso   1.000  C
  C29      1.0000 0.03490  0.33301  0.10330  Biso   1.000  C
  C30      1.0000 0.00120  0.28269  0.13550  Biso   1.000  C
  C31      1.0000 0.95730  0.28910  0.19430  Biso   1.000  C
  C32      1.0000 0.92810  0.23770  0.22380  Biso   1.000  C
  H20      1.0000 0.89790  0.24000  0.26310  Biso   1.000  H
  C33      1.0000 0.94350  0.18480  0.19580  Biso   1.000  C
  H21      1.0000 0.92550  0.15000  0.21630  Biso   1.000  H
  C34      1.0000 0.98630  0.18192  0.13630  Biso   1.000  C
  H22      1.0000 0.99610  0.14480  0.11710  Biso   1.000  H
  N6       1.0000 0.01350  0.22916  0.10587  Biso   1.000  N
  C35      1.0000 0.97810  0.39480  0.19030  Biso   1.000  C
  H23      1.0000 0.97120  0.43230  0.20950  Biso   1.000  H
  C36      1.0000 0.94680  0.34750  0.22060  Biso   1.000  C
  H24      1.0000 0.91720  0.35280  0.26000  Biso   1.000  H
  O1       1.0000 0.38900  0.24810  0.59110  Biso   1.000  O
  O2       1.0000 0.26457  0.31467  0.59035  Biso   1.000  O
  C37      1.0000 0.32220  0.27060  0.61711  Biso   1.000  C
  C38      1.0000 0.30880  0.24201  0.68512  Biso   1.000  C
  H25      1.0000 0.33740  0.20420  0.69860  Biso   1.000  H
  C39      1.0000 0.25830  0.26729  0.72823  Biso   1.000  C
  H26      1.0000 0.22860  0.30480  0.71400  Biso   1.000  H
  O3       1.0000 0.45010  0.34780  0.51846  Biso   1.000  O
  O4       1.0000 0.58060  0.35064  0.63178  Biso   1.000  O
  C40      1.0000 0.51680  0.37493  0.57530  Biso   1.000  C
  C41      1.0000 0.51850  0.43980  0.56950  Biso   1.000  C
  H27      1.0000 0.53800  0.46190  0.61510  Biso   1.000  H
  C42      1.0000 0.49380  0.46867  0.50330  Biso   1.000  C
  H28      1.0000 0.46650  0.44680  0.45780  Biso   1.000  H
  O5       1.0000 0.23975  0.19043  0.93012  Biso   1.000  O
  O6       1.0000 0.11700  0.25745  0.93308  Biso   1.000  O
  C43      1.0000 0.18360  0.23539  0.90587  Biso   1.000  C
  C44      1.0000 0.19520  0.26484  0.83822  Biso   1.000  C
  H29      1.0000 0.16510  0.30240  0.82480  Biso   1.000  H
  C45      1.0000 0.24660  0.24040  0.79538  Biso   1.000  C
  H30      1.0000 0.27730  0.20310  0.80990  Biso   1.000  H
  O7       1.0000 0.05509  0.15300  0.99465  Biso   1.000  O
  O8       1.0000 0.91510  0.15651  0.88727  Biso   1.000  O
  C46      1.0000 0.98310  0.12932  0.93820  Biso   1.000  C
  C47      1.0000 0.98070  0.06447  0.93650  Biso   1.000  C
  H31      1.0000 0.95990  0.04550  0.88860  Biso   1.000  H
  C48      1.0000 0.00670  0.03139  0.99960  Biso   1.000  C
  H32      1.0000 0.03580  0.05050  0.04700  Biso   1.000  H
  Cu4      1.0000 0.55772  0.76260  0.99329  Biso   1.000  Cu
  N7       1.0000 0.50820  0.76259  0.08510  Biso   1.000  N
  C49      1.0000 0.47560  0.80689  0.11780  Biso   1.000  C
  H33      1.0000 0.47970  0.84540  0.10020  Biso   1.000  H
  C50      1.0000 0.43500  0.79810  0.17790  Biso   1.000  C
  H34      1.0000 0.41300  0.83050  0.20050  Biso   1.000  H
  C51      1.0000 0.42750  0.74310  0.20360  Biso   1.000  C
  H35      1.0000 0.39880  0.73730  0.24330  Biso   1.000  H
  C52      1.0000 0.46220  0.69470  0.17130  Biso   1.000  C
  C53      1.0000 0.50310  0.70698  0.11178  Biso   1.000  C
  C54      1.0000 0.54240  0.66077  0.07700  Biso   1.000  C
  C55      1.0000 0.53990  0.60245  0.10130  Biso   1.000  C
  C56      1.0000 0.58130  0.55952  0.06470  Biso   1.000  C
  H36      1.0000 0.58320  0.51990  0.07970  Biso   1.000  H
  C57      1.0000 0.61890  0.57526  0.00700  Biso   1.000  C
  H37      1.0000 0.64640  0.54650  0.98190  Biso   1.000  H
  C58      1.0000 0.61630  0.63441  0.98530  Biso   1.000  C
  H38      1.0000 0.64100  0.64470  0.94480  Biso   1.000  H
  N8       1.0000 0.58030  0.67629  0.01984  Biso   1.000  N
  C59      1.0000 0.46140  0.63460  0.19540  Biso   1.000  C
  H39      1.0000 0.43420  0.62570  0.23510  Biso   1.000  H
  C60      1.0000 0.49890  0.59100  0.16210  Biso   1.000  C
  H40      1.0000 0.49790  0.55220  0.17940  Biso   1.000  H
  Cu5      1.0000 0.74934  0.86917  0.99272  Biso   1.000  Cu
  N9       1.0000 0.77040  0.93322  0.07082  Biso   1.000  N
  C61      1.0000 0.78800  0.92938  0.14550  Biso   1.000  C
  H41      1.0000 0.79480  0.89190  0.16820  Biso   1.000  H
  C62      1.0000 0.79670  0.97875  0.19150  Biso   1.000  C
  H42      1.0000 0.80900  0.97410  0.24430  Biso   1.000  H
  C63      1.0000 0.78760  0.03347  0.16100  Biso   1.000  C
  H43      1.0000 0.79300  0.06670  0.19240  Biso   1.000  H
  C64      1.0000 0.77000  0.04018  0.08200  Biso   1.000  C
  C65      1.0000 0.76050  0.98805  0.03926  Biso   1.000  C
  C66      1.0000 0.73960  0.99089  0.95816  Biso   1.000  C
  C67      1.0000 0.73000  0.04504  0.92120  Biso   1.000  C
  C68      1.0000 0.71310  0.04396  0.84190  Biso   1.000  C
  H44      1.0000 0.70780  0.07930  0.81430  Biso   1.000  H
  C69      1.0000 0.70470  0.99129  0.80580  Biso   1.000  C
  H45      1.0000 0.69300  0.99020  0.75280  Biso   1.000  H
  C70      1.0000 0.71330  0.93903  0.84644  Biso   1.000  C
  H46      1.0000 0.70730  0.90310  0.82010  Biso   1.000  H
  N10      1.0000 0.72980  0.93820  0.92141  Biso   1.000  N
  C71      1.0000 0.75870  0.09516  0.04220  Biso   1.000  C
  H47      1.0000 0.76420  0.13040  0.06990  Biso   1.000  H
  C72      1.0000 0.74060  0.09758  0.96630  Biso   1.000  C
  H48      1.0000 0.73470  0.13450  0.94220  Biso   1.000  H
  Cu6      1.0000 0.93722  0.73727  0.48507  Biso   1.000  Cu
  N11      1.0000 0.92410  0.82281  0.45349  Biso   1.000  N
  C73      1.0000 0.89440  0.86827  0.48630  Biso   1.000  C
  H49      1.0000 0.86610  0.86160  0.52600  Biso   1.000  H
  C74      1.0000 0.90390  0.92588  0.46350  Biso   1.000  C
  H50      1.0000 0.88170  0.95740  0.48750  Biso   1.000  H
  C75      1.0000 0.94510  0.93662  0.40680  Biso   1.000  C
  H51      1.0000 0.95170  0.97560  0.39170  Biso   1.000  H
  C76      1.0000 0.97810  0.88962  0.37060  Biso   1.000  C
  C77      1.0000 0.96510  0.83301  0.39670  Biso   1.000  C
  C78      1.0000 0.99880  0.78269  0.36450  Biso   1.000  C
  C79      1.0000 0.04270  0.78910  0.30570  Biso   1.000  C
  C80      1.0000 0.07190  0.73770  0.27620  Biso   1.000  C
  H52      1.0000 0.10210  0.74000  0.23690  Biso   1.000  H
  C81      1.0000 0.05650  0.68480  0.30420  Biso   1.000  C
  H53      1.0000 0.07450  0.65000  0.28370  Biso   1.000  H
  C82      1.0000 0.01370  0.68192  0.36370  Biso   1.000  C
  H54      1.0000 0.00390  0.64480  0.38290  Biso   1.000  H
  N12      1.0000 0.98650  0.72916  0.39413  Biso   1.000  N
  C83      1.0000 0.02190  0.89480  0.30970  Biso   1.000  C
  H55      1.0000 0.02880  0.93230  0.29050  Biso   1.000  H
  C84      1.0000 0.05320  0.84750  0.27940  Biso   1.000  C
  H56      1.0000 0.08280  0.85280  0.24000  Biso   1.000  H
  O9       1.0000 0.61100  0.74810  0.90890  Biso   1.000  O
  O10      1.0000 0.73543  0.81467  0.90965  Biso   1.000  O
  C85      1.0000 0.67780  0.77060  0.88289  Biso   1.000  C
  C86      1.0000 0.69120  0.74201  0.81488  Biso   1.000  C
  H57      1.0000 0.66260  0.70420  0.80140  Biso   1.000  H
  C87      1.0000 0.74170  0.76729  0.77177  Biso   1.000  C
  H58      1.0000 0.77140  0.80480  0.78600  Biso   1.000  H
  O11      1.0000 0.54990  0.84780  0.98154  Biso   1.000  O
  O12      1.0000 0.41940  0.85064  0.86822  Biso   1.000  O
  C88      1.0000 0.48320  0.87493  0.92470  Biso   1.000  C
  C89      1.0000 0.48150  0.93980  0.93050  Biso   1.000  C
  H59      1.0000 0.46200  0.96190  0.88490  Biso   1.000  H
  C90      1.0000 0.50620  0.96867  0.99670  Biso   1.000  C
  H60      1.0000 0.53350  0.94680  0.04220  Biso   1.000  H
  O13      1.0000 0.76025  0.69043  0.56988  Biso   1.000  O
  O14      1.0000 0.88300  0.75745  0.56692  Biso   1.000  O
  C91      1.0000 0.81640  0.73539  0.59413  Biso   1.000  C
  C92      1.0000 0.80480  0.76484  0.66178  Biso   1.000  C
  H61      1.0000 0.83490  0.80240  0.67520  Biso   1.000  H
  C93      1.0000 0.75340  0.74040  0.70462  Biso   1.000  C
  H62      1.0000 0.72270  0.70310  0.69010  Biso   1.000  H
  O15      1.0000 0.94491  0.65300  0.50535  Biso   1.000  O
  O16      1.0000 0.08490  0.65651  0.61273  Biso   1.000  O
  C94      1.0000 0.01690  0.62932  0.56180  Biso   1.000  C
  C95      1.0000 0.01930  0.56447  0.56350  Biso   1.000  C
  H63      1.0000 0.04010  0.54550  0.61140  Biso   1.000  H
  C96      1.0000 0.99330  0.53139  0.50040  Biso   1.000  C
  H64      1.0000 0.96420  0.55050  0.45300  Biso   1.000  H
  Cu7      1.0000 0.55772  0.73740  0.49329  Biso   1.000  Cu
  N13      1.0000 0.50820  0.73741  0.58510  Biso   1.000  N
  C97      1.0000 0.47560  0.69311  0.61780  Biso   1.000  C
  H65      1.0000 0.47970  0.65460  0.60020  Biso   1.000  H
  C98      1.0000 0.43500  0.70190  0.67790  Biso   1.000  C
  H66      1.0000 0.41300  0.66950  0.70050  Biso   1.000  H
  C99      1.0000 0.42750  0.75690  0.70360  Biso   1.000  C
  H67      1.0000 0.39880  0.76270  0.74330  Biso   1.000  H
  C100     1.0000 0.46220  0.80530  0.67130  Biso   1.000  C
  C101     1.0000 0.50310  0.79302  0.61178  Biso   1.000  C
  C102     1.0000 0.54240  0.83923  0.57700  Biso   1.000  C
  C103     1.0000 0.53990  0.89755  0.60130  Biso   1.000  C
  C104     1.0000 0.58130  0.94048  0.56470  Biso   1.000  C
  H68      1.0000 0.58320  0.98010  0.57970  Biso   1.000  H
  C105     1.0000 0.61890  0.92474  0.50700  Biso   1.000  C
  H69      1.0000 0.64640  0.95350  0.48190  Biso   1.000  H
  C106     1.0000 0.61630  0.86559  0.48530  Biso   1.000  C
  H70      1.0000 0.64100  0.85530  0.44480  Biso   1.000  H
  N14      1.0000 0.58030  0.82371  0.51984  Biso   1.000  N
  C107     1.0000 0.46140  0.86540  0.69540  Biso   1.000  C
  H71      1.0000 0.43420  0.87430  0.73510  Biso   1.000  H
  C108     1.0000 0.49890  0.90900  0.66210  Biso   1.000  C
  H72      1.0000 0.49790  0.94780  0.67940  Biso   1.000  H
  Cu8      1.0000 0.74934  0.63083  0.49272  Biso   1.000  Cu
  N15      1.0000 0.77040  0.56678  0.57082  Biso   1.000  N
  C109     1.0000 0.78800  0.57062  0.64550  Biso   1.000  C
  H73      1.0000 0.79480  0.60810  0.66820  Biso   1.000  H
  C110     1.0000 0.79670  0.52125  0.69150  Biso   1.000  C
  H74      1.0000 0.80900  0.52590  0.74430  Biso   1.000  H
  C111     1.0000 0.78760  0.46653  0.66100  Biso   1.000  C
  H75      1.0000 0.79300  0.43330  0.69240  Biso   1.000  H
  C112     1.0000 0.77000  0.45982  0.58200  Biso   1.000  C
  C113     1.0000 0.76050  0.51195  0.53926  Biso   1.000  C
  C114     1.0000 0.73960  0.50911  0.45816  Biso   1.000  C
  C115     1.0000 0.73000  0.45496  0.42120  Biso   1.000  C
  C116     1.0000 0.71310  0.45604  0.34190  Biso   1.000  C
  H76      1.0000 0.70780  0.42070  0.31430  Biso   1.000  H
  C117     1.0000 0.70470  0.50871  0.30580  Biso   1.000  C
  H77      1.0000 0.69300  0.50980  0.25280  Biso   1.000  H
  C118     1.0000 0.71330  0.56097  0.34644  Biso   1.000  C
  H78      1.0000 0.70730  0.59690  0.32010  Biso   1.000  H
  N16      1.0000 0.72980  0.56180  0.42141  Biso   1.000  N
  C119     1.0000 0.75870  0.40484  0.54220  Biso   1.000  C
  H79      1.0000 0.76420  0.36960  0.56990  Biso   1.000  H
  C120     1.0000 0.74060  0.40242  0.46630  Biso   1.000  C
  H80      1.0000 0.73470  0.36550  0.44220  Biso   1.000  H
  Cu9      1.0000 0.93722  0.76273  0.98507  Biso   1.000  Cu
  N17      1.0000 0.92410  0.67719  0.95349  Biso   1.000  N
  C121     1.0000 0.89440  0.63173  0.98630  Biso   1.000  C
  H81      1.0000 0.86610  0.63840  0.02600  Biso   1.000  H
  C122     1.0000 0.90390  0.57412  0.96350  Biso   1.000  C
  H82      1.0000 0.88170  0.54260  0.98750  Biso   1.000  H
  C123     1.0000 0.94510  0.56338  0.90680  Biso   1.000  C
  H83      1.0000 0.95170  0.52440  0.89170  Biso   1.000  H
  C124     1.0000 0.97810  0.61038  0.87060  Biso   1.000  C
  C125     1.0000 0.96510  0.66699  0.89670  Biso   1.000  C
  C126     1.0000 0.99880  0.71731  0.86450  Biso   1.000  C
  C127     1.0000 0.04270  0.71090  0.80570  Biso   1.000  C
  C128     1.0000 0.07190  0.76230  0.77620  Biso   1.000  C
  H84      1.0000 0.10210  0.76000  0.73690  Biso   1.000  H
  C129     1.0000 0.05650  0.81520  0.80420  Biso   1.000  C
  H85      1.0000 0.07450  0.85000  0.78370  Biso   1.000  H
  C130     1.0000 0.01370  0.81808  0.86370  Biso   1.000  C
  H86      1.0000 0.00390  0.85520  0.88290  Biso   1.000  H
  N18      1.0000 0.98650  0.77084  0.89413  Biso   1.000  N
  C131     1.0000 0.02190  0.60520  0.80970  Biso   1.000  C
  H87      1.0000 0.02880  0.56770  0.79050  Biso   1.000  H
  C132     1.0000 0.05320  0.65250  0.77940  Biso   1.000  C
  H88      1.0000 0.08280  0.64720  0.74000  Biso   1.000  H
  O17      1.0000 0.61100  0.75190  0.40890  Biso   1.000  O
  O18      1.0000 0.73543  0.68533  0.40965  Biso   1.000  O
  C133     1.0000 0.67780  0.72940  0.38289  Biso   1.000  C
  C134     1.0000 0.69120  0.75799  0.31488  Biso   1.000  C
  H89      1.0000 0.66260  0.79580  0.30140  Biso   1.000  H
  C135     1.0000 0.74170  0.73271  0.27177  Biso   1.000  C
  H90      1.0000 0.77140  0.69520  0.28600  Biso   1.000  H
  O19      1.0000 0.54990  0.65220  0.48154  Biso   1.000  O
  O20      1.0000 0.41940  0.64936  0.36822  Biso   1.000  O
  C136     1.0000 0.48320  0.62507  0.42470  Biso   1.000  C
  C137     1.0000 0.48150  0.56020  0.43050  Biso   1.000  C
  H91      1.0000 0.46200  0.53810  0.38490  Biso   1.000  H
  C138     1.0000 0.50620  0.53133  0.49670  Biso   1.000  C
  H92      1.0000 0.53350  0.55320  0.54220  Biso   1.000  H
  O21      1.0000 0.76025  0.80957  0.06988  Biso   1.000  O
  O22      1.0000 0.88300  0.74255  0.06692  Biso   1.000  O
  C139     1.0000 0.81640  0.76461  0.09413  Biso   1.000  C
  C140     1.0000 0.80480  0.73516  0.16178  Biso   1.000  C
  H93      1.0000 0.83490  0.69760  0.17520  Biso   1.000  H
  C141     1.0000 0.75340  0.75960  0.20462  Biso   1.000  C
  H94      1.0000 0.72270  0.79690  0.19010  Biso   1.000  H
  O23      1.0000 0.94491  0.84700  0.00535  Biso   1.000  O
  O24      1.0000 0.08490  0.84349  0.11273  Biso   1.000  O
  C142     1.0000 0.01690  0.87068  0.06180  Biso   1.000  C
  C143     1.0000 0.01930  0.93553  0.06350  Biso   1.000  C
  H95      1.0000 0.04010  0.95450  0.11140  Biso   1.000  H
  C144     1.0000 0.99330  0.96861  0.00040  Biso   1.000  C
  H96      1.0000 0.96420  0.94950  0.95300  Biso   1.000  H
  Cu10     1.0000 0.44228  0.23740  0.00671  Biso   1.000  Cu
  N19      1.0000 0.49180  0.23741  0.91490  Biso   1.000  N
  C145     1.0000 0.52440  0.19311  0.88220  Biso   1.000  C
  H97      1.0000 0.52030  0.15460  0.89980  Biso   1.000  H
  C146     1.0000 0.56500  0.20190  0.82210  Biso   1.000  C
  H98      1.0000 0.58700  0.16950  0.79950  Biso   1.000  H
  C147     1.0000 0.57250  0.25690  0.79640  Biso   1.000  C
  H99      1.0000 0.60120  0.26270  0.75670  Biso   1.000  H
  C148     1.0000 0.53780  0.30530  0.82870  Biso   1.000  C
  C149     1.0000 0.49690  0.29302  0.88822  Biso   1.000  C
  C150     1.0000 0.45760  0.33923  0.92300  Biso   1.000  C
  C151     1.0000 0.46010  0.39755  0.89870  Biso   1.000  C
  C152     1.0000 0.41870  0.44048  0.93530  Biso   1.000  C
  H100     1.0000 0.41680  0.48010  0.92030  Biso   1.000  H
  C153     1.0000 0.38110  0.42474  0.99300  Biso   1.000  C
  H101     1.0000 0.35360  0.45350  0.01810  Biso   1.000  H
  C154     1.0000 0.38370  0.36559  0.01470  Biso   1.000  C
  H102     1.0000 0.35900  0.35530  0.05520  Biso   1.000  H
  N20      1.0000 0.41970  0.32371  0.98016  Biso   1.000  N
  C155     1.0000 0.53860  0.36540  0.80460  Biso   1.000  C
  H103     1.0000 0.56580  0.37430  0.76490  Biso   1.000  H
  C156     1.0000 0.50110  0.40900  0.83790  Biso   1.000  C
  H104     1.0000 0.50210  0.44780  0.82060  Biso   1.000  H
  Cu11     1.0000 0.25066  0.13083  0.00728  Biso   1.000  Cu
  N21      1.0000 0.22960  0.06678  0.92918  Biso   1.000  N
  C157     1.0000 0.21200  0.07062  0.85450  Biso   1.000  C
  H105     1.0000 0.20520  0.10810  0.83180  Biso   1.000  H
  C158     1.0000 0.20330  0.02125  0.80850  Biso   1.000  C
  H106     1.0000 0.19100  0.02590  0.75570  Biso   1.000  H
  C159     1.0000 0.21240  0.96653  0.83900  Biso   1.000  C
  H107     1.0000 0.20700  0.93330  0.80760  Biso   1.000  H
  C160     1.0000 0.23000  0.95982  0.91800  Biso   1.000  C
  C161     1.0000 0.23950  0.01195  0.96074  Biso   1.000  C
  C162     1.0000 0.26040  0.00911  0.04184  Biso   1.000  C
  C163     1.0000 0.27000  0.95496  0.07880  Biso   1.000  C
  C164     1.0000 0.28690  0.95604  0.15810  Biso   1.000  C
  H108     1.0000 0.29220  0.92070  0.18570  Biso   1.000  H
  C165     1.0000 0.29530  0.00871  0.19420  Biso   1.000  C
  H109     1.0000 0.30700  0.00980  0.24720  Biso   1.000  H
  C166     1.0000 0.28670  0.06097  0.15356  Biso   1.000  C
  H110     1.0000 0.29270  0.09690  0.17990  Biso   1.000  H
  N22      1.0000 0.27020  0.06180  0.07859  Biso   1.000  N
  C167     1.0000 0.24130  0.90484  0.95780  Biso   1.000  C
  H111     1.0000 0.23580  0.86960  0.93010  Biso   1.000  H
  C168     1.0000 0.25940  0.90242  0.03370  Biso   1.000  C
  H112     1.0000 0.26530  0.86550  0.05780  Biso   1.000  H
  Cu12     1.0000 0.06278  0.26273  0.51493  Biso   1.000  Cu
  N23      1.0000 0.07590  0.17719  0.54651  Biso   1.000  N
  C169     1.0000 0.10560  0.13173  0.51370  Biso   1.000  C
  H113     1.0000 0.13390  0.13840  0.47400  Biso   1.000  H
  C170     1.0000 0.09610  0.07412  0.53650  Biso   1.000  C
  H114     1.0000 0.11830  0.04260  0.51250  Biso   1.000  H
  C171     1.0000 0.05490  0.06338  0.59320  Biso   1.000  C
  H115     1.0000 0.04830  0.02440  0.60830  Biso   1.000  H
  C172     1.0000 0.02190  0.11038  0.62940  Biso   1.000  C
  C173     1.0000 0.03490  0.16699  0.60330  Biso   1.000  C
  C174     1.0000 0.00120  0.21731  0.63550  Biso   1.000  C
  C175     1.0000 0.95730  0.21090  0.69430  Biso   1.000  C
  C176     1.0000 0.92810  0.26230  0.72380  Biso   1.000  C
  H116     1.0000 0.89790  0.26000  0.76310  Biso   1.000  H
  C177     1.0000 0.94350  0.31520  0.69580  Biso   1.000  C
  H117     1.0000 0.92550  0.35000  0.71630  Biso   1.000  H
  C178     1.0000 0.98630  0.31808  0.63630  Biso   1.000  C
  H118     1.0000 0.99610  0.35520  0.61710  Biso   1.000  H
  N24      1.0000 0.01350  0.27084  0.60587  Biso   1.000  N
  C179     1.0000 0.97810  0.10520  0.69030  Biso   1.000  C
  H119     1.0000 0.97120  0.06770  0.70950  Biso   1.000  H
  C180     1.0000 0.94680  0.15250  0.72060  Biso   1.000  C
  H120     1.0000 0.91720  0.14720  0.76000  Biso   1.000  H
  O25      1.0000 0.38900  0.25190  0.09110  Biso   1.000  O
  O26      1.0000 0.26457  0.18533  0.09035  Biso   1.000  O
  C181     1.0000 0.32220  0.22940  0.11711  Biso   1.000  C
  C182     1.0000 0.30880  0.25799  0.18512  Biso   1.000  C
  H121     1.0000 0.33740  0.29580  0.19860  Biso   1.000  H
  C183     1.0000 0.25830  0.23271  0.22823  Biso   1.000  C
  H122     1.0000 0.22860  0.19520  0.21400  Biso   1.000  H
  O27      1.0000 0.45010  0.15220  0.01846  Biso   1.000  O
  O28      1.0000 0.58060  0.14936  0.13178  Biso   1.000  O
  C184     1.0000 0.51680  0.12507  0.07530  Biso   1.000  C
  C185     1.0000 0.51850  0.06020  0.06950  Biso   1.000  C
  H123     1.0000 0.53800  0.03810  0.11510  Biso   1.000  H
  C186     1.0000 0.49380  0.03133  0.00330  Biso   1.000  C
  H124     1.0000 0.46650  0.05320  0.95780  Biso   1.000  H
  O29      1.0000 0.23975  0.30957  0.43012  Biso   1.000  O
  O30      1.0000 0.11700  0.24255  0.43308  Biso   1.000  O
  C187     1.0000 0.18360  0.26461  0.40587  Biso   1.000  C
  C188     1.0000 0.19520  0.23516  0.33822  Biso   1.000  C
  H125     1.0000 0.16510  0.19760  0.32480  Biso   1.000  H
  C189     1.0000 0.24660  0.25960  0.29538  Biso   1.000  C
  H126     1.0000 0.27730  0.29690  0.30990  Biso   1.000  H
  O31      1.0000 0.05509  0.34700  0.49465  Biso   1.000  O
  O32      1.0000 0.91510  0.34349  0.38727  Biso   1.000  O
  C190     1.0000 0.98310  0.37068  0.43820  Biso   1.000  C
  C191     1.0000 0.98070  0.43553  0.43650  Biso   1.000  C
  H127     1.0000 0.95990  0.45450  0.38860  Biso   1.000  H
  C192     1.0000 0.00670  0.46861  0.49960  Biso   1.000  C
  H128     1.0000 0.03580  0.44950  0.54700  Biso   1.000  H
