data_PIHNUQ_clean
_audit_creation_date              2014-07-02
_audit_creation_method            'Materials Studio'
_symmetry_space_group_name_H-M    'P1'
_symmetry_Int_Tables_number       1
_symmetry_cell_setting            triclinic
loop_
_symmetry_equiv_pos_as_xyz
  x,y,z
_cell_length_a                    10.3630
_cell_length_b                    12.7428
_cell_length_c                    12.7428
_cell_angle_alpha                 107.8220
_cell_angle_beta                  93.2049
_cell_angle_gamma                 86.7951
loop_
_atom_site_label
_atom_site_type_symbol
_atom_site_fract_x
_atom_site_fract_y
_atom_site_fract_z
_atom_site_U_iso_or_equiv
_atom_site_adp_type
_atom_site_occupancy
Zn1    Zn    0.89971   0.57995   0.97815   0.01267  Uiso   1.00
Zn2    Zn    0.60029   0.97815   0.57995   0.01267  Uiso   1.00
Zn3    Zn    0.10029   0.42005   0.02185   0.01267  Uiso   1.00
Zn4    Zn    0.39971   0.02185   0.42005   0.01267  Uiso   1.00
H1     H     0.77820   0.38210   0.64770   0.01267  Uiso   1.00
H2     H     0.73830   0.25930   0.47590   0.01267  Uiso   1.00
H3     H     0.07230   0.09300   0.50720   0.01267  Uiso   1.00
H4     H     0.10680   0.21310   0.68170   0.01267  Uiso   1.00
H5     H     0.74310   0.15380   0.30640   0.01267  Uiso   1.00
H6     H     0.77220   0.02930   0.24290   0.01267  Uiso   1.00
H7     H     0.73490   0.66840   0.82020   0.01267  Uiso   1.00
H8     H     0.58160   0.80580   0.82440   0.01267  Uiso   1.00
H9     H     0.56340   0.86190   0.14790   0.01267  Uiso   1.00
H10    H     0.71840   0.72350   0.13630   0.01267  Uiso   1.00
H11    H     0.40850   0.93210   0.92670   0.01267  Uiso   1.00
H12    H     0.40870   0.95940   0.05560   0.01267  Uiso   1.00
H13    H     0.72180   0.64770   0.38210   0.01267  Uiso   1.00
H14    H     0.76170   0.47590   0.25930   0.01267  Uiso   1.00
H15    H     0.42770   0.50720   0.09300   0.01267  Uiso   1.00
H16    H     0.39320   0.68170   0.21310   0.01267  Uiso   1.00
H17    H     0.75690   0.30640   0.15380   0.01267  Uiso   1.00
H18    H     0.72780   0.24290   0.02930   0.01267  Uiso   1.00
H19    H     0.76510   0.82020   0.66840   0.01267  Uiso   1.00
H20    H     0.91840   0.82440   0.80580   0.01267  Uiso   1.00
H21    H     0.93660   0.14790   0.86190   0.01267  Uiso   1.00
H22    H     0.78160   0.13630   0.72350   0.01267  Uiso   1.00
H23    H     0.09150   0.92670   0.93210   0.01267  Uiso   1.00
H24    H     0.09130   0.05560   0.95940   0.01267  Uiso   1.00
H25    H     0.22180   0.61790   0.35230   0.01267  Uiso   1.00
H26    H     0.26170   0.74070   0.52410   0.01267  Uiso   1.00
H27    H     0.92770   0.90700   0.49280   0.01267  Uiso   1.00
H28    H     0.89320   0.78690   0.31830   0.01267  Uiso   1.00
H29    H     0.25690   0.84620   0.69360   0.01267  Uiso   1.00
H30    H     0.22780   0.97070   0.75710   0.01267  Uiso   1.00
H31    H     0.26510   0.33160   0.17980   0.01267  Uiso   1.00
H32    H     0.41840   0.19420   0.17560   0.01267  Uiso   1.00
H33    H     0.43660   0.13810   0.85210   0.01267  Uiso   1.00
H34    H     0.28160   0.27650   0.86370   0.01267  Uiso   1.00
H35    H     0.59150   0.06790   0.07330   0.01267  Uiso   1.00
H36    H     0.59130   0.04060   0.94440   0.01267  Uiso   1.00
H37    H     0.27820   0.35230   0.61790   0.01267  Uiso   1.00
H38    H     0.23830   0.52410   0.74070   0.01267  Uiso   1.00
H39    H     0.57230   0.49280   0.90700   0.01267  Uiso   1.00
H40    H     0.60680   0.31830   0.78690   0.01267  Uiso   1.00
H41    H     0.24310   0.69360   0.84620   0.01267  Uiso   1.00
H42    H     0.27220   0.75710   0.97070   0.01267  Uiso   1.00
H43    H     0.23490   0.17980   0.33160   0.01267  Uiso   1.00
H44    H     0.08160   0.17560   0.19420   0.01267  Uiso   1.00
H45    H     0.06340   0.85210   0.13810   0.01267  Uiso   1.00
H46    H     0.21840   0.86370   0.27650   0.01267  Uiso   1.00
H47    H     0.90850   0.07330   0.06790   0.01267  Uiso   1.00
H48    H     0.90870   0.94440   0.04060   0.01267  Uiso   1.00
C1     C     0.96760   0.38800   0.79680   0.01267  Uiso   1.00
C2     C     0.94630   0.31130   0.68410   0.01267  Uiso   1.00
C3     C     0.83680   0.32330   0.62010   0.01267  Uiso   1.00
C4     C     0.81290   0.25030   0.51690   0.01267  Uiso   1.00
C5     C     0.90110   0.16280   0.47440   0.01267  Uiso   1.00
C6     C     0.01220   0.15020   0.53580   0.01267  Uiso   1.00
C7     C     0.03320   0.22310   0.64010   0.01267  Uiso   1.00
C8     C     0.76540   0.08220   0.31580   0.01267  Uiso   1.00
C9     C     0.65700   0.04990   0.37410   0.01267  Uiso   1.00
C10    C     0.70170   0.70900   0.88760   0.01267  Uiso   1.00
C11    C     0.60910   0.79130   0.88950   0.01267  Uiso   1.00
C12    C     0.55760   0.85160   0.98720   0.01267  Uiso   1.00
C13    C     0.59840   0.82450   0.08030   0.01267  Uiso   1.00
C14    C     0.69180   0.74130   0.07270   0.01267  Uiso   1.00
C15    C     0.46340   0.94800   0.99340   0.01267  Uiso   1.00
C16    C     0.53240   0.79680   0.38800   0.01267  Uiso   1.00
C17    C     0.55370   0.68410   0.31130   0.01267  Uiso   1.00
C18    C     0.66320   0.62010   0.32330   0.01267  Uiso   1.00
C19    C     0.68710   0.51690   0.25030   0.01267  Uiso   1.00
C20    C     0.59890   0.47440   0.16280   0.01267  Uiso   1.00
C21    C     0.48780   0.53580   0.15020   0.01267  Uiso   1.00
C22    C     0.46680   0.64010   0.22310   0.01267  Uiso   1.00
C23    C     0.73460   0.31580   0.08220   0.01267  Uiso   1.00
C24    C     0.84300   0.37410   0.04990   0.01267  Uiso   1.00
C25    C     0.79830   0.88760   0.70900   0.01267  Uiso   1.00
C26    C     0.89090   0.88950   0.79130   0.01267  Uiso   1.00
C27    C     0.94240   0.98720   0.85160   0.01267  Uiso   1.00
C28    C     0.90160   0.08030   0.82450   0.01267  Uiso   1.00
C29    C     0.80820   0.07270   0.74130   0.01267  Uiso   1.00
C30    C     0.03660   0.99340   0.94800   0.01267  Uiso   1.00
C31    C     0.03240   0.61200   0.20320   0.01267  Uiso   1.00
C32    C     0.05370   0.68870   0.31590   0.01267  Uiso   1.00
C33    C     0.16320   0.67670   0.37990   0.01267  Uiso   1.00
C34    C     0.18710   0.74970   0.48310   0.01267  Uiso   1.00
C35    C     0.09890   0.83720   0.52560   0.01267  Uiso   1.00
C36    C     0.98780   0.84980   0.46420   0.01267  Uiso   1.00
C37    C     0.96680   0.77690   0.35990   0.01267  Uiso   1.00
C38    C     0.23460   0.91780   0.68420   0.01267  Uiso   1.00
C39    C     0.34300   0.95010   0.62590   0.01267  Uiso   1.00
C40    C     0.29830   0.29100   0.11240   0.01267  Uiso   1.00
C41    C     0.39090   0.20870   0.11050   0.01267  Uiso   1.00
C42    C     0.44240   0.14840   0.01280   0.01267  Uiso   1.00
C43    C     0.40160   0.17550   0.91970   0.01267  Uiso   1.00
C44    C     0.30820   0.25870   0.92730   0.01267  Uiso   1.00
C45    C     0.53660   0.05200   0.00660   0.01267  Uiso   1.00
C46    C     0.46760   0.20320   0.61200   0.01267  Uiso   1.00
C47    C     0.44630   0.31590   0.68870   0.01267  Uiso   1.00
C48    C     0.33680   0.37990   0.67670   0.01267  Uiso   1.00
C49    C     0.31290   0.48310   0.74970   0.01267  Uiso   1.00
C50    C     0.40110   0.52560   0.83720   0.01267  Uiso   1.00
C51    C     0.51220   0.46420   0.84980   0.01267  Uiso   1.00
C52    C     0.53320   0.35990   0.77690   0.01267  Uiso   1.00
C53    C     0.26540   0.68420   0.91780   0.01267  Uiso   1.00
C54    C     0.15700   0.62590   0.95010   0.01267  Uiso   1.00
C55    C     0.20170   0.11240   0.29100   0.01267  Uiso   1.00
C56    C     0.10910   0.11050   0.20870   0.01267  Uiso   1.00
C57    C     0.05760   0.01280   0.14840   0.01267  Uiso   1.00
C58    C     0.09840   0.91970   0.17550   0.01267  Uiso   1.00
C59    C     0.19180   0.92730   0.25870   0.01267  Uiso   1.00
C60    C     0.96340   0.00660   0.05200   0.01267  Uiso   1.00
N1     N     0.74570   0.68509   0.97831   0.01267  Uiso   1.00
N2     N     0.75430   0.97831   0.68509   0.01267  Uiso   1.00
N3     N     0.25430   0.31491   0.02169   0.01267  Uiso   1.00
N4     N     0.24570   0.02169   0.31491   0.01267  Uiso   1.00
O1     O     0.90390   0.47864   0.82264   0.01267  Uiso   1.00
O2     O     0.04820   0.35637   0.86033   0.01267  Uiso   1.00
O3     O     0.88730   0.08679   0.37283   0.01267  Uiso   1.00
O4     O     0.54490   0.05796   0.33284   0.01267  Uiso   1.00
O5     O     0.68780   0.01642   0.45430   0.01267  Uiso   1.00
O6     O     0.59610   0.82264   0.47864   0.01267  Uiso   1.00
O7     O     0.45180   0.86033   0.35637   0.01267  Uiso   1.00
O8     O     0.61270   0.37283   0.08679   0.01267  Uiso   1.00
O9     O     0.95510   0.33284   0.05796   0.01267  Uiso   1.00
O10    O     0.81220   0.45430   0.01642   0.01267  Uiso   1.00
O11    O     0.09610   0.52136   0.17736   0.01267  Uiso   1.00
O12    O     0.95180   0.64363   0.13967   0.01267  Uiso   1.00
O13    O     0.11270   0.91321   0.62717   0.01267  Uiso   1.00
O14    O     0.45510   0.94204   0.66716   0.01267  Uiso   1.00
O15    O     0.31220   0.98358   0.54570   0.01267  Uiso   1.00
O16    O     0.40390   0.17736   0.52136   0.01267  Uiso   1.00
O17    O     0.54820   0.13967   0.64363   0.01267  Uiso   1.00
O18    O     0.38730   0.62717   0.91321   0.01267  Uiso   1.00
O19    O     0.04490   0.66716   0.94204   0.01267  Uiso   1.00
O20    O     0.18780   0.54570   0.98358   0.01267  Uiso   1.00
