data_PIHWAG_clean
_audit_creation_date              2014-07-02
_audit_creation_method            'Materials Studio'
_symmetry_space_group_name_H-M    'P1'
_symmetry_Int_Tables_number       1
_symmetry_cell_setting            triclinic
loop_
_symmetry_equiv_pos_as_xyz
  x,y,z
_cell_length_a                    8.2060
_cell_length_b                    14.1833
_cell_length_c                    14.1833
_cell_angle_alpha                 110.0310
_cell_angle_beta                  91.2650
_cell_angle_gamma                 88.7350
loop_
_atom_site_label
_atom_site_type_symbol
_atom_site_fract_x
_atom_site_fract_y
_atom_site_fract_z
_atom_site_U_iso_or_equiv
_atom_site_adp_type
_atom_site_occupancy
La1    La    0.00345   0.74878   0.21800   0.01267  Uiso   1.00
La2    La    0.50345   0.78200   0.25122   0.01267  Uiso   1.00
H1     H     0.49730   0.56320   0.60220   0.01267  Uiso   1.00
H2     H     0.42870   0.28180   0.40820   0.01267  Uiso   1.00
H3     H     0.27710   0.35740   0.69480   0.01267  Uiso   1.00
H4     H     0.46390   0.74290   0.95370   0.01267  Uiso   1.00
H5     H     0.52670   0.66030   0.77510   0.01267  Uiso   1.00
H6     H     0.78460   0.39560   0.21720   0.01267  Uiso   1.00
H7     H     0.62670   0.31350   0.31430   0.01267  Uiso   1.00
H8     H     0.05090   0.03950   0.57070   0.01267  Uiso   1.00
H9     H     0.13170   0.21460   0.64780   0.01267  Uiso   1.00
H10    H     0.99730   0.39780   0.43680   0.01267  Uiso   1.00
H11    H     0.92870   0.59180   0.71820   0.01267  Uiso   1.00
H12    H     0.77710   0.30520   0.64260   0.01267  Uiso   1.00
H13    H     0.96390   0.04630   0.25710   0.01267  Uiso   1.00
H14    H     0.02670   0.22490   0.33970   0.01267  Uiso   1.00
H15    H     0.28460   0.78280   0.60440   0.01267  Uiso   1.00
H16    H     0.12670   0.68570   0.68650   0.01267  Uiso   1.00
H17    H     0.55090   0.42930   0.96050   0.01267  Uiso   1.00
H18    H     0.63170   0.35220   0.78540   0.01267  Uiso   1.00
C1     C     0.38510   0.47390   0.66550   0.01267  Uiso   1.00
C2     C     0.45940   0.49700   0.58880   0.01267  Uiso   1.00
C3     C     0.48020   0.42600   0.49280   0.01267  Uiso   1.00
C4     C     0.41860   0.33020   0.47360   0.01267  Uiso   1.00
C5     C     0.34250   0.30340   0.54780   0.01267  Uiso   1.00
C6     C     0.32710   0.37510   0.64350   0.01267  Uiso   1.00
C7     C     0.36720   0.54780   0.76740   0.01267  Uiso   1.00
C8     C     0.30000   0.63240   0.94540   0.01267  Uiso   1.00
C9     C     0.41470   0.68240   0.91220   0.01267  Uiso   1.00
C10    C     0.45170   0.63490   0.81030   0.01267  Uiso   1.00
C11    C     0.22900   0.65950   0.04630   0.01267  Uiso   1.00
C12    C     0.56830   0.44890   0.41470   0.01267  Uiso   1.00
C13    C     0.71670   0.53430   0.31670   0.01267  Uiso   1.00
C14    C     0.72590   0.43130   0.27610   0.01267  Uiso   1.00
C15    C     0.63650   0.38420   0.33300   0.01267  Uiso   1.00
C16    C     0.79480   0.60770   0.27970   0.01267  Uiso   1.00
C17    C     0.27490   0.20260   0.52680   0.01267  Uiso   1.00
C18    C     0.19400   0.02420   0.45020   0.01267  Uiso   1.00
C19    C     0.12380   0.07140   0.54040   0.01267  Uiso   1.00
C20    C     0.16960   0.17190   0.58450   0.01267  Uiso   1.00
C21    C     0.15830   0.92280   0.37860   0.01267  Uiso   1.00
C22    C     0.88510   0.33450   0.52610   0.01267  Uiso   1.00
C23    C     0.95940   0.41120   0.50300   0.01267  Uiso   1.00
C24    C     0.98020   0.50720   0.57400   0.01267  Uiso   1.00
C25    C     0.91860   0.52640   0.66980   0.01267  Uiso   1.00
C26    C     0.84250   0.45220   0.69660   0.01267  Uiso   1.00
C27    C     0.82710   0.35650   0.62490   0.01267  Uiso   1.00
C28    C     0.86720   0.23260   0.45220   0.01267  Uiso   1.00
C29    C     0.80000   0.05460   0.36760   0.01267  Uiso   1.00
C30    C     0.91470   0.08780   0.31760   0.01267  Uiso   1.00
C31    C     0.95170   0.18970   0.36510   0.01267  Uiso   1.00
C32    C     0.72900   0.95370   0.34050   0.01267  Uiso   1.00
C33    C     0.06830   0.58530   0.55110   0.01267  Uiso   1.00
C34    C     0.21670   0.68330   0.46570   0.01267  Uiso   1.00
C35    C     0.22590   0.72390   0.56870   0.01267  Uiso   1.00
C36    C     0.13650   0.66700   0.61580   0.01267  Uiso   1.00
C37    C     0.29480   0.72030   0.39230   0.01267  Uiso   1.00
C38    C     0.77490   0.47320   0.79740   0.01267  Uiso   1.00
C39    C     0.69400   0.54980   0.97580   0.01267  Uiso   1.00
C40    C     0.62380   0.45960   0.92860   0.01267  Uiso   1.00
C41    C     0.66960   0.41550   0.82810   0.01267  Uiso   1.00
C42    C     0.65830   0.62140   0.07720   0.01267  Uiso   1.00
S1     S     0.23590   0.52682   0.85064   0.01267  Uiso   1.00
S2     S     0.59990   0.57177   0.42367   0.01267  Uiso   1.00
S3     S     0.32130   0.10408   0.41864   0.01267  Uiso   1.00
S4     S     0.73590   0.14936   0.47318   0.01267  Uiso   1.00
S5     S     0.09990   0.57633   0.42823   0.01267  Uiso   1.00
S6     S     0.82130   0.58136   0.89592   0.01267  Uiso   1.00
O1     O     0.29030   0.73230   0.11670   0.01267  Uiso   1.00
O2     O     0.10950   0.61230   0.05930   0.01267  Uiso   1.00
O3     O     0.90610   0.57920   0.21820   0.01267  Uiso   1.00
O4     O     0.74750   0.69960   0.31540   0.01267  Uiso   1.00
O5     O     0.05320   0.87110   0.39850   0.01267  Uiso   1.00
O6     O     0.23630   0.89120   0.29580   0.01267  Uiso   1.00
O7     O     0.79030   0.88330   0.26770   0.01267  Uiso   1.00
O8     O     0.60950   0.94070   0.38770   0.01267  Uiso   1.00
O9     O     0.40610   0.78180   0.42080   0.01267  Uiso   1.00
O10    O     0.24750   0.68460   0.30040   0.01267  Uiso   1.00
O11    O     0.55320   0.60150   0.12890   0.01267  Uiso   1.00
O12    O     0.73630   0.70420   0.10880   0.01267  Uiso   1.00
