data_image0
_cell_length_a       9.7412
_cell_length_b       13.0955
_cell_length_c       15.6922
_cell_angle_alpha    90
_cell_angle_beta     95.092
_cell_angle_gamma    90

_symmetry_space_group_name_H-M    "P 1"
_symmetry_int_tables_number       1

loop_
  _symmetry_equiv_pos_as_xyz
  'x, y, z'

loop_
  _atom_site_label
  _atom_site_occupancy
  _atom_site_fract_x
  _atom_site_fract_y
  _atom_site_fract_z
  _atom_site_thermal_displace_type
  _atom_site_B_iso_or_equiv
  _atom_site_type_symbol
  Zn1      1.0000 0.28845  0.13752  0.25016  Biso   1.000  Zn
  Zn2      1.0000 0.81071  0.02908  0.43410  Biso   1.000  Zn
  Zn3      1.0000 0.59700  0.86856  0.09005  Biso   1.000  Zn
  P1       1.0000 0.35934  0.03917  0.08559  Biso   1.000  P
  H1       1.0000 0.46020  0.11300  0.11380  Biso   1.000  H
  P2       1.0000 0.10195  0.11297  0.40618  Biso   1.000  P
  H2       1.0000 0.17070  0.19630  0.45550  Biso   1.000  H
  P3       1.0000 0.49734  0.12727  0.40727  Biso   1.000  P
  H3       1.0000 0.43670  0.06050  0.44530  Biso   1.000  H
  P4       1.0000 0.69707  0.87913  0.28634  Biso   1.000  P
  H4       1.0000 0.56230  0.90720  0.31150  Biso   1.000  H
  O1       1.0000 0.25350  0.05070  0.15029  Biso   1.000  O
  O2       1.0000 0.46070  0.10670  0.31400  Biso   1.000  O
  O3       1.0000 0.69410  0.76720  0.30460  Biso   1.000  O
  O4       1.0000 0.13040  0.11830  0.31320  Biso   1.000  O
  O5       1.0000 0.95030  0.13240  0.41590  Biso   1.000  O
  O6       1.0000 0.64870  0.11310  0.43073  Biso   1.000  O
  O7       1.0000 0.15370  0.01420  0.44791  Biso   1.000  O
  O8       1.0000 0.80900  0.93420  0.34168  Biso   1.000  O
  O9       1.0000 0.70720  0.90250  0.19354  Biso   1.000  O
  O10      1.0000 0.29980  0.07040  0.99708  Biso   1.000  O
  O11      1.0000 0.44670  0.22850  0.43570  Biso   1.000  O
  O12      1.0000 0.41780  0.93290  0.08640  Biso   1.000  O
  Zn4      1.0000 0.71155  0.63752  0.24984  Biso   1.000  Zn
  Zn5      1.0000 0.18929  0.52908  0.06590  Biso   1.000  Zn
  Zn6      1.0000 0.40300  0.36856  0.40995  Biso   1.000  Zn
  P5       1.0000 0.64066  0.53917  0.41441  Biso   1.000  P
  H5       1.0000 0.53980  0.61300  0.38620  Biso   1.000  H
  P6       1.0000 0.89805  0.61297  0.09382  Biso   1.000  P
  H6       1.0000 0.82930  0.69630  0.04450  Biso   1.000  H
  P7       1.0000 0.50266  0.62727  0.09273  Biso   1.000  P
  H7       1.0000 0.56330  0.56050  0.05470  Biso   1.000  H
  P8       1.0000 0.30293  0.37913  0.21366  Biso   1.000  P
  H8       1.0000 0.43770  0.40720  0.18850  Biso   1.000  H
  O13      1.0000 0.74650  0.55070  0.34971  Biso   1.000  O
  O14      1.0000 0.53930  0.60670  0.18600  Biso   1.000  O
  O15      1.0000 0.30590  0.26720  0.19540  Biso   1.000  O
  O16      1.0000 0.86960  0.61830  0.18680  Biso   1.000  O
  O17      1.0000 0.04970  0.63240  0.08410  Biso   1.000  O
  O18      1.0000 0.35130  0.61310  0.06927  Biso   1.000  O
  O19      1.0000 0.84630  0.51420  0.05209  Biso   1.000  O
  O20      1.0000 0.19100  0.43420  0.15832  Biso   1.000  O
  O21      1.0000 0.29280  0.40250  0.30646  Biso   1.000  O
  O22      1.0000 0.70020  0.57040  0.50292  Biso   1.000  O
  O23      1.0000 0.55330  0.72850  0.06430  Biso   1.000  O
  O24      1.0000 0.58220  0.43290  0.41360  Biso   1.000  O
  Zn7      1.0000 0.71155  0.86248  0.74984  Biso   1.000  Zn
  Zn8      1.0000 0.18929  0.97092  0.56590  Biso   1.000  Zn
  Zn9      1.0000 0.40300  0.13144  0.90995  Biso   1.000  Zn
  P9       1.0000 0.64066  0.96083  0.91441  Biso   1.000  P
  H9       1.0000 0.53980  0.88700  0.88620  Biso   1.000  H
  P10      1.0000 0.89805  0.88703  0.59382  Biso   1.000  P
  H10      1.0000 0.82930  0.80370  0.54450  Biso   1.000  H
  P11      1.0000 0.50266  0.87273  0.59273  Biso   1.000  P
  H11      1.0000 0.56330  0.93950  0.55470  Biso   1.000  H
  P12      1.0000 0.30293  0.12087  0.71366  Biso   1.000  P
  H12      1.0000 0.43770  0.09280  0.68850  Biso   1.000  H
  O25      1.0000 0.74650  0.94930  0.84971  Biso   1.000  O
  O26      1.0000 0.53930  0.89330  0.68600  Biso   1.000  O
  O27      1.0000 0.30590  0.23280  0.69540  Biso   1.000  O
  O28      1.0000 0.86960  0.88170  0.68680  Biso   1.000  O
  O29      1.0000 0.04970  0.86760  0.58410  Biso   1.000  O
  O30      1.0000 0.35130  0.88690  0.56927  Biso   1.000  O
  O31      1.0000 0.84630  0.98580  0.55209  Biso   1.000  O
  O32      1.0000 0.19100  0.06580  0.65832  Biso   1.000  O
  O33      1.0000 0.29280  0.09750  0.80646  Biso   1.000  O
  O34      1.0000 0.70020  0.92960  0.00292  Biso   1.000  O
  O35      1.0000 0.55330  0.77150  0.56430  Biso   1.000  O
  O36      1.0000 0.58220  0.06710  0.91360  Biso   1.000  O
  Zn10     1.0000 0.28845  0.36248  0.75016  Biso   1.000  Zn
  Zn11     1.0000 0.81071  0.47092  0.93410  Biso   1.000  Zn
  Zn12     1.0000 0.59700  0.63144  0.59005  Biso   1.000  Zn
  P13      1.0000 0.35934  0.46083  0.58559  Biso   1.000  P
  H13      1.0000 0.46020  0.38700  0.61380  Biso   1.000  H
  P14      1.0000 0.10195  0.38703  0.90618  Biso   1.000  P
  H14      1.0000 0.17070  0.30370  0.95550  Biso   1.000  H
  P15      1.0000 0.49734  0.37273  0.90727  Biso   1.000  P
  H15      1.0000 0.43670  0.43950  0.94530  Biso   1.000  H
  P16      1.0000 0.69707  0.62087  0.78634  Biso   1.000  P
  H16      1.0000 0.56230  0.59280  0.81150  Biso   1.000  H
  O37      1.0000 0.25350  0.44930  0.65029  Biso   1.000  O
  O38      1.0000 0.46070  0.39330  0.81400  Biso   1.000  O
  O39      1.0000 0.69410  0.73280  0.80460  Biso   1.000  O
  O40      1.0000 0.13040  0.38170  0.81320  Biso   1.000  O
  O41      1.0000 0.95030  0.36760  0.91590  Biso   1.000  O
  O42      1.0000 0.64870  0.38690  0.93073  Biso   1.000  O
  O43      1.0000 0.15370  0.48580  0.94791  Biso   1.000  O
  O44      1.0000 0.80900  0.56580  0.84168  Biso   1.000  O
  O45      1.0000 0.70720  0.59750  0.69354  Biso   1.000  O
  O46      1.0000 0.29980  0.42960  0.49708  Biso   1.000  O
  O47      1.0000 0.44670  0.27150  0.93570  Biso   1.000  O
  O48      1.0000 0.41780  0.56710  0.58640  Biso   1.000  O
