data_PIJROR_clean
_audit_creation_date              2014-07-02
_audit_creation_method            'Materials Studio'
_symmetry_space_group_name_H-M    'P1'
_symmetry_Int_Tables_number       1
_symmetry_cell_setting            triclinic
loop_
_symmetry_equiv_pos_as_xyz
  x,y,z
_cell_length_a                    8.1720
_cell_length_b                    14.1969
_cell_length_c                    14.1969
_cell_angle_alpha                 110.2410
_cell_angle_beta                  91.0476
_cell_angle_gamma                 88.9524
loop_
_atom_site_label
_atom_site_type_symbol
_atom_site_fract_x
_atom_site_fract_y
_atom_site_fract_z
_atom_site_U_iso_or_equiv
_atom_site_adp_type
_atom_site_occupancy
Ce1    Ce    0.39888   0.91447   0.05243   0.01267  Uiso   1.00
Ce2    Ce    0.89888   0.94757   0.08553   0.01267  Uiso   1.00
H1     H     0.90260   0.29930   0.86690   0.01267  Uiso   1.00
H2     H     0.97250   0.10490   0.58530   0.01267  Uiso   1.00
H3     H     0.12290   0.39140   0.66040   0.01267  Uiso   1.00
H4     H     0.94070   0.65000   0.04720   0.01267  Uiso   1.00
H5     H     0.87450   0.47180   0.96200   0.01267  Uiso   1.00
H6     H     0.61780   0.91220   0.70020   0.01267  Uiso   1.00
H7     H     0.77020   0.00850   0.61670   0.01267  Uiso   1.00
H8     H     0.35080   0.26600   0.34120   0.01267  Uiso   1.00
H9     H     0.27070   0.34410   0.51750   0.01267  Uiso   1.00
H10    H     0.40260   0.13310   0.70070   0.01267  Uiso   1.00
H11    H     0.47250   0.41470   0.89510   0.01267  Uiso   1.00
H12    H     0.62290   0.33960   0.60860   0.01267  Uiso   1.00
H13    H     0.44070   0.95280   0.35000   0.01267  Uiso   1.00
H14    H     0.37450   0.03800   0.52820   0.01267  Uiso   1.00
H15    H     0.11780   0.29980   0.08780   0.01267  Uiso   1.00
H16    H     0.27020   0.38330   0.99150   0.01267  Uiso   1.00
H17    H     0.85080   0.65880   0.73400   0.01267  Uiso   1.00
H18    H     0.77070   0.48250   0.65590   0.01267  Uiso   1.00
C1     C     0.01740   0.36180   0.77620   0.01267  Uiso   1.00
C2     C     0.94120   0.28570   0.80070   0.01267  Uiso   1.00
C3     C     0.92120   0.18990   0.72870   0.01267  Uiso   1.00
C4     C     0.98240   0.17060   0.63340   0.01267  Uiso   1.00
C5     C     0.05780   0.24380   0.60580   0.01267  Uiso   1.00
C6     C     0.07330   0.34000   0.67820   0.01267  Uiso   1.00
C7     C     0.03360   0.46420   0.85120   0.01267  Uiso   1.00
C8     C     0.10170   0.64130   0.93570   0.01267  Uiso   1.00
C9     C     0.98870   0.60880   0.98600   0.01267  Uiso   1.00
C10    C     0.95070   0.50690   0.93710   0.01267  Uiso   1.00
C11    C     0.17360   0.74450   0.96390   0.01267  Uiso   1.00
C12    C     0.83480   0.11270   0.75430   0.01267  Uiso   1.00
C13    C     0.68690   0.01310   0.83950   0.01267  Uiso   1.00
C14    C     0.67640   0.97150   0.73530   0.01267  Uiso   1.00
C15    C     0.76260   0.02750   0.68750   0.01267  Uiso   1.00
C16    C     0.60980   0.97760   0.91200   0.01267  Uiso   1.00
C17    C     0.12710   0.22290   0.50450   0.01267  Uiso   1.00
C18    C     0.20470   0.14580   0.32840   0.01267  Uiso   1.00
C19    C     0.27770   0.23650   0.37390   0.01267  Uiso   1.00
C20    C     0.23240   0.28080   0.47460   0.01267  Uiso   1.00
C21    C     0.24110   0.07490   0.22630   0.01267  Uiso   1.00
C22    C     0.51740   0.22380   0.63820   0.01267  Uiso   1.00
C23    C     0.44120   0.19930   0.71430   0.01267  Uiso   1.00
C24    C     0.42120   0.27130   0.81010   0.01267  Uiso   1.00
C25    C     0.48240   0.36660   0.82940   0.01267  Uiso   1.00
C26    C     0.55780   0.39420   0.75620   0.01267  Uiso   1.00
C27    C     0.57330   0.32180   0.66000   0.01267  Uiso   1.00
C28    C     0.53360   0.14880   0.53580   0.01267  Uiso   1.00
C29    C     0.60170   0.06430   0.35870   0.01267  Uiso   1.00
C30    C     0.48870   0.01400   0.39120   0.01267  Uiso   1.00
C31    C     0.45070   0.06290   0.49310   0.01267  Uiso   1.00
C32    C     0.67360   0.03610   0.25550   0.01267  Uiso   1.00
C33    C     0.33480   0.24570   0.88730   0.01267  Uiso   1.00
C34    C     0.18690   0.16050   0.98690   0.01267  Uiso   1.00
C35    C     0.17640   0.26470   0.02850   0.01267  Uiso   1.00
C36    C     0.26260   0.31250   0.97250   0.01267  Uiso   1.00
C37    C     0.10980   0.08800   0.02240   0.01267  Uiso   1.00
C38    C     0.62710   0.49550   0.77710   0.01267  Uiso   1.00
C39    C     0.70470   0.67160   0.85420   0.01267  Uiso   1.00
C40    C     0.77770   0.62610   0.76350   0.01267  Uiso   1.00
C41    C     0.73240   0.52540   0.71920   0.01267  Uiso   1.00
C42    C     0.74110   0.77370   0.92510   0.01267  Uiso   1.00
S1     S     0.16620   0.54799   0.82973   0.01267  Uiso   1.00
S2     S     0.80310   0.12046   0.87600   0.01267  Uiso   1.00
S3     S     0.08030   0.11470   0.40704   0.01267  Uiso   1.00
S4     S     0.66620   0.17027   0.45201   0.01267  Uiso   1.00
S5     S     0.30310   0.12400   0.87954   0.01267  Uiso   1.00
S6     S     0.58030   0.59296   0.88530   0.01267  Uiso   1.00
O1     O     0.11040   0.81460   0.03640   0.01267  Uiso   1.00
O2     O     0.29580   0.75860   0.91820   0.01267  Uiso   1.00
O3     O     0.49540   0.91580   0.88480   0.01267  Uiso   1.00
O4     O     0.65820   0.01170   0.00530   0.01267  Uiso   1.00
O5     O     0.34940   0.09480   0.17400   0.01267  Uiso   1.00
O6     O     0.16390   0.99090   0.19270   0.01267  Uiso   1.00
O7     O     0.61040   0.96360   0.18540   0.01267  Uiso   1.00
O8     O     0.79580   0.08180   0.24140   0.01267  Uiso   1.00
O9     O     0.99540   0.11520   0.08420   0.01267  Uiso   1.00
O10    O     0.15820   0.99470   0.98830   0.01267  Uiso   1.00
O11    O     0.84940   0.82600   0.90520   0.01267  Uiso   1.00
O12    O     0.66390   0.80730   0.00910   0.01267  Uiso   1.00
