data_PIKBUH_clean
_audit_creation_date              2014-07-02
_audit_creation_method            'Materials Studio'
_symmetry_space_group_name_H-M    'P1'
_symmetry_Int_Tables_number       1
_symmetry_cell_setting            triclinic
loop_
_symmetry_equiv_pos_as_xyz
  x,y,z
_cell_length_a                    7.0560
_cell_length_b                    15.0117
_cell_length_c                    23.0776
_cell_angle_alpha                 90.0000
_cell_angle_beta                  90.0000
_cell_angle_gamma                 93.4150
loop_
_atom_site_label
_atom_site_type_symbol
_atom_site_fract_x
_atom_site_fract_y
_atom_site_fract_z
_atom_site_U_iso_or_equiv
_atom_site_adp_type
_atom_site_occupancy
Rb1    Rb    0.71287   0.99319   0.43348   0.01267  Uiso   1.00
Rb2    Rb    0.61141   0.78335   0.04085   0.01267  Uiso   1.00
Rb3    Rb    0.99856   0.39292   0.12790   0.01267  Uiso   1.00
Rb4    Rb    0.78713   0.00681   0.93348   0.01267  Uiso   1.00
Rb5    Rb    0.88859   0.21665   0.54085   0.01267  Uiso   1.00
Rb6    Rb    0.50144   0.60708   0.62790   0.01267  Uiso   1.00
Rb7    Rb    0.28713   0.00681   0.56652   0.01267  Uiso   1.00
Rb8    Rb    0.38859   0.21665   0.95915   0.01267  Uiso   1.00
Rb9    Rb    0.00144   0.60708   0.87210   0.01267  Uiso   1.00
Rb10   Rb    0.21287   0.99319   0.06652   0.01267  Uiso   1.00
Rb11   Rb    0.11141   0.78335   0.45915   0.01267  Uiso   1.00
Rb12   Rb    0.49856   0.39292   0.37210   0.01267  Uiso   1.00
H1     H     0.81000   0.15000   0.35500   0.01267  Uiso   1.00
H2     H     0.64100   0.61700   0.14200   0.01267  Uiso   1.00
H3     H     0.49240   0.85120   0.28280   0.01267  Uiso   1.00
H4     H     0.73840   0.21560   0.15440   0.01267  Uiso   1.00
H5     H     0.66140   0.60810   0.33340   0.01267  Uiso   1.00
H6     H     0.99700   0.79500   0.95700   0.01267  Uiso   1.00
H7     H     0.97100   0.72600   0.99600   0.01267  Uiso   1.00
H8     H     0.60800   0.40000   0.12400   0.01267  Uiso   1.00
H9     H     0.47400   0.32900   0.12600   0.01267  Uiso   1.00
H10    H     0.75100   0.42400   0.25700   0.01267  Uiso   1.00
H11    H     0.76770   0.96060   0.27030   0.01267  Uiso   1.00
H12    H     0.51600   0.80950   0.18650   0.01267  Uiso   1.00
H13    H     0.74300   0.94710   0.16930   0.01267  Uiso   1.00
H14    H     0.69000   0.85000   0.85500   0.01267  Uiso   1.00
H15    H     0.85900   0.38300   0.64200   0.01267  Uiso   1.00
H16    H     0.00760   0.14880   0.78280   0.01267  Uiso   1.00
H17    H     0.76160   0.78440   0.65440   0.01267  Uiso   1.00
H18    H     0.83860   0.39190   0.83340   0.01267  Uiso   1.00
H19    H     0.50300   0.20500   0.45700   0.01267  Uiso   1.00
H20    H     0.52900   0.27400   0.49600   0.01267  Uiso   1.00
H21    H     0.89200   0.60000   0.62400   0.01267  Uiso   1.00
H22    H     0.02600   0.67100   0.62600   0.01267  Uiso   1.00
H23    H     0.74900   0.57600   0.75700   0.01267  Uiso   1.00
H24    H     0.73230   0.03940   0.77030   0.01267  Uiso   1.00
H25    H     0.98400   0.19050   0.68650   0.01267  Uiso   1.00
H26    H     0.75700   0.05290   0.66930   0.01267  Uiso   1.00
H27    H     0.19000   0.85000   0.64500   0.01267  Uiso   1.00
H28    H     0.35900   0.38300   0.85800   0.01267  Uiso   1.00
H29    H     0.50760   0.14880   0.71720   0.01267  Uiso   1.00
H30    H     0.26160   0.78440   0.84560   0.01267  Uiso   1.00
H31    H     0.33860   0.39190   0.66660   0.01267  Uiso   1.00
H32    H     0.00300   0.20500   0.04300   0.01267  Uiso   1.00
H33    H     0.02900   0.27400   0.00400   0.01267  Uiso   1.00
H34    H     0.39200   0.60000   0.87600   0.01267  Uiso   1.00
H35    H     0.52600   0.67100   0.87400   0.01267  Uiso   1.00
H36    H     0.24900   0.57600   0.74300   0.01267  Uiso   1.00
H37    H     0.23230   0.03940   0.72970   0.01267  Uiso   1.00
H38    H     0.48400   0.19050   0.81350   0.01267  Uiso   1.00
H39    H     0.25700   0.05290   0.83070   0.01267  Uiso   1.00
H40    H     0.31000   0.15000   0.14500   0.01267  Uiso   1.00
H41    H     0.14100   0.61700   0.35800   0.01267  Uiso   1.00
H42    H     0.99240   0.85120   0.21720   0.01267  Uiso   1.00
H43    H     0.23840   0.21560   0.34560   0.01267  Uiso   1.00
H44    H     0.16140   0.60810   0.16660   0.01267  Uiso   1.00
H45    H     0.49700   0.79500   0.54300   0.01267  Uiso   1.00
H46    H     0.47100   0.72600   0.50400   0.01267  Uiso   1.00
H47    H     0.10800   0.40000   0.37600   0.01267  Uiso   1.00
H48    H     0.97400   0.32900   0.37400   0.01267  Uiso   1.00
H49    H     0.25100   0.42400   0.24300   0.01267  Uiso   1.00
H50    H     0.26770   0.96060   0.22970   0.01267  Uiso   1.00
H51    H     0.01600   0.80950   0.31350   0.01267  Uiso   1.00
H52    H     0.24300   0.94710   0.33070   0.01267  Uiso   1.00
C1     C     0.76260   0.17400   0.23840   0.01267  Uiso   1.00
C2     C     0.64310   0.62300   0.24510   0.01267  Uiso   1.00
C3     C     0.76360   0.09640   0.27190   0.01267  Uiso   1.00
C4     C     0.60130   0.68440   0.20230   0.01267  Uiso   1.00
C5     C     0.75980   0.01220   0.24680   0.01267  Uiso   1.00
C6     C     0.54550   0.76890   0.21640   0.01267  Uiso   1.00
C7     C     0.74430   0.00440   0.18680   0.01267  Uiso   1.00
C8     C     0.53310   0.79380   0.27320   0.01267  Uiso   1.00
C9     C     0.73070   0.07910   0.15240   0.01267  Uiso   1.00
C10    C     0.58090   0.73420   0.31810   0.01267  Uiso   1.00
C11    C     0.74320   0.16410   0.17810   0.01267  Uiso   1.00
C12    C     0.63280   0.64900   0.30360   0.01267  Uiso   1.00
C13    C     0.77410   0.26400   0.26500   0.01267  Uiso   1.00
C14    C     0.70010   0.53320   0.23040   0.01267  Uiso   1.00
C15    C     0.73740   0.82600   0.73840   0.01267  Uiso   1.00
C16    C     0.85690   0.37700   0.74510   0.01267  Uiso   1.00
C17    C     0.73640   0.90360   0.77190   0.01267  Uiso   1.00
C18    C     0.89870   0.31560   0.70230   0.01267  Uiso   1.00
C19    C     0.74020   0.98780   0.74680   0.01267  Uiso   1.00
C20    C     0.95450   0.23110   0.71640   0.01267  Uiso   1.00
C21    C     0.75570   0.99560   0.68680   0.01267  Uiso   1.00
C22    C     0.96690   0.20620   0.77320   0.01267  Uiso   1.00
C23    C     0.76930   0.92090   0.65240   0.01267  Uiso   1.00
C24    C     0.91910   0.26580   0.81810   0.01267  Uiso   1.00
C25    C     0.75680   0.83590   0.67810   0.01267  Uiso   1.00
C26    C     0.86720   0.35100   0.80360   0.01267  Uiso   1.00
C27    C     0.72590   0.73600   0.76500   0.01267  Uiso   1.00
C28    C     0.79990   0.46680   0.73040   0.01267  Uiso   1.00
C29    C     0.23740   0.82600   0.76160   0.01267  Uiso   1.00
C30    C     0.35690   0.37700   0.75490   0.01267  Uiso   1.00
C31    C     0.23640   0.90360   0.72810   0.01267  Uiso   1.00
C32    C     0.39870   0.31560   0.79770   0.01267  Uiso   1.00
C33    C     0.24020   0.98780   0.75320   0.01267  Uiso   1.00
C34    C     0.45450   0.23110   0.78360   0.01267  Uiso   1.00
C35    C     0.25570   0.99560   0.81320   0.01267  Uiso   1.00
C36    C     0.46690   0.20620   0.72680   0.01267  Uiso   1.00
C37    C     0.26930   0.92090   0.84760   0.01267  Uiso   1.00
C38    C     0.41910   0.26580   0.68190   0.01267  Uiso   1.00
C39    C     0.25680   0.83590   0.82190   0.01267  Uiso   1.00
C40    C     0.36720   0.35100   0.69640   0.01267  Uiso   1.00
C41    C     0.22590   0.73600   0.73500   0.01267  Uiso   1.00
C42    C     0.29990   0.46680   0.76960   0.01267  Uiso   1.00
C43    C     0.26260   0.17400   0.26160   0.01267  Uiso   1.00
C44    C     0.14310   0.62300   0.25490   0.01267  Uiso   1.00
C45    C     0.26360   0.09640   0.22810   0.01267  Uiso   1.00
C46    C     0.10130   0.68440   0.29770   0.01267  Uiso   1.00
C47    C     0.25980   0.01220   0.25320   0.01267  Uiso   1.00
C48    C     0.04550   0.76890   0.28360   0.01267  Uiso   1.00
C49    C     0.24430   0.00440   0.31320   0.01267  Uiso   1.00
C50    C     0.03310   0.79380   0.22680   0.01267  Uiso   1.00
C51    C     0.23070   0.07910   0.34760   0.01267  Uiso   1.00
C52    C     0.08090   0.73420   0.18190   0.01267  Uiso   1.00
C53    C     0.24320   0.16410   0.32190   0.01267  Uiso   1.00
C54    C     0.13280   0.64900   0.19640   0.01267  Uiso   1.00
C55    C     0.27410   0.26400   0.23500   0.01267  Uiso   1.00
C56    C     0.20010   0.53320   0.26960   0.01267  Uiso   1.00
S1     S     0.69540   0.07060   0.07747   0.01267  Uiso   1.00
S2     S     0.58540   0.77316   0.38925   0.01267  Uiso   1.00
S3     S     0.80460   0.92940   0.57747   0.01267  Uiso   1.00
S4     S     0.91460   0.22684   0.88925   0.01267  Uiso   1.00
S5     S     0.30460   0.92940   0.92253   0.01267  Uiso   1.00
S6     S     0.41460   0.22684   0.61075   0.01267  Uiso   1.00
S7     S     0.19540   0.07060   0.42253   0.01267  Uiso   1.00
S8     S     0.08540   0.77316   0.11075   0.01267  Uiso   1.00
O1     O     0.93880   0.73960   0.95970   0.01267  Uiso   1.00
O2     O     0.77080   0.10100   0.33110   0.01267  Uiso   1.00
O3     O     0.61130   0.66440   0.14490   0.01267  Uiso   1.00
O4     O     0.56340   0.35380   0.10160   0.01267  Uiso   1.00
O5     O     0.62590   0.97930   0.06630   0.01267  Uiso   1.00
O6     O     0.44400   0.83890   0.39380   0.01267  Uiso   1.00
O7     O     0.55950   0.13550   0.06200   0.01267  Uiso   1.00
O8     O     0.77640   0.81280   0.39930   0.01267  Uiso   1.00
O9     O     0.88120   0.09040   0.05030   0.01267  Uiso   1.00
O10    O     0.54070   0.69500   0.42560   0.01267  Uiso   1.00
O11    O     0.78750   0.33060   0.23140   0.01267  Uiso   1.00
O12    O     0.72860   0.47850   0.27190   0.01267  Uiso   1.00
O13    O     0.76840   0.27000   0.31940   0.01267  Uiso   1.00
O14    O     0.71770   0.51190   0.17760   0.01267  Uiso   1.00
O15    O     0.56120   0.26040   0.45970   0.01267  Uiso   1.00
O16    O     0.72920   0.89900   0.83110   0.01267  Uiso   1.00
O17    O     0.88870   0.33560   0.64490   0.01267  Uiso   1.00
O18    O     0.93660   0.64620   0.60160   0.01267  Uiso   1.00
O19    O     0.87410   0.02070   0.56630   0.01267  Uiso   1.00
O20    O     0.05600   0.16110   0.89380   0.01267  Uiso   1.00
O21    O     0.94050   0.86450   0.56200   0.01267  Uiso   1.00
O22    O     0.72360   0.18720   0.89930   0.01267  Uiso   1.00
O23    O     0.61880   0.90960   0.55030   0.01267  Uiso   1.00
O24    O     0.95930   0.30500   0.92560   0.01267  Uiso   1.00
O25    O     0.71250   0.66940   0.73140   0.01267  Uiso   1.00
O26    O     0.77140   0.52150   0.77190   0.01267  Uiso   1.00
O27    O     0.73160   0.73000   0.81940   0.01267  Uiso   1.00
O28    O     0.78230   0.48810   0.67760   0.01267  Uiso   1.00
O29    O     0.06120   0.26040   0.04030   0.01267  Uiso   1.00
O30    O     0.22920   0.89900   0.66890   0.01267  Uiso   1.00
O31    O     0.38870   0.33560   0.85510   0.01267  Uiso   1.00
O32    O     0.43660   0.64620   0.89840   0.01267  Uiso   1.00
O33    O     0.37410   0.02070   0.93370   0.01267  Uiso   1.00
O34    O     0.55600   0.16110   0.60620   0.01267  Uiso   1.00
O35    O     0.44050   0.86450   0.93800   0.01267  Uiso   1.00
O36    O     0.22360   0.18720   0.60070   0.01267  Uiso   1.00
O37    O     0.11880   0.90960   0.94970   0.01267  Uiso   1.00
O38    O     0.45930   0.30500   0.57440   0.01267  Uiso   1.00
O39    O     0.21250   0.66940   0.76860   0.01267  Uiso   1.00
O40    O     0.27140   0.52150   0.72810   0.01267  Uiso   1.00
O41    O     0.23160   0.73000   0.68060   0.01267  Uiso   1.00
O42    O     0.28230   0.48810   0.82240   0.01267  Uiso   1.00
O43    O     0.43880   0.73960   0.54030   0.01267  Uiso   1.00
O44    O     0.27080   0.10100   0.16890   0.01267  Uiso   1.00
O45    O     0.11130   0.66440   0.35510   0.01267  Uiso   1.00
O46    O     0.06340   0.35380   0.39840   0.01267  Uiso   1.00
O47    O     0.12590   0.97930   0.43370   0.01267  Uiso   1.00
O48    O     0.94400   0.83890   0.10620   0.01267  Uiso   1.00
O49    O     0.05950   0.13550   0.43800   0.01267  Uiso   1.00
O50    O     0.27640   0.81280   0.10070   0.01267  Uiso   1.00
O51    O     0.38120   0.09040   0.44970   0.01267  Uiso   1.00
O52    O     0.04070   0.69500   0.07440   0.01267  Uiso   1.00
O53    O     0.28750   0.33060   0.26860   0.01267  Uiso   1.00
O54    O     0.22860   0.47850   0.22810   0.01267  Uiso   1.00
O55    O     0.26840   0.27000   0.18060   0.01267  Uiso   1.00
O56    O     0.21770   0.51190   0.32240   0.01267  Uiso   1.00
