data_image0
_cell_length_a       35.7507
_cell_length_b       16.3257
_cell_length_c       13.1559
_cell_angle_alpha    90
_cell_angle_beta     90
_cell_angle_gamma    90

_symmetry_space_group_name_H-M    "P 1"
_symmetry_int_tables_number       1

loop_
  _symmetry_equiv_pos_as_xyz
  'x, y, z'

loop_
  _atom_site_label
  _atom_site_occupancy
  _atom_site_fract_x
  _atom_site_fract_y
  _atom_site_fract_z
  _atom_site_thermal_displace_type
  _atom_site_B_iso_or_equiv
  _atom_site_type_symbol
  C1       1.0000 0.74950  0.32540  0.87970  Biso   1.000  C
  C2       1.0000 0.78992  0.22960  0.79530  Biso   1.000  C
  H1       1.0000 0.79600  0.19950  0.73750  Biso   1.000  H
  C3       1.0000 0.65139  0.43210  0.13510  Biso   1.000  C
  C4       1.0000 0.81285  0.22400  0.88270  Biso   1.000  C
  O1       1.0000 0.61169  0.73600  0.27940  Biso   1.000  O
  H2       1.0000 0.60280  0.74890  0.22420  Biso   1.000  H
  C5       1.0000 0.80192  0.26610  0.96870  Biso   1.000  C
  H3       1.0000 0.81570  0.26030  0.02820  Biso   1.000  H
  O2       1.0000 0.53534  0.55220  0.48720  Biso   1.000  O
  C6       1.0000 0.84810  0.17500  0.87840  Biso   1.000  C
  C7       1.0000 0.66714  0.45790  0.65320  Biso   1.000  C
  H4       1.0000 0.64360  0.45250  0.62370  Biso   1.000  H
  C8       1.0000 0.65845  0.65450  0.35450  Biso   1.000  C
  C9       1.0000 0.85493  0.11850  0.80140  Biso   1.000  C
  H5       1.0000 0.83680  0.10960  0.75180  Biso   1.000  H
  C10      1.0000 0.58093  0.47640  0.39120  Biso   1.000  C
  C11      1.0000 0.91497  0.08570  0.86970  Biso   1.000  C
  C12      1.0000 0.71089  0.42040  0.78310  Biso   1.000  C
  C13      1.0000 0.68245  0.55880  0.51890  Biso   1.000  C
  O3       1.0000 0.66271  0.70770  0.18620  Biso   1.000  O
  C14      1.0000 0.75862  0.27910  0.79450  Biso   1.000  C
  H6       1.0000 0.74360  0.28150  0.73690  Biso   1.000  H
  C15      1.0000 0.68595  0.33440  0.02980  Biso   1.000  C
  H7       1.0000 0.69390  0.28090  0.01850  Biso   1.000  H
  C16      1.0000 0.69397  0.62090  0.35420  Biso   1.000  C
  H8       1.0000 0.70990  0.62940  0.29930  Biso   1.000  H
  C17      1.0000 0.69658  0.39590  0.96290  Biso   1.000  C
  C18      1.0000 0.60979  0.41920  0.39640  Biso   1.000  C
  H9       1.0000 0.61360  0.38980  0.45610  Biso   1.000  H
  C19      1.0000 0.77073  0.31690  0.96820  Biso   1.000  C
  H10      1.0000 0.76400  0.34520  0.02680  Biso   1.000  H
  C20      1.0000 0.72964  0.50900  0.64560  Biso   1.000  C
  H11      1.0000 0.74820  0.53850  0.61240  Biso   1.000  H
  C21      1.0000 0.88822  0.07540  0.79740  Biso   1.000  C
  H12      1.0000 0.89240  0.03880  0.74440  Biso   1.000  H
  C22      1.0000 0.64689  0.59610  0.51880  Biso   1.000  C
  H13      1.0000 0.63090  0.58900  0.57380  Biso   1.000  H
  C23      1.0000 0.64523  0.70100  0.26530  Biso   1.000  C
  C24      1.0000 0.70573  0.57450  0.43650  Biso   1.000  C
  H14      1.0000 0.72990  0.55320  0.43660  Biso   1.000  H
  C25      1.0000 0.66352  0.35190  0.11360  Biso   1.000  C
  H15      1.0000 0.65640  0.30940  0.15650  Biso   1.000  H
  N1       1.0000 0.71864  0.37920  0.87730  Biso   1.000  N
  C26      1.0000 0.67506  0.41570  0.74190  Biso   1.000  C
  H16      1.0000 0.65670  0.38460  0.77360  Biso   1.000  H
  C27      1.0000 0.63572  0.64340  0.43690  Biso   1.000  C
  H17      1.0000 0.61230  0.66820  0.43790  Biso   1.000  H
  C28      1.0000 0.73840  0.46610  0.73360  Biso   1.000  C
  H18      1.0000 0.76260  0.46790  0.75960  Biso   1.000  H
  C29      1.0000 0.62729  0.44850  0.22390  Biso   1.000  C
  C30      1.0000 0.68465  0.47660  0.98170  Biso   1.000  C
  H19      1.0000 0.69190  0.51860  0.93820  Biso   1.000  H
  C31      1.0000 0.87535  0.18470  0.95370  Biso   1.000  C
  H20      1.0000 0.87150  0.22130  0.00690  Biso   1.000  H
  C32      1.0000 0.63277  0.40600  0.31330  Biso   1.000  C
  H21      1.0000 0.65210  0.36800  0.31780  Biso   1.000  H
  O4       1.0000 0.95678  0.99490  0.78330  Biso   1.000  O
  C33      1.0000 0.90829  0.13920  0.94860  Biso   1.000  C
  H22      1.0000 0.92610  0.14510  0.99950  Biso   1.000  H
  C34      1.0000 0.69377  0.50840  0.60670  Biso   1.000  C
  C35      1.0000 0.57562  0.52040  0.30270  Biso   1.000  C
  H23      1.0000 0.55670  0.55940  0.29910  Biso   1.000  H
  O5       1.0000 0.97177  0.04320  0.93980  Biso   1.000  O
  C36      1.0000 0.59870  0.50630  0.21760  Biso   1.000  C
  H24      1.0000 0.59490  0.53540  0.15770  Biso   1.000  H
  C37      1.0000 0.94995  0.03820  0.86160  Biso   1.000  C
  C38      1.0000 0.66180  0.49390  0.06590  Biso   1.000  C
  H25      1.0000 0.65350  0.54720  0.07630  Biso   1.000  H
  O6       1.0000 0.55653  0.44020  0.55560  Biso   1.000  O
  C39      1.0000 0.55600  0.49090  0.48140  Biso   1.000  C
  C40      1.0000 0.25050  0.67460  0.87970  Biso   1.000  C
  C41      1.0000 0.21008  0.77040  0.79530  Biso   1.000  C
  H26      1.0000 0.20400  0.80050  0.73750  Biso   1.000  H
  C42      1.0000 0.34861  0.56790  0.13510  Biso   1.000  C
  C43      1.0000 0.18715  0.77600  0.88270  Biso   1.000  C
  O7       1.0000 0.38831  0.26400  0.27940  Biso   1.000  O
  H27      1.0000 0.39720  0.25110  0.22420  Biso   1.000  H
  C44      1.0000 0.19808  0.73390  0.96870  Biso   1.000  C
  H28      1.0000 0.18430  0.73970  0.02820  Biso   1.000  H
  O8       1.0000 0.46466  0.44780  0.48720  Biso   1.000  O
  C45      1.0000 0.15190  0.82500  0.87840  Biso   1.000  C
  C46      1.0000 0.33286  0.54210  0.65320  Biso   1.000  C
  H29      1.0000 0.35640  0.54750  0.62370  Biso   1.000  H
  C47      1.0000 0.34155  0.34550  0.35450  Biso   1.000  C
  C48      1.0000 0.14507  0.88150  0.80140  Biso   1.000  C
  H30      1.0000 0.16320  0.89040  0.75180  Biso   1.000  H
  C49      1.0000 0.41907  0.52360  0.39120  Biso   1.000  C
  C50      1.0000 0.08503  0.91430  0.86970  Biso   1.000  C
  C51      1.0000 0.28911  0.57960  0.78310  Biso   1.000  C
  C52      1.0000 0.31755  0.44120  0.51890  Biso   1.000  C
  O9       1.0000 0.33729  0.29230  0.18620  Biso   1.000  O
  C53      1.0000 0.24138  0.72090  0.79450  Biso   1.000  C
  H31      1.0000 0.25640  0.71850  0.73690  Biso   1.000  H
  C54      1.0000 0.31405  0.66560  0.02980  Biso   1.000  C
  H32      1.0000 0.30610  0.71910  0.01850  Biso   1.000  H
  C55      1.0000 0.30603  0.37910  0.35420  Biso   1.000  C
  H33      1.0000 0.29010  0.37060  0.29930  Biso   1.000  H
  C56      1.0000 0.30342  0.60410  0.96290  Biso   1.000  C
  C57      1.0000 0.39021  0.58080  0.39640  Biso   1.000  C
  H34      1.0000 0.38640  0.61020  0.45610  Biso   1.000  H
  C58      1.0000 0.22927  0.68310  0.96820  Biso   1.000  C
  H35      1.0000 0.23600  0.65480  0.02680  Biso   1.000  H
  C59      1.0000 0.27036  0.49100  0.64560  Biso   1.000  C
  H36      1.0000 0.25180  0.46150  0.61240  Biso   1.000  H
  C60      1.0000 0.11178  0.92460  0.79740  Biso   1.000  C
  H37      1.0000 0.10760  0.96120  0.74440  Biso   1.000  H
  C61      1.0000 0.35311  0.40390  0.51880  Biso   1.000  C
  H38      1.0000 0.36910  0.41100  0.57380  Biso   1.000  H
  C62      1.0000 0.35477  0.29900  0.26530  Biso   1.000  C
  C63      1.0000 0.29427  0.42550  0.43650  Biso   1.000  C
  H39      1.0000 0.27010  0.44680  0.43660  Biso   1.000  H
  C64      1.0000 0.33648  0.64810  0.11360  Biso   1.000  C
  H40      1.0000 0.34360  0.69060  0.15650  Biso   1.000  H
  N2       1.0000 0.28136  0.62080  0.87730  Biso   1.000  N
  C65      1.0000 0.32494  0.58430  0.74190  Biso   1.000  C
  H41      1.0000 0.34330  0.61540  0.77360  Biso   1.000  H
  C66      1.0000 0.36428  0.35660  0.43690  Biso   1.000  C
  H42      1.0000 0.38770  0.33180  0.43790  Biso   1.000  H
  C67      1.0000 0.26160  0.53390  0.73360  Biso   1.000  C
  H43      1.0000 0.23740  0.53210  0.75960  Biso   1.000  H
  C68      1.0000 0.37271  0.55150  0.22390  Biso   1.000  C
  C69      1.0000 0.31535  0.52340  0.98170  Biso   1.000  C
  H44      1.0000 0.30810  0.48140  0.93820  Biso   1.000  H
  C70      1.0000 0.12465  0.81530  0.95370  Biso   1.000  C
  H45      1.0000 0.12850  0.77870  0.00690  Biso   1.000  H
  C71      1.0000 0.36723  0.59400  0.31330  Biso   1.000  C
  H46      1.0000 0.34790  0.63200  0.31780  Biso   1.000  H
  O10      1.0000 0.04322  0.00510  0.78330  Biso   1.000  O
  C72      1.0000 0.09171  0.86080  0.94860  Biso   1.000  C
  H47      1.0000 0.07390  0.85490  0.99950  Biso   1.000  H
  C73      1.0000 0.30623  0.49160  0.60670  Biso   1.000  C
  C74      1.0000 0.42438  0.47960  0.30270  Biso   1.000  C
  H48      1.0000 0.44330  0.44060  0.29910  Biso   1.000  H
  O11      1.0000 0.02823  0.95680  0.93980  Biso   1.000  O
  C75      1.0000 0.40130  0.49370  0.21760  Biso   1.000  C
  H49      1.0000 0.40510  0.46460  0.15770  Biso   1.000  H
  C76      1.0000 0.05005  0.96180  0.86160  Biso   1.000  C
  C77      1.0000 0.33820  0.50610  0.06590  Biso   1.000  C
  H50      1.0000 0.34650  0.45280  0.07630  Biso   1.000  H
  O12      1.0000 0.44347  0.55980  0.55560  Biso   1.000  O
  C78      1.0000 0.44400  0.50910  0.48140  Biso   1.000  C
  C79      1.0000 0.24950  0.17460  0.87970  Biso   1.000  C
  C80      1.0000 0.28992  0.27040  0.79530  Biso   1.000  C
  H51      1.0000 0.29600  0.30050  0.73750  Biso   1.000  H
  C81      1.0000 0.15139  0.06790  0.13510  Biso   1.000  C
  C82      1.0000 0.31285  0.27600  0.88270  Biso   1.000  C
  O13      1.0000 0.11169  0.76400  0.27940  Biso   1.000  O
  H52      1.0000 0.10280  0.75110  0.22420  Biso   1.000  H
  C83      1.0000 0.30192  0.23390  0.96870  Biso   1.000  C
  H53      1.0000 0.31570  0.23970  0.02820  Biso   1.000  H
  O14      1.0000 0.03534  0.94780  0.48720  Biso   1.000  O
  C84      1.0000 0.34810  0.32500  0.87840  Biso   1.000  C
  C85      1.0000 0.16714  0.04210  0.65320  Biso   1.000  C
  H54      1.0000 0.14360  0.04750  0.62370  Biso   1.000  H
  C86      1.0000 0.15845  0.84550  0.35450  Biso   1.000  C
  C87      1.0000 0.35493  0.38150  0.80140  Biso   1.000  C
  H55      1.0000 0.33680  0.39040  0.75180  Biso   1.000  H
  C88      1.0000 0.08093  0.02360  0.39120  Biso   1.000  C
  C89      1.0000 0.41497  0.41430  0.86970  Biso   1.000  C
  C90      1.0000 0.21089  0.07960  0.78310  Biso   1.000  C
  C91      1.0000 0.18245  0.94120  0.51890  Biso   1.000  C
  O15      1.0000 0.16271  0.79230  0.18620  Biso   1.000  O
  C92      1.0000 0.25862  0.22090  0.79450  Biso   1.000  C
  H56      1.0000 0.24360  0.21850  0.73690  Biso   1.000  H
  C93      1.0000 0.18595  0.16560  0.02980  Biso   1.000  C
  H57      1.0000 0.19390  0.21910  0.01850  Biso   1.000  H
  C94      1.0000 0.19397  0.87910  0.35420  Biso   1.000  C
  H58      1.0000 0.20990  0.87060  0.29930  Biso   1.000  H
  C95      1.0000 0.19658  0.10410  0.96290  Biso   1.000  C
  C96      1.0000 0.10979  0.08080  0.39640  Biso   1.000  C
  H59      1.0000 0.11360  0.11020  0.45610  Biso   1.000  H
  C97      1.0000 0.27073  0.18310  0.96820  Biso   1.000  C
  H60      1.0000 0.26400  0.15480  0.02680  Biso   1.000  H
  C98      1.0000 0.22964  0.99100  0.64560  Biso   1.000  C
  H61      1.0000 0.24820  0.96150  0.61240  Biso   1.000  H
  C99      1.0000 0.38822  0.42460  0.79740  Biso   1.000  C
  H62      1.0000 0.39240  0.46120  0.74440  Biso   1.000  H
  C100     1.0000 0.14689  0.90390  0.51880  Biso   1.000  C
  H63      1.0000 0.13090  0.91100  0.57380  Biso   1.000  H
  C101     1.0000 0.14523  0.79900  0.26530  Biso   1.000  C
  C102     1.0000 0.20573  0.92550  0.43650  Biso   1.000  C
  H64      1.0000 0.22990  0.94680  0.43660  Biso   1.000  H
  C103     1.0000 0.16352  0.14810  0.11360  Biso   1.000  C
  H65      1.0000 0.15640  0.19060  0.15650  Biso   1.000  H
  N3       1.0000 0.21864  0.12080  0.87730  Biso   1.000  N
  C104     1.0000 0.17506  0.08430  0.74190  Biso   1.000  C
  H66      1.0000 0.15670  0.11540  0.77360  Biso   1.000  H
  C105     1.0000 0.13572  0.85660  0.43690  Biso   1.000  C
  H67      1.0000 0.11230  0.83180  0.43790  Biso   1.000  H
  C106     1.0000 0.23840  0.03390  0.73360  Biso   1.000  C
  H68      1.0000 0.26260  0.03210  0.75960  Biso   1.000  H
  C107     1.0000 0.12729  0.05150  0.22390  Biso   1.000  C
  C108     1.0000 0.18465  0.02340  0.98170  Biso   1.000  C
  H69      1.0000 0.19190  0.98140  0.93820  Biso   1.000  H
  C109     1.0000 0.37535  0.31530  0.95370  Biso   1.000  C
  H70      1.0000 0.37150  0.27870  0.00690  Biso   1.000  H
  C110     1.0000 0.13277  0.09400  0.31330  Biso   1.000  C
  H71      1.0000 0.15210  0.13200  0.31780  Biso   1.000  H
  O16      1.0000 0.45678  0.50510  0.78330  Biso   1.000  O
  C111     1.0000 0.40829  0.36080  0.94860  Biso   1.000  C
  H72      1.0000 0.42610  0.35490  0.99950  Biso   1.000  H
  C112     1.0000 0.19377  0.99160  0.60670  Biso   1.000  C
  C113     1.0000 0.07562  0.97960  0.30270  Biso   1.000  C
  H73      1.0000 0.05670  0.94060  0.29910  Biso   1.000  H
  O17      1.0000 0.47177  0.45680  0.93980  Biso   1.000  O
  C114     1.0000 0.09870  0.99370  0.21760  Biso   1.000  C
  H74      1.0000 0.09490  0.96460  0.15770  Biso   1.000  H
  C115     1.0000 0.44995  0.46180  0.86160  Biso   1.000  C
  C116     1.0000 0.16180  0.00610  0.06590  Biso   1.000  C
  H75      1.0000 0.15350  0.95280  0.07630  Biso   1.000  H
  O18      1.0000 0.05653  0.05980  0.55560  Biso   1.000  O
  C117     1.0000 0.05600  0.00910  0.48140  Biso   1.000  C
  C118     1.0000 0.75050  0.82540  0.87970  Biso   1.000  C
  C119     1.0000 0.71008  0.72960  0.79530  Biso   1.000  C
  H76      1.0000 0.70400  0.69950  0.73750  Biso   1.000  H
  C120     1.0000 0.84861  0.93210  0.13510  Biso   1.000  C
  C121     1.0000 0.68715  0.72400  0.88270  Biso   1.000  C
  O19      1.0000 0.88831  0.23600  0.27940  Biso   1.000  O
  H77      1.0000 0.89720  0.24890  0.22420  Biso   1.000  H
  C122     1.0000 0.69808  0.76610  0.96870  Biso   1.000  C
  H78      1.0000 0.68430  0.76030  0.02820  Biso   1.000  H
  O20      1.0000 0.96466  0.05220  0.48720  Biso   1.000  O
  C123     1.0000 0.65190  0.67500  0.87840  Biso   1.000  C
  C124     1.0000 0.83286  0.95790  0.65320  Biso   1.000  C
  H79      1.0000 0.85640  0.95250  0.62370  Biso   1.000  H
  C125     1.0000 0.84155  0.15450  0.35450  Biso   1.000  C
  C126     1.0000 0.64507  0.61850  0.80140  Biso   1.000  C
  H80      1.0000 0.66320  0.60960  0.75180  Biso   1.000  H
  C127     1.0000 0.91907  0.97640  0.39120  Biso   1.000  C
  C128     1.0000 0.58503  0.58570  0.86970  Biso   1.000  C
  C129     1.0000 0.78911  0.92040  0.78310  Biso   1.000  C
  C130     1.0000 0.81755  0.05880  0.51890  Biso   1.000  C
  O21      1.0000 0.83729  0.20770  0.18620  Biso   1.000  O
  C131     1.0000 0.74138  0.77910  0.79450  Biso   1.000  C
  H81      1.0000 0.75640  0.78150  0.73690  Biso   1.000  H
  C132     1.0000 0.81405  0.83440  0.02980  Biso   1.000  C
  H82      1.0000 0.80610  0.78090  0.01850  Biso   1.000  H
  C133     1.0000 0.80603  0.12090  0.35420  Biso   1.000  C
  H83      1.0000 0.79010  0.12940  0.29930  Biso   1.000  H
  C134     1.0000 0.80342  0.89590  0.96290  Biso   1.000  C
  C135     1.0000 0.89021  0.91920  0.39640  Biso   1.000  C
  H84      1.0000 0.88640  0.88980  0.45610  Biso   1.000  H
  C136     1.0000 0.72927  0.81690  0.96820  Biso   1.000  C
  H85      1.0000 0.73600  0.84520  0.02680  Biso   1.000  H
  C137     1.0000 0.77036  0.00900  0.64560  Biso   1.000  C
  H86      1.0000 0.75180  0.03850  0.61240  Biso   1.000  H
  C138     1.0000 0.61178  0.57540  0.79740  Biso   1.000  C
  H87      1.0000 0.60760  0.53880  0.74440  Biso   1.000  H
  C139     1.0000 0.85311  0.09610  0.51880  Biso   1.000  C
  H88      1.0000 0.86910  0.08900  0.57380  Biso   1.000  H
  C140     1.0000 0.85477  0.20100  0.26530  Biso   1.000  C
  C141     1.0000 0.79427  0.07450  0.43650  Biso   1.000  C
  H89      1.0000 0.77010  0.05320  0.43660  Biso   1.000  H
  C142     1.0000 0.83648  0.85190  0.11360  Biso   1.000  C
  H90      1.0000 0.84360  0.80940  0.15650  Biso   1.000  H
  N4       1.0000 0.78136  0.87920  0.87730  Biso   1.000  N
  C143     1.0000 0.82494  0.91570  0.74190  Biso   1.000  C
  H91      1.0000 0.84330  0.88460  0.77360  Biso   1.000  H
  C144     1.0000 0.86428  0.14340  0.43690  Biso   1.000  C
  H92      1.0000 0.88770  0.16820  0.43790  Biso   1.000  H
  C145     1.0000 0.76160  0.96610  0.73360  Biso   1.000  C
  H93      1.0000 0.73740  0.96790  0.75960  Biso   1.000  H
  C146     1.0000 0.87271  0.94850  0.22390  Biso   1.000  C
  C147     1.0000 0.81535  0.97660  0.98170  Biso   1.000  C
  H94      1.0000 0.80810  0.01860  0.93820  Biso   1.000  H
  C148     1.0000 0.62465  0.68470  0.95370  Biso   1.000  C
  H95      1.0000 0.62850  0.72130  0.00690  Biso   1.000  H
  C149     1.0000 0.86723  0.90600  0.31330  Biso   1.000  C
  H96      1.0000 0.84790  0.86800  0.31780  Biso   1.000  H
  O22      1.0000 0.54322  0.49490  0.78330  Biso   1.000  O
  C150     1.0000 0.59171  0.63920  0.94860  Biso   1.000  C
  H97      1.0000 0.57390  0.64510  0.99950  Biso   1.000  H
  C151     1.0000 0.80623  0.00840  0.60670  Biso   1.000  C
  C152     1.0000 0.92438  0.02040  0.30270  Biso   1.000  C
  H98      1.0000 0.94330  0.05940  0.29910  Biso   1.000  H
  O23      1.0000 0.52823  0.54320  0.93980  Biso   1.000  O
  C153     1.0000 0.90130  0.00630  0.21760  Biso   1.000  C
  H99      1.0000 0.90510  0.03540  0.15770  Biso   1.000  H
  C154     1.0000 0.55005  0.53820  0.86160  Biso   1.000  C
  C155     1.0000 0.83820  0.99390  0.06590  Biso   1.000  C
  H100     1.0000 0.84650  0.04720  0.07630  Biso   1.000  H
  O24      1.0000 0.94347  0.94020  0.55560  Biso   1.000  O
  C156     1.0000 0.94400  0.99090  0.48140  Biso   1.000  C
  Ce1      1.0000 0.00000  0.00000  0.64079  Biso   1.000  Ce
  Ce2      1.0000 0.50000  0.50000  0.64079  Biso   1.000  Ce
  C157     1.0000 0.74950  0.82540  0.37970  Biso   1.000  C
  C158     1.0000 0.78992  0.72960  0.29530  Biso   1.000  C
  H101     1.0000 0.79600  0.69950  0.23750  Biso   1.000  H
  C159     1.0000 0.65139  0.93210  0.63510  Biso   1.000  C
  C160     1.0000 0.81285  0.72400  0.38270  Biso   1.000  C
  O25      1.0000 0.61169  0.23600  0.77940  Biso   1.000  O
  H102     1.0000 0.60280  0.24890  0.72420  Biso   1.000  H
  C161     1.0000 0.80192  0.76610  0.46870  Biso   1.000  C
  H103     1.0000 0.81570  0.76030  0.52820  Biso   1.000  H
  O26      1.0000 0.53534  0.05220  0.98720  Biso   1.000  O
  C162     1.0000 0.84810  0.67500  0.37840  Biso   1.000  C
  C163     1.0000 0.66714  0.95790  0.15320  Biso   1.000  C
  H104     1.0000 0.64360  0.95250  0.12370  Biso   1.000  H
  C164     1.0000 0.65845  0.15450  0.85450  Biso   1.000  C
  C165     1.0000 0.85493  0.61850  0.30140  Biso   1.000  C
  H105     1.0000 0.83680  0.60960  0.25180  Biso   1.000  H
  C166     1.0000 0.58093  0.97640  0.89120  Biso   1.000  C
  C167     1.0000 0.91497  0.58570  0.36970  Biso   1.000  C
  C168     1.0000 0.71089  0.92040  0.28310  Biso   1.000  C
  C169     1.0000 0.68245  0.05880  0.01890  Biso   1.000  C
  O27      1.0000 0.66271  0.20770  0.68620  Biso   1.000  O
  C170     1.0000 0.75862  0.77910  0.29450  Biso   1.000  C
  H106     1.0000 0.74360  0.78150  0.23690  Biso   1.000  H
  C171     1.0000 0.68595  0.83440  0.52980  Biso   1.000  C
  H107     1.0000 0.69390  0.78090  0.51850  Biso   1.000  H
  C172     1.0000 0.69397  0.12090  0.85420  Biso   1.000  C
  H108     1.0000 0.70990  0.12940  0.79930  Biso   1.000  H
  C173     1.0000 0.69658  0.89590  0.46290  Biso   1.000  C
  C174     1.0000 0.60979  0.91920  0.89640  Biso   1.000  C
  H109     1.0000 0.61360  0.88980  0.95610  Biso   1.000  H
  C175     1.0000 0.77073  0.81690  0.46820  Biso   1.000  C
  H110     1.0000 0.76400  0.84520  0.52680  Biso   1.000  H
  C176     1.0000 0.72964  0.00900  0.14560  Biso   1.000  C
  H111     1.0000 0.74820  0.03850  0.11240  Biso   1.000  H
  C177     1.0000 0.88822  0.57540  0.29740  Biso   1.000  C
  H112     1.0000 0.89240  0.53880  0.24440  Biso   1.000  H
  C178     1.0000 0.64689  0.09610  0.01880  Biso   1.000  C
  H113     1.0000 0.63090  0.08900  0.07380  Biso   1.000  H
  C179     1.0000 0.64523  0.20100  0.76530  Biso   1.000  C
  C180     1.0000 0.70573  0.07450  0.93650  Biso   1.000  C
  H114     1.0000 0.72990  0.05320  0.93660  Biso   1.000  H
  C181     1.0000 0.66352  0.85190  0.61360  Biso   1.000  C
  H115     1.0000 0.65640  0.80940  0.65650  Biso   1.000  H
  N5       1.0000 0.71864  0.87920  0.37730  Biso   1.000  N
  C182     1.0000 0.67506  0.91570  0.24190  Biso   1.000  C
  H116     1.0000 0.65670  0.88460  0.27360  Biso   1.000  H
  C183     1.0000 0.63572  0.14340  0.93690  Biso   1.000  C
  H117     1.0000 0.61230  0.16820  0.93790  Biso   1.000  H
  C184     1.0000 0.73840  0.96610  0.23360  Biso   1.000  C
  H118     1.0000 0.76260  0.96790  0.25960  Biso   1.000  H
  C185     1.0000 0.62729  0.94850  0.72390  Biso   1.000  C
  C186     1.0000 0.68465  0.97660  0.48170  Biso   1.000  C
  H119     1.0000 0.69190  0.01860  0.43820  Biso   1.000  H
  C187     1.0000 0.87535  0.68470  0.45370  Biso   1.000  C
  H120     1.0000 0.87150  0.72130  0.50690  Biso   1.000  H
  C188     1.0000 0.63277  0.90600  0.81330  Biso   1.000  C
  H121     1.0000 0.65210  0.86800  0.81780  Biso   1.000  H
  O28      1.0000 0.95678  0.49490  0.28330  Biso   1.000  O
  C189     1.0000 0.90829  0.63920  0.44860  Biso   1.000  C
  H122     1.0000 0.92610  0.64510  0.49950  Biso   1.000  H
  C190     1.0000 0.69377  0.00840  0.10670  Biso   1.000  C
  C191     1.0000 0.57562  0.02040  0.80270  Biso   1.000  C
  H123     1.0000 0.55670  0.05940  0.79910  Biso   1.000  H
  O29      1.0000 0.97177  0.54320  0.43980  Biso   1.000  O
  C192     1.0000 0.59870  0.00630  0.71760  Biso   1.000  C
  H124     1.0000 0.59490  0.03540  0.65770  Biso   1.000  H
  C193     1.0000 0.94995  0.53820  0.36160  Biso   1.000  C
  C194     1.0000 0.66180  0.99390  0.56590  Biso   1.000  C
  H125     1.0000 0.65350  0.04720  0.57630  Biso   1.000  H
  O30      1.0000 0.55653  0.94020  0.05560  Biso   1.000  O
  C195     1.0000 0.55600  0.99090  0.98140  Biso   1.000  C
  C196     1.0000 0.25050  0.17460  0.37970  Biso   1.000  C
  C197     1.0000 0.21008  0.27040  0.29530  Biso   1.000  C
  H126     1.0000 0.20400  0.30050  0.23750  Biso   1.000  H
  C198     1.0000 0.34861  0.06790  0.63510  Biso   1.000  C
  C199     1.0000 0.18715  0.27600  0.38270  Biso   1.000  C
  O31      1.0000 0.38831  0.76400  0.77940  Biso   1.000  O
  H127     1.0000 0.39720  0.75110  0.72420  Biso   1.000  H
  C200     1.0000 0.19808  0.23390  0.46870  Biso   1.000  C
  H128     1.0000 0.18430  0.23970  0.52820  Biso   1.000  H
  O32      1.0000 0.46466  0.94780  0.98720  Biso   1.000  O
  C201     1.0000 0.15190  0.32500  0.37840  Biso   1.000  C
  C202     1.0000 0.33286  0.04210  0.15320  Biso   1.000  C
  H129     1.0000 0.35640  0.04750  0.12370  Biso   1.000  H
  C203     1.0000 0.34155  0.84550  0.85450  Biso   1.000  C
  C204     1.0000 0.14507  0.38150  0.30140  Biso   1.000  C
  H130     1.0000 0.16320  0.39040  0.25180  Biso   1.000  H
  C205     1.0000 0.41907  0.02360  0.89120  Biso   1.000  C
  C206     1.0000 0.08503  0.41430  0.36970  Biso   1.000  C
  C207     1.0000 0.28911  0.07960  0.28310  Biso   1.000  C
  C208     1.0000 0.31755  0.94120  0.01890  Biso   1.000  C
  O33      1.0000 0.33729  0.79230  0.68620  Biso   1.000  O
  C209     1.0000 0.24138  0.22090  0.29450  Biso   1.000  C
  H131     1.0000 0.25640  0.21850  0.23690  Biso   1.000  H
  C210     1.0000 0.31405  0.16560  0.52980  Biso   1.000  C
  H132     1.0000 0.30610  0.21910  0.51850  Biso   1.000  H
  C211     1.0000 0.30603  0.87910  0.85420  Biso   1.000  C
  H133     1.0000 0.29010  0.87060  0.79930  Biso   1.000  H
  C212     1.0000 0.30342  0.10410  0.46290  Biso   1.000  C
  C213     1.0000 0.39021  0.08080  0.89640  Biso   1.000  C
  H134     1.0000 0.38640  0.11020  0.95610  Biso   1.000  H
  C214     1.0000 0.22927  0.18310  0.46820  Biso   1.000  C
  H135     1.0000 0.23600  0.15480  0.52680  Biso   1.000  H
  C215     1.0000 0.27036  0.99100  0.14560  Biso   1.000  C
  H136     1.0000 0.25180  0.96150  0.11240  Biso   1.000  H
  C216     1.0000 0.11178  0.42460  0.29740  Biso   1.000  C
  H137     1.0000 0.10760  0.46120  0.24440  Biso   1.000  H
  C217     1.0000 0.35311  0.90390  0.01880  Biso   1.000  C
  H138     1.0000 0.36910  0.91100  0.07380  Biso   1.000  H
  C218     1.0000 0.35477  0.79900  0.76530  Biso   1.000  C
  C219     1.0000 0.29427  0.92550  0.93650  Biso   1.000  C
  H139     1.0000 0.27010  0.94680  0.93660  Biso   1.000  H
  C220     1.0000 0.33648  0.14810  0.61360  Biso   1.000  C
  H140     1.0000 0.34360  0.19060  0.65650  Biso   1.000  H
  N6       1.0000 0.28136  0.12080  0.37730  Biso   1.000  N
  C221     1.0000 0.32494  0.08430  0.24190  Biso   1.000  C
  H141     1.0000 0.34330  0.11540  0.27360  Biso   1.000  H
  C222     1.0000 0.36428  0.85660  0.93690  Biso   1.000  C
  H142     1.0000 0.38770  0.83180  0.93790  Biso   1.000  H
  C223     1.0000 0.26160  0.03390  0.23360  Biso   1.000  C
  H143     1.0000 0.23740  0.03210  0.25960  Biso   1.000  H
  C224     1.0000 0.37271  0.05150  0.72390  Biso   1.000  C
  C225     1.0000 0.31535  0.02340  0.48170  Biso   1.000  C
  H144     1.0000 0.30810  0.98140  0.43820  Biso   1.000  H
  C226     1.0000 0.12465  0.31530  0.45370  Biso   1.000  C
  H145     1.0000 0.12850  0.27870  0.50690  Biso   1.000  H
  C227     1.0000 0.36723  0.09400  0.81330  Biso   1.000  C
  H146     1.0000 0.34790  0.13200  0.81780  Biso   1.000  H
  O34      1.0000 0.04322  0.50510  0.28330  Biso   1.000  O
  C228     1.0000 0.09171  0.36080  0.44860  Biso   1.000  C
  H147     1.0000 0.07390  0.35490  0.49950  Biso   1.000  H
  C229     1.0000 0.30623  0.99160  0.10670  Biso   1.000  C
  C230     1.0000 0.42438  0.97960  0.80270  Biso   1.000  C
  H148     1.0000 0.44330  0.94060  0.79910  Biso   1.000  H
  O35      1.0000 0.02823  0.45680  0.43980  Biso   1.000  O
  C231     1.0000 0.40130  0.99370  0.71760  Biso   1.000  C
  H149     1.0000 0.40510  0.96460  0.65770  Biso   1.000  H
  C232     1.0000 0.05005  0.46180  0.36160  Biso   1.000  C
  C233     1.0000 0.33820  0.00610  0.56590  Biso   1.000  C
  H150     1.0000 0.34650  0.95280  0.57630  Biso   1.000  H
  O36      1.0000 0.44347  0.05980  0.05560  Biso   1.000  O
  C234     1.0000 0.44400  0.00910  0.98140  Biso   1.000  C
  C235     1.0000 0.24950  0.67460  0.37970  Biso   1.000  C
  C236     1.0000 0.28992  0.77040  0.29530  Biso   1.000  C
  H151     1.0000 0.29600  0.80050  0.23750  Biso   1.000  H
  C237     1.0000 0.15139  0.56790  0.63510  Biso   1.000  C
  C238     1.0000 0.31285  0.77600  0.38270  Biso   1.000  C
  O37      1.0000 0.11169  0.26400  0.77940  Biso   1.000  O
  H152     1.0000 0.10280  0.25110  0.72420  Biso   1.000  H
  C239     1.0000 0.30192  0.73390  0.46870  Biso   1.000  C
  H153     1.0000 0.31570  0.73970  0.52820  Biso   1.000  H
  O38      1.0000 0.03534  0.44780  0.98720  Biso   1.000  O
  C240     1.0000 0.34810  0.82500  0.37840  Biso   1.000  C
  C241     1.0000 0.16714  0.54210  0.15320  Biso   1.000  C
  H154     1.0000 0.14360  0.54750  0.12370  Biso   1.000  H
  C242     1.0000 0.15845  0.34550  0.85450  Biso   1.000  C
  C243     1.0000 0.35493  0.88150  0.30140  Biso   1.000  C
  H155     1.0000 0.33680  0.89040  0.25180  Biso   1.000  H
  C244     1.0000 0.08093  0.52360  0.89120  Biso   1.000  C
  C245     1.0000 0.41497  0.91430  0.36970  Biso   1.000  C
  C246     1.0000 0.21089  0.57960  0.28310  Biso   1.000  C
  C247     1.0000 0.18245  0.44120  0.01890  Biso   1.000  C
  O39      1.0000 0.16271  0.29230  0.68620  Biso   1.000  O
  C248     1.0000 0.25862  0.72090  0.29450  Biso   1.000  C
  H156     1.0000 0.24360  0.71850  0.23690  Biso   1.000  H
  C249     1.0000 0.18595  0.66560  0.52980  Biso   1.000  C
  H157     1.0000 0.19390  0.71910  0.51850  Biso   1.000  H
  C250     1.0000 0.19397  0.37910  0.85420  Biso   1.000  C
  H158     1.0000 0.20990  0.37060  0.79930  Biso   1.000  H
  C251     1.0000 0.19658  0.60410  0.46290  Biso   1.000  C
  C252     1.0000 0.10979  0.58080  0.89640  Biso   1.000  C
  H159     1.0000 0.11360  0.61020  0.95610  Biso   1.000  H
  C253     1.0000 0.27073  0.68310  0.46820  Biso   1.000  C
  H160     1.0000 0.26400  0.65480  0.52680  Biso   1.000  H
  C254     1.0000 0.22964  0.49100  0.14560  Biso   1.000  C
  H161     1.0000 0.24820  0.46150  0.11240  Biso   1.000  H
  C255     1.0000 0.38822  0.92460  0.29740  Biso   1.000  C
  H162     1.0000 0.39240  0.96120  0.24440  Biso   1.000  H
  C256     1.0000 0.14689  0.40390  0.01880  Biso   1.000  C
  H163     1.0000 0.13090  0.41100  0.07380  Biso   1.000  H
  C257     1.0000 0.14523  0.29900  0.76530  Biso   1.000  C
  C258     1.0000 0.20573  0.42550  0.93650  Biso   1.000  C
  H164     1.0000 0.22990  0.44680  0.93660  Biso   1.000  H
  C259     1.0000 0.16352  0.64810  0.61360  Biso   1.000  C
  H165     1.0000 0.15640  0.69060  0.65650  Biso   1.000  H
  N7       1.0000 0.21864  0.62080  0.37730  Biso   1.000  N
  C260     1.0000 0.17506  0.58430  0.24190  Biso   1.000  C
  H166     1.0000 0.15670  0.61540  0.27360  Biso   1.000  H
  C261     1.0000 0.13572  0.35660  0.93690  Biso   1.000  C
  H167     1.0000 0.11230  0.33180  0.93790  Biso   1.000  H
  C262     1.0000 0.23840  0.53390  0.23360  Biso   1.000  C
  H168     1.0000 0.26260  0.53210  0.25960  Biso   1.000  H
  C263     1.0000 0.12729  0.55150  0.72390  Biso   1.000  C
  C264     1.0000 0.18465  0.52340  0.48170  Biso   1.000  C
  H169     1.0000 0.19190  0.48140  0.43820  Biso   1.000  H
  C265     1.0000 0.37535  0.81530  0.45370  Biso   1.000  C
  H170     1.0000 0.37150  0.77870  0.50690  Biso   1.000  H
  C266     1.0000 0.13277  0.59400  0.81330  Biso   1.000  C
  H171     1.0000 0.15210  0.63200  0.81780  Biso   1.000  H
  O40      1.0000 0.45678  0.00510  0.28330  Biso   1.000  O
  C267     1.0000 0.40829  0.86080  0.44860  Biso   1.000  C
  H172     1.0000 0.42610  0.85490  0.49950  Biso   1.000  H
  C268     1.0000 0.19377  0.49160  0.10670  Biso   1.000  C
  C269     1.0000 0.07562  0.47960  0.80270  Biso   1.000  C
  H173     1.0000 0.05670  0.44060  0.79910  Biso   1.000  H
  O41      1.0000 0.47177  0.95680  0.43980  Biso   1.000  O
  C270     1.0000 0.09870  0.49370  0.71760  Biso   1.000  C
  H174     1.0000 0.09490  0.46460  0.65770  Biso   1.000  H
  C271     1.0000 0.44995  0.96180  0.36160  Biso   1.000  C
  C272     1.0000 0.16180  0.50610  0.56590  Biso   1.000  C
  H175     1.0000 0.15350  0.45280  0.57630  Biso   1.000  H
  O42      1.0000 0.05653  0.55980  0.05560  Biso   1.000  O
  C273     1.0000 0.05600  0.50910  0.98140  Biso   1.000  C
  C274     1.0000 0.75050  0.32540  0.37970  Biso   1.000  C
  C275     1.0000 0.71008  0.22960  0.29530  Biso   1.000  C
  H176     1.0000 0.70400  0.19950  0.23750  Biso   1.000  H
  C276     1.0000 0.84861  0.43210  0.63510  Biso   1.000  C
  C277     1.0000 0.68715  0.22400  0.38270  Biso   1.000  C
  O43      1.0000 0.88831  0.73600  0.77940  Biso   1.000  O
  H177     1.0000 0.89720  0.74890  0.72420  Biso   1.000  H
  C278     1.0000 0.69808  0.26610  0.46870  Biso   1.000  C
  H178     1.0000 0.68430  0.26030  0.52820  Biso   1.000  H
  O44      1.0000 0.96466  0.55220  0.98720  Biso   1.000  O
  C279     1.0000 0.65190  0.17500  0.37840  Biso   1.000  C
  C280     1.0000 0.83286  0.45790  0.15320  Biso   1.000  C
  H179     1.0000 0.85640  0.45250  0.12370  Biso   1.000  H
  C281     1.0000 0.84155  0.65450  0.85450  Biso   1.000  C
  C282     1.0000 0.64507  0.11850  0.30140  Biso   1.000  C
  H180     1.0000 0.66320  0.10960  0.25180  Biso   1.000  H
  C283     1.0000 0.91907  0.47640  0.89120  Biso   1.000  C
  C284     1.0000 0.58503  0.08570  0.36970  Biso   1.000  C
  C285     1.0000 0.78911  0.42040  0.28310  Biso   1.000  C
  C286     1.0000 0.81755  0.55880  0.01890  Biso   1.000  C
  O45      1.0000 0.83729  0.70770  0.68620  Biso   1.000  O
  C287     1.0000 0.74138  0.27910  0.29450  Biso   1.000  C
  H181     1.0000 0.75640  0.28150  0.23690  Biso   1.000  H
  C288     1.0000 0.81405  0.33440  0.52980  Biso   1.000  C
  H182     1.0000 0.80610  0.28090  0.51850  Biso   1.000  H
  C289     1.0000 0.80603  0.62090  0.85420  Biso   1.000  C
  H183     1.0000 0.79010  0.62940  0.79930  Biso   1.000  H
  C290     1.0000 0.80342  0.39590  0.46290  Biso   1.000  C
  C291     1.0000 0.89021  0.41920  0.89640  Biso   1.000  C
  H184     1.0000 0.88640  0.38980  0.95610  Biso   1.000  H
  C292     1.0000 0.72927  0.31690  0.46820  Biso   1.000  C
  H185     1.0000 0.73600  0.34520  0.52680  Biso   1.000  H
  C293     1.0000 0.77036  0.50900  0.14560  Biso   1.000  C
  H186     1.0000 0.75180  0.53850  0.11240  Biso   1.000  H
  C294     1.0000 0.61178  0.07540  0.29740  Biso   1.000  C
  H187     1.0000 0.60760  0.03880  0.24440  Biso   1.000  H
  C295     1.0000 0.85311  0.59610  0.01880  Biso   1.000  C
  H188     1.0000 0.86910  0.58900  0.07380  Biso   1.000  H
  C296     1.0000 0.85477  0.70100  0.76530  Biso   1.000  C
  C297     1.0000 0.79427  0.57450  0.93650  Biso   1.000  C
  H189     1.0000 0.77010  0.55320  0.93660  Biso   1.000  H
  C298     1.0000 0.83648  0.35190  0.61360  Biso   1.000  C
  H190     1.0000 0.84360  0.30940  0.65650  Biso   1.000  H
  N8       1.0000 0.78136  0.37920  0.37730  Biso   1.000  N
  C299     1.0000 0.82494  0.41570  0.24190  Biso   1.000  C
  H191     1.0000 0.84330  0.38460  0.27360  Biso   1.000  H
  C300     1.0000 0.86428  0.64340  0.93690  Biso   1.000  C
  H192     1.0000 0.88770  0.66820  0.93790  Biso   1.000  H
  C301     1.0000 0.76160  0.46610  0.23360  Biso   1.000  C
  H193     1.0000 0.73740  0.46790  0.25960  Biso   1.000  H
  C302     1.0000 0.87271  0.44850  0.72390  Biso   1.000  C
  C303     1.0000 0.81535  0.47660  0.48170  Biso   1.000  C
  H194     1.0000 0.80810  0.51860  0.43820  Biso   1.000  H
  C304     1.0000 0.62465  0.18470  0.45370  Biso   1.000  C
  H195     1.0000 0.62850  0.22130  0.50690  Biso   1.000  H
  C305     1.0000 0.86723  0.40600  0.81330  Biso   1.000  C
  H196     1.0000 0.84790  0.36800  0.81780  Biso   1.000  H
  O46      1.0000 0.54322  0.99490  0.28330  Biso   1.000  O
  C306     1.0000 0.59171  0.13920  0.44860  Biso   1.000  C
  H197     1.0000 0.57390  0.14510  0.49950  Biso   1.000  H
  C307     1.0000 0.80623  0.50840  0.10670  Biso   1.000  C
  C308     1.0000 0.92438  0.52040  0.80270  Biso   1.000  C
  H198     1.0000 0.94330  0.55940  0.79910  Biso   1.000  H
  O47      1.0000 0.52823  0.04320  0.43980  Biso   1.000  O
  C309     1.0000 0.90130  0.50630  0.71760  Biso   1.000  C
  H199     1.0000 0.90510  0.53540  0.65770  Biso   1.000  H
  C310     1.0000 0.55005  0.03820  0.36160  Biso   1.000  C
  C311     1.0000 0.83820  0.49390  0.56590  Biso   1.000  C
  H200     1.0000 0.84650  0.54720  0.57630  Biso   1.000  H
  O48      1.0000 0.94347  0.44020  0.05560  Biso   1.000  O
  C312     1.0000 0.94400  0.49090  0.98140  Biso   1.000  C
  Ce3      1.0000 0.00000  0.50000  0.14079  Biso   1.000  Ce
  Ce4      1.0000 0.50000  0.00000  0.14079  Biso   1.000  Ce
