data_image0
_cell_length_a       22.1408
_cell_length_b       24.5577
_cell_length_c       7.3445
_cell_angle_alpha    90
_cell_angle_beta     90
_cell_angle_gamma    90

_symmetry_space_group_name_H-M    "P 1"
_symmetry_int_tables_number       1

loop_
  _symmetry_equiv_pos_as_xyz
  'x, y, z'

loop_
  _atom_site_label
  _atom_site_occupancy
  _atom_site_fract_x
  _atom_site_fract_y
  _atom_site_fract_z
  _atom_site_thermal_displace_type
  _atom_site_B_iso_or_equiv
  _atom_site_type_symbol
  Ce1      1.0000 0.26041  0.26753  0.78177  Biso   1.000  Ce
  O1       1.0000 0.63150  0.79640  0.25050  Biso   1.000  O
  O2       1.0000 0.68090  0.78960  0.98700  Biso   1.000  O
  O3       1.0000 0.80230  0.78590  0.98730  Biso   1.000  O
  O4       1.0000 0.84730  0.80570  0.24600  Biso   1.000  O
  O5       1.0000 0.26490  0.13240  0.33980  Biso   1.000  O
  O6       1.0000 0.26110  0.18580  0.57940  Biso   1.000  O
  N1       1.0000 0.24190  0.83310  0.40420  Biso   1.000  N
  C1       1.0000 0.26300  0.13770  0.51180  Biso   1.000  C
  C2       1.0000 0.01520  0.82330  0.78800  Biso   1.000  C
  C3       1.0000 0.57380  0.82130  0.79200  Biso   1.000  C
  H1       1.0000 0.60980  0.82530  0.72850  Biso   1.000  H
  C4       1.0000 0.90700  0.81410  0.78400  Biso   1.000  C
  H2       1.0000 0.87130  0.81100  0.71840  Biso   1.000  H
  C5       1.0000 0.46280  0.82080  0.80300  Biso   1.000  C
  C6       1.0000 0.23810  0.87050  0.26400  Biso   1.000  C
  C7       1.0000 0.63040  0.79850  0.08320  Biso   1.000  C
  C8       1.0000 0.57470  0.80830  0.98120  Biso   1.000  C
  C9       1.0000 0.90510  0.81310  0.97190  Biso   1.000  C
  C10      1.0000 0.26680  0.03750  0.56300  Biso   1.000  C
  H3       1.0000 0.27450  0.03230  0.43940  Biso   1.000  H
  C11      1.0000 0.19800  0.91530  0.25700  Biso   1.000  C
  H4       1.0000 0.16780  0.91810  0.34450  Biso   1.000  H
  C12      1.0000 0.25080  0.99820  0.86700  Biso   1.000  C
  C13      1.0000 0.51830  0.80290  0.07500  Biso   1.000  C
  H5       1.0000 0.51820  0.79530  0.19890  Biso   1.000  H
  C14      1.0000 0.26240  0.99250  0.67800  Biso   1.000  C
  H6       1.0000 0.26720  0.95780  0.63010  Biso   1.000  H
  C15      1.0000 0.28270  0.90660  0.98120  Biso   1.000  C
  H7       1.0000 0.31070  0.90320  0.88750  Biso   1.000  H
  C16      1.0000 0.84870  0.80050  0.07810  Biso   1.000  C
  C17      1.0000 0.25980  0.08890  0.63000  Biso   1.000  C
  C18      1.0000 0.25190  0.09620  0.81200  Biso   1.000  C
  H8       1.0000 0.25110  0.13130  0.85900  Biso   1.000  H
  C19      1.0000 0.24530  0.95250  0.98790  Biso   1.000  C
  C20      1.0000 0.95880  0.81880  0.06910  Biso   1.000  C
  H9       1.0000 0.95840  0.81920  0.19570  Biso   1.000  H
  C21      1.0000 0.51900  0.82800  0.70480  Biso   1.000  C
  H10      1.0000 0.51830  0.83720  0.58190  Biso   1.000  H
  C22      1.0000 0.12520  0.84850  0.77400  Biso   1.000  C
  H11      1.0000 0.12250  0.86260  0.89070  Biso   1.000  H
  C23      1.0000 0.40510  0.82410  0.69920  Biso   1.000  C
  C24      1.0000 0.29580  0.83050  0.50470  Biso   1.000  C
  C25      1.0000 0.96150  0.81970  0.69200  Biso   1.000  C
  H12      1.0000 0.96190  0.82100  0.56550  Biso   1.000  H
  C26      1.0000 0.20230  0.95440  0.12660  Biso   1.000  C
  H13      1.0000 0.17550  0.98350  0.12980  Biso   1.000  H
  C27      1.0000 0.07390  0.82500  0.68480  Biso   1.000  C
  C28      1.0000 0.13510  0.80280  0.42160  Biso   1.000  C
  H14      1.0000 0.13850  0.78730  0.30660  Biso   1.000  H
  C29      1.0000 0.27880  0.86630  0.11060  Biso   1.000  C
  H15      1.0000 0.30290  0.83550  0.09920  Biso   1.000  H
  C30      1.0000 0.35710  0.78730  0.73340  Biso   1.000  C
  H16      1.0000 0.36140  0.76080  0.82270  Biso   1.000  H
  C31      1.0000 0.17980  0.84920  0.67680  Biso   1.000  C
  H17      1.0000 0.21320  0.86550  0.73130  Biso   1.000  H
  C32      1.0000 0.24490  0.05140  0.93200  Biso   1.000  C
  H18      1.0000 0.23620  0.05740  0.05390  Biso   1.000  H
  C33      1.0000 0.01290  0.82400  0.97580  Biso   1.000  C
  H19      1.0000 0.04860  0.82810  0.04130  Biso   1.000  H
  C34      1.0000 0.46370  0.80870  0.98370  Biso   1.000  C
  H20      1.0000 0.42760  0.80420  0.04660  Biso   1.000  H
  C35      1.0000 0.08090  0.80240  0.51140  Biso   1.000  C
  H21      1.0000 0.04760  0.78650  0.45510  Biso   1.000  H
  C36      1.0000 0.34420  0.86800  0.46800  Biso   1.000  C
  C37      1.0000 0.18670  0.82750  0.50710  Biso   1.000  C
  C38      1.0000 0.39650  0.86410  0.56400  Biso   1.000  C
  C39      1.0000 0.30400  0.79060  0.63520  Biso   1.000  C
  Ce2      1.0000 0.73959  0.73247  0.78177  Biso   1.000  Ce
  O7       1.0000 0.36850  0.20360  0.25050  Biso   1.000  O
  O8       1.0000 0.31910  0.21040  0.98700  Biso   1.000  O
  O9       1.0000 0.19770  0.21410  0.98730  Biso   1.000  O
  O10      1.0000 0.15270  0.19430  0.24600  Biso   1.000  O
  O11      1.0000 0.73510  0.86760  0.33980  Biso   1.000  O
  O12      1.0000 0.73890  0.81420  0.57940  Biso   1.000  O
  N2       1.0000 0.75810  0.16690  0.40420  Biso   1.000  N
  C40      1.0000 0.73700  0.86230  0.51180  Biso   1.000  C
  C41      1.0000 0.98480  0.17670  0.78800  Biso   1.000  C
  C42      1.0000 0.42620  0.17870  0.79200  Biso   1.000  C
  H22      1.0000 0.39020  0.17470  0.72850  Biso   1.000  H
  C43      1.0000 0.09300  0.18590  0.78400  Biso   1.000  C
  H23      1.0000 0.12870  0.18900  0.71840  Biso   1.000  H
  C44      1.0000 0.53720  0.17920  0.80300  Biso   1.000  C
  C45      1.0000 0.76190  0.12950  0.26400  Biso   1.000  C
  C46      1.0000 0.36960  0.20150  0.08320  Biso   1.000  C
  C47      1.0000 0.42530  0.19170  0.98120  Biso   1.000  C
  C48      1.0000 0.09490  0.18690  0.97190  Biso   1.000  C
  C49      1.0000 0.73320  0.96250  0.56300  Biso   1.000  C
  H24      1.0000 0.72550  0.96770  0.43940  Biso   1.000  H
  C50      1.0000 0.80200  0.08470  0.25700  Biso   1.000  C
  H25      1.0000 0.83220  0.08190  0.34450  Biso   1.000  H
  C51      1.0000 0.74920  0.00180  0.86700  Biso   1.000  C
  C52      1.0000 0.48170  0.19710  0.07500  Biso   1.000  C
  H26      1.0000 0.48180  0.20470  0.19890  Biso   1.000  H
  C53      1.0000 0.73760  0.00750  0.67800  Biso   1.000  C
  H27      1.0000 0.73280  0.04220  0.63010  Biso   1.000  H
  C54      1.0000 0.71730  0.09340  0.98120  Biso   1.000  C
  H28      1.0000 0.68930  0.09680  0.88750  Biso   1.000  H
  C55      1.0000 0.15130  0.19950  0.07810  Biso   1.000  C
  C56      1.0000 0.74020  0.91110  0.63000  Biso   1.000  C
  C57      1.0000 0.74810  0.90380  0.81200  Biso   1.000  C
  H29      1.0000 0.74890  0.86870  0.85900  Biso   1.000  H
  C58      1.0000 0.75470  0.04750  0.98790  Biso   1.000  C
  C59      1.0000 0.04120  0.18120  0.06910  Biso   1.000  C
  H30      1.0000 0.04160  0.18080  0.19570  Biso   1.000  H
  C60      1.0000 0.48100  0.17200  0.70480  Biso   1.000  C
  H31      1.0000 0.48170  0.16280  0.58190  Biso   1.000  H
  C61      1.0000 0.87480  0.15150  0.77400  Biso   1.000  C
  H32      1.0000 0.87750  0.13740  0.89070  Biso   1.000  H
  C62      1.0000 0.59490  0.17590  0.69920  Biso   1.000  C
  C63      1.0000 0.70420  0.16950  0.50470  Biso   1.000  C
  C64      1.0000 0.03850  0.18030  0.69200  Biso   1.000  C
  H33      1.0000 0.03810  0.17900  0.56550  Biso   1.000  H
  C65      1.0000 0.79770  0.04560  0.12660  Biso   1.000  C
  H34      1.0000 0.82450  0.01650  0.12980  Biso   1.000  H
  C66      1.0000 0.92610  0.17500  0.68480  Biso   1.000  C
  C67      1.0000 0.86490  0.19720  0.42160  Biso   1.000  C
  H35      1.0000 0.86150  0.21270  0.30660  Biso   1.000  H
  C68      1.0000 0.72120  0.13370  0.11060  Biso   1.000  C
  H36      1.0000 0.69710  0.16450  0.09920  Biso   1.000  H
  C69      1.0000 0.64290  0.21270  0.73340  Biso   1.000  C
  H37      1.0000 0.63860  0.23920  0.82270  Biso   1.000  H
  C70      1.0000 0.82020  0.15080  0.67680  Biso   1.000  C
  H38      1.0000 0.78680  0.13450  0.73130  Biso   1.000  H
  C71      1.0000 0.75510  0.94860  0.93200  Biso   1.000  C
  H39      1.0000 0.76380  0.94260  0.05390  Biso   1.000  H
  C72      1.0000 0.98710  0.17600  0.97580  Biso   1.000  C
  H40      1.0000 0.95140  0.17190  0.04130  Biso   1.000  H
  C73      1.0000 0.53630  0.19130  0.98370  Biso   1.000  C
  H41      1.0000 0.57240  0.19580  0.04660  Biso   1.000  H
  C74      1.0000 0.91910  0.19760  0.51140  Biso   1.000  C
  H42      1.0000 0.95240  0.21350  0.45510  Biso   1.000  H
  C75      1.0000 0.65580  0.13200  0.46800  Biso   1.000  C
  C76      1.0000 0.81330  0.17250  0.50710  Biso   1.000  C
  C77      1.0000 0.60350  0.13590  0.56400  Biso   1.000  C
  C78      1.0000 0.69600  0.20940  0.63520  Biso   1.000  C
  Ce3      1.0000 0.26041  0.23247  0.28177  Biso   1.000  Ce
  O13      1.0000 0.63150  0.70360  0.75050  Biso   1.000  O
  O14      1.0000 0.68090  0.71040  0.48700  Biso   1.000  O
  O15      1.0000 0.80230  0.71410  0.48730  Biso   1.000  O
  O16      1.0000 0.84730  0.69430  0.74600  Biso   1.000  O
  O17      1.0000 0.26490  0.36760  0.83980  Biso   1.000  O
  O18      1.0000 0.26110  0.31420  0.07940  Biso   1.000  O
  N3       1.0000 0.24190  0.66690  0.90420  Biso   1.000  N
  C79      1.0000 0.26300  0.36230  0.01180  Biso   1.000  C
  C80      1.0000 0.01520  0.67670  0.28800  Biso   1.000  C
  C81      1.0000 0.57380  0.67870  0.29200  Biso   1.000  C
  H43      1.0000 0.60980  0.67470  0.22850  Biso   1.000  H
  C82      1.0000 0.90700  0.68590  0.28400  Biso   1.000  C
  H44      1.0000 0.87130  0.68900  0.21840  Biso   1.000  H
  C83      1.0000 0.46280  0.67920  0.30300  Biso   1.000  C
  C84      1.0000 0.23810  0.62950  0.76400  Biso   1.000  C
  C85      1.0000 0.63040  0.70150  0.58320  Biso   1.000  C
  C86      1.0000 0.57470  0.69170  0.48120  Biso   1.000  C
  C87      1.0000 0.90510  0.68690  0.47190  Biso   1.000  C
  C88      1.0000 0.26680  0.46250  0.06300  Biso   1.000  C
  H45      1.0000 0.27450  0.46770  0.93940  Biso   1.000  H
  C89      1.0000 0.19800  0.58470  0.75700  Biso   1.000  C
  H46      1.0000 0.16780  0.58190  0.84450  Biso   1.000  H
  C90      1.0000 0.25080  0.50180  0.36700  Biso   1.000  C
  C91      1.0000 0.51830  0.69710  0.57500  Biso   1.000  C
  H47      1.0000 0.51820  0.70470  0.69890  Biso   1.000  H
  C92      1.0000 0.26240  0.50750  0.17800  Biso   1.000  C
  H48      1.0000 0.26720  0.54220  0.13010  Biso   1.000  H
  C93      1.0000 0.28270  0.59340  0.48120  Biso   1.000  C
  H49      1.0000 0.31070  0.59680  0.38750  Biso   1.000  H
  C94      1.0000 0.84870  0.69950  0.57810  Biso   1.000  C
  C95      1.0000 0.25980  0.41110  0.13000  Biso   1.000  C
  C96      1.0000 0.25190  0.40380  0.31200  Biso   1.000  C
  H50      1.0000 0.25110  0.36870  0.35900  Biso   1.000  H
  C97      1.0000 0.24530  0.54750  0.48790  Biso   1.000  C
  C98      1.0000 0.95880  0.68120  0.56910  Biso   1.000  C
  H51      1.0000 0.95840  0.68080  0.69570  Biso   1.000  H
  C99      1.0000 0.51900  0.67200  0.20480  Biso   1.000  C
  H52      1.0000 0.51830  0.66280  0.08190  Biso   1.000  H
  C100     1.0000 0.12520  0.65150  0.27400  Biso   1.000  C
  H53      1.0000 0.12250  0.63740  0.39070  Biso   1.000  H
  C101     1.0000 0.40510  0.67590  0.19920  Biso   1.000  C
  C102     1.0000 0.29580  0.66950  0.00470  Biso   1.000  C
  C103     1.0000 0.96150  0.68030  0.19200  Biso   1.000  C
  H54      1.0000 0.96190  0.67900  0.06550  Biso   1.000  H
  C104     1.0000 0.20230  0.54560  0.62660  Biso   1.000  C
  H55      1.0000 0.17550  0.51650  0.62980  Biso   1.000  H
  C105     1.0000 0.07390  0.67500  0.18480  Biso   1.000  C
  C106     1.0000 0.13510  0.69720  0.92160  Biso   1.000  C
  H56      1.0000 0.13850  0.71270  0.80660  Biso   1.000  H
  C107     1.0000 0.27880  0.63370  0.61060  Biso   1.000  C
  H57      1.0000 0.30290  0.66450  0.59920  Biso   1.000  H
  C108     1.0000 0.35710  0.71270  0.23340  Biso   1.000  C
  H58      1.0000 0.36140  0.73920  0.32270  Biso   1.000  H
  C109     1.0000 0.17980  0.65080  0.17680  Biso   1.000  C
  H59      1.0000 0.21320  0.63450  0.23130  Biso   1.000  H
  C110     1.0000 0.24490  0.44860  0.43200  Biso   1.000  C
  H60      1.0000 0.23620  0.44260  0.55390  Biso   1.000  H
  C111     1.0000 0.01290  0.67600  0.47580  Biso   1.000  C
  H61      1.0000 0.04860  0.67190  0.54130  Biso   1.000  H
  C112     1.0000 0.46370  0.69130  0.48370  Biso   1.000  C
  H62      1.0000 0.42760  0.69580  0.54660  Biso   1.000  H
  C113     1.0000 0.08090  0.69760  0.01140  Biso   1.000  C
  H63      1.0000 0.04760  0.71350  0.95510  Biso   1.000  H
  C114     1.0000 0.34420  0.63200  0.96800  Biso   1.000  C
  C115     1.0000 0.18670  0.67250  0.00710  Biso   1.000  C
  C116     1.0000 0.39650  0.63590  0.06400  Biso   1.000  C
  C117     1.0000 0.30400  0.70940  0.13520  Biso   1.000  C
  Ce4      1.0000 0.73959  0.76753  0.28177  Biso   1.000  Ce
  O19      1.0000 0.36850  0.29640  0.75050  Biso   1.000  O
  O20      1.0000 0.31910  0.28960  0.48700  Biso   1.000  O
  O21      1.0000 0.19770  0.28590  0.48730  Biso   1.000  O
  O22      1.0000 0.15270  0.30570  0.74600  Biso   1.000  O
  O23      1.0000 0.73510  0.63240  0.83980  Biso   1.000  O
  O24      1.0000 0.73890  0.68580  0.07940  Biso   1.000  O
  N4       1.0000 0.75810  0.33310  0.90420  Biso   1.000  N
  C118     1.0000 0.73700  0.63770  0.01180  Biso   1.000  C
  C119     1.0000 0.98480  0.32330  0.28800  Biso   1.000  C
  C120     1.0000 0.42620  0.32130  0.29200  Biso   1.000  C
  H64      1.0000 0.39020  0.32530  0.22850  Biso   1.000  H
  C121     1.0000 0.09300  0.31410  0.28400  Biso   1.000  C
  H65      1.0000 0.12870  0.31100  0.21840  Biso   1.000  H
  C122     1.0000 0.53720  0.32080  0.30300  Biso   1.000  C
  C123     1.0000 0.76190  0.37050  0.76400  Biso   1.000  C
  C124     1.0000 0.36960  0.29850  0.58320  Biso   1.000  C
  C125     1.0000 0.42530  0.30830  0.48120  Biso   1.000  C
  C126     1.0000 0.09490  0.31310  0.47190  Biso   1.000  C
  C127     1.0000 0.73320  0.53750  0.06300  Biso   1.000  C
  H66      1.0000 0.72550  0.53230  0.93940  Biso   1.000  H
  C128     1.0000 0.80200  0.41530  0.75700  Biso   1.000  C
  H67      1.0000 0.83220  0.41810  0.84450  Biso   1.000  H
  C129     1.0000 0.74920  0.49820  0.36700  Biso   1.000  C
  C130     1.0000 0.48170  0.30290  0.57500  Biso   1.000  C
  H68      1.0000 0.48180  0.29530  0.69890  Biso   1.000  H
  C131     1.0000 0.73760  0.49250  0.17800  Biso   1.000  C
  H69      1.0000 0.73280  0.45780  0.13010  Biso   1.000  H
  C132     1.0000 0.71730  0.40660  0.48120  Biso   1.000  C
  H70      1.0000 0.68930  0.40320  0.38750  Biso   1.000  H
  C133     1.0000 0.15130  0.30050  0.57810  Biso   1.000  C
  C134     1.0000 0.74020  0.58890  0.13000  Biso   1.000  C
  C135     1.0000 0.74810  0.59620  0.31200  Biso   1.000  C
  H71      1.0000 0.74890  0.63130  0.35900  Biso   1.000  H
  C136     1.0000 0.75470  0.45250  0.48790  Biso   1.000  C
  C137     1.0000 0.04120  0.31880  0.56910  Biso   1.000  C
  H72      1.0000 0.04160  0.31920  0.69570  Biso   1.000  H
  C138     1.0000 0.48100  0.32800  0.20480  Biso   1.000  C
  H73      1.0000 0.48170  0.33720  0.08190  Biso   1.000  H
  C139     1.0000 0.87480  0.34850  0.27400  Biso   1.000  C
  H74      1.0000 0.87750  0.36260  0.39070  Biso   1.000  H
  C140     1.0000 0.59490  0.32410  0.19920  Biso   1.000  C
  C141     1.0000 0.70420  0.33050  0.00470  Biso   1.000  C
  C142     1.0000 0.03850  0.31970  0.19200  Biso   1.000  C
  H75      1.0000 0.03810  0.32100  0.06550  Biso   1.000  H
  C143     1.0000 0.79770  0.45440  0.62660  Biso   1.000  C
  H76      1.0000 0.82450  0.48350  0.62980  Biso   1.000  H
  C144     1.0000 0.92610  0.32500  0.18480  Biso   1.000  C
  C145     1.0000 0.86490  0.30280  0.92160  Biso   1.000  C
  H77      1.0000 0.86150  0.28730  0.80660  Biso   1.000  H
  C146     1.0000 0.72120  0.36630  0.61060  Biso   1.000  C
  H78      1.0000 0.69710  0.33550  0.59920  Biso   1.000  H
  C147     1.0000 0.64290  0.28730  0.23340  Biso   1.000  C
  H79      1.0000 0.63860  0.26080  0.32270  Biso   1.000  H
  C148     1.0000 0.82020  0.34920  0.17680  Biso   1.000  C
  H80      1.0000 0.78680  0.36550  0.23130  Biso   1.000  H
  C149     1.0000 0.75510  0.55140  0.43200  Biso   1.000  C
  H81      1.0000 0.76380  0.55740  0.55390  Biso   1.000  H
  C150     1.0000 0.98710  0.32400  0.47580  Biso   1.000  C
  H82      1.0000 0.95140  0.32810  0.54130  Biso   1.000  H
  C151     1.0000 0.53630  0.30870  0.48370  Biso   1.000  C
  H83      1.0000 0.57240  0.30420  0.54660  Biso   1.000  H
  C152     1.0000 0.91910  0.30240  0.01140  Biso   1.000  C
  H84      1.0000 0.95240  0.28650  0.95510  Biso   1.000  H
  C153     1.0000 0.65580  0.36800  0.96800  Biso   1.000  C
  C154     1.0000 0.81330  0.32750  0.00710  Biso   1.000  C
  C155     1.0000 0.60350  0.36410  0.06400  Biso   1.000  C
  C156     1.0000 0.69600  0.29060  0.13520  Biso   1.000  C
