data_image0
_cell_length_a       11.8429
_cell_length_b       13.4829
_cell_length_c       11.6921
_cell_angle_alpha    90
_cell_angle_beta     90
_cell_angle_gamma    90

_symmetry_space_group_name_H-M    "P 1"
_symmetry_int_tables_number       1

loop_
  _symmetry_equiv_pos_as_xyz
  'x, y, z'

loop_
  _atom_site_label
  _atom_site_occupancy
  _atom_site_fract_x
  _atom_site_fract_y
  _atom_site_fract_z
  _atom_site_thermal_displace_type
  _atom_site_B_iso_or_equiv
  _atom_site_type_symbol
  S1       1.0000 0.96153  0.74019  0.27910  Biso   1.000  S
  O1       1.0000 0.03580  0.82750  0.28470  Biso   1.000  O
  O2       1.0000 0.91590  0.71420  0.38900  Biso   1.000  O
  O3       1.0000 0.87820  0.74960  0.19140  Biso   1.000  O
  C1       1.0000 0.04930  0.64070  0.24080  Biso   1.000  C
  C2       1.0000 0.10840  0.57760  0.31490  Biso   1.000  C
  H1       1.0000 0.10760  0.58050  0.39430  Biso   1.000  H
  C3       1.0000 0.16960  0.50900  0.24800  Biso   1.000  C
  H2       1.0000 0.21620  0.45910  0.27590  Biso   1.000  H
  C4       1.0000 0.14760  0.52930  0.13050  Biso   1.000  C
  H3       1.0000 0.17590  0.49350  0.06880  Biso   1.000  H
  C5       1.0000 0.07500  0.61340  0.12320  Biso   1.000  C
  H4       1.0000 0.04950  0.64440  0.05700  Biso   1.000  H
  S2       1.0000 0.03847  0.25981  0.27910  Biso   1.000  S
  O4       1.0000 0.96420  0.17250  0.28470  Biso   1.000  O
  O5       1.0000 0.08410  0.28580  0.38900  Biso   1.000  O
  O6       1.0000 0.12180  0.25040  0.19140  Biso   1.000  O
  C6       1.0000 0.95070  0.35930  0.24080  Biso   1.000  C
  C7       1.0000 0.89160  0.42240  0.31490  Biso   1.000  C
  H5       1.0000 0.89240  0.41950  0.39430  Biso   1.000  H
  C8       1.0000 0.83040  0.49100  0.24800  Biso   1.000  C
  H6       1.0000 0.78380  0.54090  0.27590  Biso   1.000  H
  C9       1.0000 0.85240  0.47070  0.13050  Biso   1.000  C
  H7       1.0000 0.82410  0.50650  0.06880  Biso   1.000  H
  C10      1.0000 0.92500  0.38660  0.12320  Biso   1.000  C
  H8       1.0000 0.95050  0.35560  0.05700  Biso   1.000  H
  Fe1      1.0000 0.00000  0.50000  0.21339  Biso   1.000  Fe
  S3       1.0000 0.53847  0.24019  0.72090  Biso   1.000  S
  O7       1.0000 0.46420  0.32750  0.71530  Biso   1.000  O
  O8       1.0000 0.58410  0.21420  0.61100  Biso   1.000  O
  O9       1.0000 0.62180  0.24960  0.80860  Biso   1.000  O
  C11      1.0000 0.45070  0.14070  0.75920  Biso   1.000  C
  C12      1.0000 0.39160  0.07760  0.68510  Biso   1.000  C
  H9       1.0000 0.39240  0.08050  0.60570  Biso   1.000  H
  C13      1.0000 0.33040  0.00900  0.75200  Biso   1.000  C
  H10      1.0000 0.28380  0.95910  0.72410  Biso   1.000  H
  C14      1.0000 0.35240  0.02930  0.86950  Biso   1.000  C
  H11      1.0000 0.32410  0.99350  0.93120  Biso   1.000  H
  C15      1.0000 0.42500  0.11340  0.87680  Biso   1.000  C
  H12      1.0000 0.45050  0.14440  0.94300  Biso   1.000  H
  S4       1.0000 0.46153  0.75981  0.72090  Biso   1.000  S
  O10      1.0000 0.53580  0.67250  0.71530  Biso   1.000  O
  O11      1.0000 0.41590  0.78580  0.61100  Biso   1.000  O
  O12      1.0000 0.37820  0.75040  0.80860  Biso   1.000  O
  C16      1.0000 0.54930  0.85930  0.75920  Biso   1.000  C
  C17      1.0000 0.60840  0.92240  0.68510  Biso   1.000  C
  H13      1.0000 0.60760  0.91950  0.60570  Biso   1.000  H
  C18      1.0000 0.66960  0.99100  0.75200  Biso   1.000  C
  H14      1.0000 0.71620  0.04090  0.72410  Biso   1.000  H
  C19      1.0000 0.64760  0.97070  0.86950  Biso   1.000  C
  H15      1.0000 0.67590  0.00650  0.93120  Biso   1.000  H
  C20      1.0000 0.57500  0.88660  0.87680  Biso   1.000  C
  H16      1.0000 0.54950  0.85560  0.94300  Biso   1.000  H
  Fe2      1.0000 0.50000  0.00000  0.78661  Biso   1.000  Fe
  C21      1.0000 0.04610  0.92350  0.02570  Biso   1.000  C
  H17      1.0000 0.07860  0.87110  0.06550  Biso   1.000  H
  C22      1.0000 0.04570  0.92210  0.90700  Biso   1.000  C
  H18      1.0000 0.07640  0.86830  0.86820  Biso   1.000  H
  C23      1.0000 0.94970  0.92440  0.65860  Biso   1.000  C
  H19      1.0000 0.91510  0.87210  0.69680  Biso   1.000  H
  C24      1.0000 0.95070  0.92640  0.54000  Biso   1.000  C
  H20      1.0000 0.91610  0.87510  0.50000  Biso   1.000  H
  C25      1.0000 0.95390  0.07650  0.02570  Biso   1.000  C
  H21      1.0000 0.92140  0.12890  0.06550  Biso   1.000  H
  C26      1.0000 0.95430  0.07790  0.90700  Biso   1.000  C
  H22      1.0000 0.92360  0.13170  0.86820  Biso   1.000  H
  C27      1.0000 0.05030  0.07560  0.65860  Biso   1.000  C
  H23      1.0000 0.08490  0.12790  0.69680  Biso   1.000  H
  C28      1.0000 0.04930  0.07360  0.54000  Biso   1.000  C
  H24      1.0000 0.08390  0.12490  0.50000  Biso   1.000  H
  Cu1      1.0000 0.00000  0.00000  0.28270  Biso   1.000  Cu
  N1       1.0000 0.00000  0.00000  0.08450  Biso   1.000  N
  N2       1.0000 0.00000  0.00000  0.48130  Biso   1.000  N
  C29      1.0000 0.00000  0.00000  0.84610  Biso   1.000  C
  C30      1.0000 0.00000  0.00000  0.72050  Biso   1.000  C
  C31      1.0000 0.45390  0.42350  0.97430  Biso   1.000  C
  H25      1.0000 0.42140  0.37110  0.93450  Biso   1.000  H
  C32      1.0000 0.45430  0.42210  0.09300  Biso   1.000  C
  H26      1.0000 0.42360  0.36830  0.13180  Biso   1.000  H
  C33      1.0000 0.55030  0.42440  0.34140  Biso   1.000  C
  H27      1.0000 0.58490  0.37210  0.30320  Biso   1.000  H
  C34      1.0000 0.54930  0.42640  0.46000  Biso   1.000  C
  H28      1.0000 0.58390  0.37510  0.50000  Biso   1.000  H
  C35      1.0000 0.54610  0.57650  0.97430  Biso   1.000  C
  H29      1.0000 0.57860  0.62890  0.93450  Biso   1.000  H
  C36      1.0000 0.54570  0.57790  0.09300  Biso   1.000  C
  H30      1.0000 0.57640  0.63170  0.13180  Biso   1.000  H
  C37      1.0000 0.44970  0.57560  0.34140  Biso   1.000  C
  H31      1.0000 0.41510  0.62790  0.30320  Biso   1.000  H
  C38      1.0000 0.45070  0.57360  0.46000  Biso   1.000  C
  H32      1.0000 0.41610  0.62490  0.50000  Biso   1.000  H
  Cu2      1.0000 0.50000  0.50000  0.71730  Biso   1.000  Cu
  N3       1.0000 0.50000  0.50000  0.91550  Biso   1.000  N
  N4       1.0000 0.50000  0.50000  0.51870  Biso   1.000  N
  C39      1.0000 0.50000  0.50000  0.15390  Biso   1.000  C
  C40      1.0000 0.50000  0.50000  0.27950  Biso   1.000  C
  N5       1.0000 0.79810  0.99530  0.28530  Biso   1.000  N
  C41      1.0000 0.73820  0.95540  0.20280  Biso   1.000  C
  H33      1.0000 0.77610  0.92360  0.14360  Biso   1.000  H
  C42      1.0000 0.62120  0.95820  0.19950  Biso   1.000  C
  H34      1.0000 0.58250  0.93140  0.13750  Biso   1.000  H
  C43      1.0000 0.56330  0.00040  0.28760  Biso   1.000  C
  C44      1.0000 0.62440  0.04210  0.37470  Biso   1.000  C
  H35      1.0000 0.58750  0.07110  0.43640  Biso   1.000  H
  C45      1.0000 0.74250  0.04090  0.37040  Biso   1.000  C
  H36      1.0000 0.78340  0.07250  0.42770  Biso   1.000  H
  N6       1.0000 0.20190  0.00470  0.28530  Biso   1.000  N
  C46      1.0000 0.26180  0.04460  0.20280  Biso   1.000  C
  H37      1.0000 0.22390  0.07640  0.14360  Biso   1.000  H
  C47      1.0000 0.37880  0.04180  0.19950  Biso   1.000  C
  H38      1.0000 0.41750  0.06860  0.13750  Biso   1.000  H
  C48      1.0000 0.43670  0.99960  0.28760  Biso   1.000  C
  C49      1.0000 0.37560  0.95790  0.37470  Biso   1.000  C
  H39      1.0000 0.41250  0.92890  0.43640  Biso   1.000  H
  C50      1.0000 0.25750  0.95910  0.37040  Biso   1.000  C
  H40      1.0000 0.21660  0.92750  0.42770  Biso   1.000  H
  N7       1.0000 0.70190  0.49530  0.71470  Biso   1.000  N
  C51      1.0000 0.76180  0.45540  0.79720  Biso   1.000  C
  H41      1.0000 0.72390  0.42360  0.85640  Biso   1.000  H
  C52      1.0000 0.87880  0.45820  0.80050  Biso   1.000  C
  H42      1.0000 0.91750  0.43140  0.86250  Biso   1.000  H
  C53      1.0000 0.93670  0.50040  0.71240  Biso   1.000  C
  C54      1.0000 0.87560  0.54210  0.62530  Biso   1.000  C
  H43      1.0000 0.91250  0.57110  0.56360  Biso   1.000  H
  C55      1.0000 0.75750  0.54090  0.62960  Biso   1.000  C
  H44      1.0000 0.71660  0.57250  0.57230  Biso   1.000  H
  N8       1.0000 0.29810  0.50470  0.71470  Biso   1.000  N
  C56      1.0000 0.23820  0.54460  0.79720  Biso   1.000  C
  H45      1.0000 0.27610  0.57640  0.85640  Biso   1.000  H
  C57      1.0000 0.12120  0.54180  0.80050  Biso   1.000  C
  H46      1.0000 0.08250  0.56860  0.86250  Biso   1.000  H
  C58      1.0000 0.06330  0.49960  0.71240  Biso   1.000  C
  C59      1.0000 0.12440  0.45790  0.62530  Biso   1.000  C
  H47      1.0000 0.08750  0.42890  0.56360  Biso   1.000  H
  C60      1.0000 0.24250  0.45910  0.62960  Biso   1.000  C
  H48      1.0000 0.28340  0.42750  0.57230  Biso   1.000  H
