data_image0
_cell_length_a       9.896
_cell_length_b       16.21
_cell_length_c       18.443
_cell_angle_alpha    92.002
_cell_angle_beta     103.58
_cell_angle_gamma    92.51

_symmetry_space_group_name_H-M    "P 1"
_symmetry_int_tables_number       1

loop_
  _symmetry_equiv_pos_as_xyz
  'x, y, z'

loop_
  _atom_site_label
  _atom_site_occupancy
  _atom_site_fract_x
  _atom_site_fract_y
  _atom_site_fract_z
  _atom_site_thermal_displace_type
  _atom_site_B_iso_or_equiv
  _atom_site_type_symbol
  C1       1.0000 0.66360  0.06310  0.02940  Biso   1.000  C
  C2       1.0000 0.05910  0.30820  0.99530  Biso   1.000  C
  C3       1.0000 0.95950  0.10850  0.79930  Biso   1.000  C
  H1       1.0000 0.88080  0.10050  0.81810  Biso   1.000  H
  C4       1.0000 0.94650  0.09210  0.72370  Biso   1.000  C
  H2       1.0000 0.86070  0.07530  0.69270  Biso   1.000  H
  C5       1.0000 0.06350  0.10130  0.69520  Biso   1.000  C
  C6       1.0000 0.18420  0.13300  0.74300  Biso   1.000  C
  H3       1.0000 0.26350  0.14350  0.72520  Biso   1.000  H
  C7       1.0000 0.18790  0.14930  0.81720  Biso   1.000  C
  H4       1.0000 0.27050  0.17140  0.84840  Biso   1.000  H
  C8       1.0000 0.06300  0.07490  0.61540  Biso   1.000  C
  C9       1.0000 0.56040  0.02050  0.19390  Biso   1.000  C
  H5       1.0000 0.64080  0.01000  0.17810  Biso   1.000  H
  C10      1.0000 0.56460  0.01750  0.26880  Biso   1.000  C
  H6       1.0000 0.64660  0.00550  0.30240  Biso   1.000  H
  C11      1.0000 0.44770  0.03230  0.29390  Biso   1.000  C
  C12      1.0000 0.32870  0.05060  0.24090  Biso   1.000  C
  H7       1.0000 0.24730  0.06190  0.25540  Biso   1.000  H
  C13      1.0000 0.33250  0.05190  0.16690  Biso   1.000  C
  H8       1.0000 0.25200  0.06310  0.13190  Biso   1.000  H
  C14      1.0000 0.44440  0.02880  0.37470  Biso   1.000  C
  C15      1.0000 0.10370  0.22270  0.19460  Biso   1.000  C
  H9       1.0000 0.14390  0.25640  0.16470  Biso   1.000  H
  C16      1.0000 0.15120  0.23440  0.27070  Biso   1.000  C
  H10      1.0000 0.22020  0.27500  0.29130  Biso   1.000  H
  C17      1.0000 0.09280  0.18360  0.31610  Biso   1.000  C
  C18      1.0000 0.99260  0.12460  0.28180  Biso   1.000  C
  H11      1.0000 0.95300  0.08880  0.31030  Biso   1.000  H
  C19      1.0000 0.95070  0.11860  0.20510  Biso   1.000  C
  H12      1.0000 0.88130  0.07870  0.18320  Biso   1.000  H
  C20      1.0000 0.14840  0.19050  0.40000  Biso   1.000  C
  C21      1.0000 0.14010  0.46930  0.19970  Biso   1.000  C
  H13      1.0000 0.04900  0.48580  0.18740  Biso   1.000  H
  C22      1.0000 0.21070  0.47580  0.27330  Biso   1.000  C
  H14      1.0000 0.16610  0.49390  0.30960  Biso   1.000  H
  C23      1.0000 0.34860  0.45530  0.29360  Biso   1.000  C
  C24      1.0000 0.40610  0.42590  0.23620  Biso   1.000  C
  H15      1.0000 0.49780  0.41050  0.24650  Biso   1.000  H
  C25      1.0000 0.32650  0.41990  0.16460  Biso   1.000  C
  H16      1.0000 0.36680  0.40010  0.12710  Biso   1.000  H
  C26      1.0000 0.43370  0.46370  0.37290  Biso   1.000  C
  C27      1.0000 0.95860  0.66420  0.20530  Biso   1.000  C
  H17      1.0000 0.02030  0.69450  0.18420  Biso   1.000  H
  C28      1.0000 0.00210  0.64360  0.27830  Biso   1.000  C
  H18      1.0000 0.09170  0.65950  0.30540  Biso   1.000  H
  C29      1.0000 0.91220  0.59920  0.31170  Biso   1.000  C
  C30      1.0000 0.78060  0.57910  0.26920  Biso   1.000  C
  H19      1.0000 0.71660  0.54980  0.28960  Biso   1.000  H
  C31      1.0000 0.74330  0.60230  0.19630  Biso   1.000  C
  H20      1.0000 0.65310  0.58950  0.16850  Biso   1.000  H
  C32      1.0000 0.95910  0.56980  0.38830  Biso   1.000  C
  Cl1      1.0000 0.33850  0.16912  0.00691  Biso   1.000  Cl
  Cl2      1.0000 0.85270  0.47145  0.04238  Biso   1.000  Cl
  Cl3      1.0000 0.43500  0.37739  0.99520  Biso   1.000  Cl
  Cu1      1.0000 0.10626  0.12446  0.95933  Biso   1.000  Cu
  Cu2      1.0000 0.44255  0.04696  0.03253  Biso   1.000  Cu
  Cu3      1.0000 0.91772  0.15961  0.04561  Biso   1.000  Cu
  Cu4      1.0000 0.08054  0.42572  0.03792  Biso   1.000  Cu
  Cu5      1.0000 0.19812  0.35593  0.94806  Biso   1.000  Cu
  N1       1.0000 0.98050  0.96760  0.00620  Biso   1.000  N
  N2       1.0000 0.73230  0.09510  0.03690  Biso   1.000  N
  N3       1.0000 0.00110  0.24810  0.00420  Biso   1.000  N
  N4       1.0000 0.07820  0.13490  0.84660  Biso   1.000  N
  N5       1.0000 0.44790  0.03760  0.14320  Biso   1.000  N
  N6       1.0000 0.00400  0.16650  0.16020  Biso   1.000  N
  N7       1.0000 0.19420  0.44080  0.14530  Biso   1.000  N
  N8       1.0000 0.83410  0.64320  0.16390  Biso   1.000  N
  O1       1.0000 0.95360  0.03930  0.57670  Biso   1.000  O
  O2       1.0000 0.17380  0.08660  0.59530  Biso   1.000  O
  O3       1.0000 0.55180  0.00910  0.41950  Biso   1.000  O
  O4       1.0000 0.33160  0.04510  0.39040  Biso   1.000  O
  O5       1.0000 0.22330  0.25200  0.42710  Biso   1.000  O
  O6       1.0000 0.11300  0.13180  0.43670  Biso   1.000  O
  O7       1.0000 0.37330  0.49370  0.42000  Biso   1.000  O
  O8       1.0000 0.55460  0.44230  0.38520  Biso   1.000  O
  O9       1.0000 0.08420  0.58630  0.42250  Biso   1.000  O
  O10      1.0000 0.87450  0.52810  0.41460  Biso   1.000  O
  O11      1.0000 0.10900  0.41220  0.42970  Biso   1.000  O
  H21      1.0000 0.04250  0.38480  0.44120  Biso   1.000  H
  H22      1.0000 0.18390  0.38910  0.44850  Biso   1.000  H
  O12      1.0000 0.30750  0.88850  0.45080  Biso   1.000  O
  H23      1.0000 0.27730  0.84090  0.45890  Biso   1.000  H
  H24      1.0000 0.35780  0.90760  0.49220  Biso   1.000  H
  Tb1      1.0000 0.25840  0.52773  0.51039  Biso   1.000  Tb
  Tb2      1.0000 0.24893  0.02120  0.49698  Biso   1.000  Tb
  Cu6      1.0000 0.62400  0.48260  0.01840  Biso   1.000  Cu
  C33      1.0000 0.01950  0.03240  0.99380  Biso   1.000  C
  C34      1.0000 0.33640  0.93690  0.97060  Biso   1.000  C
  C35      1.0000 0.94090  0.69180  0.00470  Biso   1.000  C
  C36      1.0000 0.04050  0.89150  0.20070  Biso   1.000  C
  H25      1.0000 0.11920  0.89950  0.18190  Biso   1.000  H
  C37      1.0000 0.05350  0.90790  0.27630  Biso   1.000  C
  H26      1.0000 0.13930  0.92470  0.30730  Biso   1.000  H
  C38      1.0000 0.93650  0.89870  0.30480  Biso   1.000  C
  C39      1.0000 0.81580  0.86700  0.25700  Biso   1.000  C
  H27      1.0000 0.73650  0.85650  0.27480  Biso   1.000  H
  C40      1.0000 0.81210  0.85070  0.18280  Biso   1.000  C
  H28      1.0000 0.72950  0.82860  0.15160  Biso   1.000  H
  C41      1.0000 0.93700  0.92510  0.38460  Biso   1.000  C
  C42      1.0000 0.43960  0.97950  0.80610  Biso   1.000  C
  H29      1.0000 0.35920  0.99000  0.82190  Biso   1.000  H
  C43      1.0000 0.43540  0.98250  0.73120  Biso   1.000  C
  H30      1.0000 0.35340  0.99450  0.69760  Biso   1.000  H
  C44      1.0000 0.55230  0.96770  0.70610  Biso   1.000  C
  C45      1.0000 0.67130  0.94940  0.75910  Biso   1.000  C
  H31      1.0000 0.75270  0.93810  0.74460  Biso   1.000  H
  C46      1.0000 0.66750  0.94810  0.83310  Biso   1.000  C
  H32      1.0000 0.74800  0.93690  0.86810  Biso   1.000  H
  C47      1.0000 0.55560  0.97120  0.62530  Biso   1.000  C
  C48      1.0000 0.89630  0.77730  0.80540  Biso   1.000  C
  H33      1.0000 0.85610  0.74360  0.83530  Biso   1.000  H
  C49      1.0000 0.84880  0.76560  0.72930  Biso   1.000  C
  H34      1.0000 0.77980  0.72500  0.70870  Biso   1.000  H
  C50      1.0000 0.90720  0.81640  0.68390  Biso   1.000  C
  C51      1.0000 0.00740  0.87540  0.71820  Biso   1.000  C
  H35      1.0000 0.04700  0.91120  0.68970  Biso   1.000  H
  C52      1.0000 0.04930  0.88140  0.79490  Biso   1.000  C
  H36      1.0000 0.11870  0.92130  0.81680  Biso   1.000  H
  C53      1.0000 0.85160  0.80950  0.60000  Biso   1.000  C
  C54      1.0000 0.85990  0.53070  0.80030  Biso   1.000  C
  H37      1.0000 0.95100  0.51420  0.81260  Biso   1.000  H
  C55      1.0000 0.78930  0.52420  0.72670  Biso   1.000  C
  H38      1.0000 0.83390  0.50610  0.69040  Biso   1.000  H
  C56      1.0000 0.65140  0.54470  0.70640  Biso   1.000  C
  C57      1.0000 0.59390  0.57410  0.76380  Biso   1.000  C
  H39      1.0000 0.50220  0.58950  0.75350  Biso   1.000  H
  C58      1.0000 0.67350  0.58010  0.83540  Biso   1.000  C
  H40      1.0000 0.63320  0.59990  0.87290  Biso   1.000  H
  C59      1.0000 0.56630  0.53630  0.62710  Biso   1.000  C
  C60      1.0000 0.04140  0.33580  0.79470  Biso   1.000  C
  H41      1.0000 0.97970  0.30550  0.81580  Biso   1.000  H
  C61      1.0000 0.99790  0.35640  0.72170  Biso   1.000  C
  H42      1.0000 0.90830  0.34050  0.69460  Biso   1.000  H
  C62      1.0000 0.08780  0.40080  0.68830  Biso   1.000  C
  C63      1.0000 0.21940  0.42090  0.73080  Biso   1.000  C
  H43      1.0000 0.28340  0.45020  0.71040  Biso   1.000  H
  C64      1.0000 0.25670  0.39770  0.80370  Biso   1.000  C
  H44      1.0000 0.34690  0.41050  0.83150  Biso   1.000  H
  C65      1.0000 0.04090  0.43020  0.61170  Biso   1.000  C
  Cl4      1.0000 0.66150  0.83088  0.99309  Biso   1.000  Cl
  Cl5      1.0000 0.14730  0.52855  0.95762  Biso   1.000  Cl
  Cl6      1.0000 0.56500  0.62261  0.00480  Biso   1.000  Cl
  Cu7      1.0000 0.89374  0.87554  0.04067  Biso   1.000  Cu
  Cu8      1.0000 0.55745  0.95304  0.96747  Biso   1.000  Cu
  Cu9      1.0000 0.08228  0.84039  0.95439  Biso   1.000  Cu
  Cu10     1.0000 0.91946  0.57428  0.96208  Biso   1.000  Cu
  Cu11     1.0000 0.80188  0.64407  0.05194  Biso   1.000  Cu
  N9       1.0000 0.26770  0.90490  0.96310  Biso   1.000  N
  N10      1.0000 0.99890  0.75190  0.99580  Biso   1.000  N
  N11      1.0000 0.92180  0.86510  0.15340  Biso   1.000  N
  N12      1.0000 0.55210  0.96240  0.85680  Biso   1.000  N
  N13      1.0000 0.99600  0.83350  0.83980  Biso   1.000  N
  N14      1.0000 0.80580  0.55920  0.85470  Biso   1.000  N
  N15      1.0000 0.16590  0.35680  0.83610  Biso   1.000  N
  O13      1.0000 0.04640  0.96070  0.42330  Biso   1.000  O
  O14      1.0000 0.82620  0.91340  0.40470  Biso   1.000  O
  O15      1.0000 0.44820  0.99090  0.58050  Biso   1.000  O
  O16      1.0000 0.66840  0.95490  0.60960  Biso   1.000  O
  O17      1.0000 0.77670  0.74800  0.57290  Biso   1.000  O
  O18      1.0000 0.88700  0.86820  0.56330  Biso   1.000  O
  O19      1.0000 0.62670  0.50630  0.58000  Biso   1.000  O
  O20      1.0000 0.44540  0.55770  0.61480  Biso   1.000  O
  O21      1.0000 0.91580  0.41370  0.57750  Biso   1.000  O
  O22      1.0000 0.12550  0.47190  0.58540  Biso   1.000  O
  O23      1.0000 0.89100  0.58780  0.57030  Biso   1.000  O
  H45      1.0000 0.95750  0.61520  0.55880  Biso   1.000  H
  H46      1.0000 0.81610  0.61090  0.55150  Biso   1.000  H
  O24      1.0000 0.69250  0.11150  0.54920  Biso   1.000  O
  H47      1.0000 0.72270  0.15910  0.54110  Biso   1.000  H
  H48      1.0000 0.64220  0.09240  0.50780  Biso   1.000  H
  Tb3      1.0000 0.74160  0.47227  0.48961  Biso   1.000  Tb
  Tb4      1.0000 0.75107  0.97880  0.50302  Biso   1.000  Tb
  Cu12     1.0000 0.37600  0.51740  0.98160  Biso   1.000  Cu
  Cu13     1.0000 0.50000  0.50000  0.00000  Biso   1.000  Cu
