data_image0
_cell_length_a       12.7343
_cell_length_b       12.7343
_cell_length_c       12.7343
_cell_angle_alpha    90
_cell_angle_beta     90
_cell_angle_gamma    90

_symmetry_space_group_name_H-M    "P 1"
_symmetry_int_tables_number       1

loop_
  _symmetry_equiv_pos_as_xyz
  'x, y, z'

loop_
  _atom_site_label
  _atom_site_occupancy
  _atom_site_fract_x
  _atom_site_fract_y
  _atom_site_fract_z
  _atom_site_thermal_displace_type
  _atom_site_B_iso_or_equiv
  _atom_site_type_symbol
  Cd1      1.0000 0.62500  0.12500  0.12500  Biso   1.000  Cd
  Cd2      1.0000 0.12500  0.62500  0.12500  Biso   1.000  Cd
  Cd3      1.0000 0.12500  0.12500  0.62500  Biso   1.000  Cd
  Cd4      1.0000 0.62500  0.62500  0.62500  Biso   1.000  Cd
  Cd5      1.0000 0.87500  0.87500  0.37500  Biso   1.000  Cd
  Cd6      1.0000 0.87500  0.37500  0.87500  Biso   1.000  Cd
  Cd7      1.0000 0.37500  0.87500  0.87500  Biso   1.000  Cd
  Cd8      1.0000 0.37500  0.37500  0.37500  Biso   1.000  Cd
  C1       1.0000 0.72380  0.22380  0.02620  Biso   1.000  C
  C2       1.0000 0.02620  0.02620  0.52620  Biso   1.000  C
  C3       1.0000 0.52620  0.52620  0.52620  Biso   1.000  C
  C4       1.0000 0.52620  0.72380  0.72380  Biso   1.000  C
  C5       1.0000 0.22380  0.52620  0.22380  Biso   1.000  C
  C6       1.0000 0.02620  0.72380  0.22380  Biso   1.000  C
  C7       1.0000 0.52620  0.02620  0.02620  Biso   1.000  C
  C8       1.0000 0.72380  0.52620  0.72380  Biso   1.000  C
  C9       1.0000 0.22380  0.22380  0.52620  Biso   1.000  C
  C10      1.0000 0.22380  0.02620  0.72380  Biso   1.000  C
  C11      1.0000 0.02620  0.52620  0.02620  Biso   1.000  C
  C12      1.0000 0.72380  0.72380  0.52620  Biso   1.000  C
  C13      1.0000 0.52620  0.22380  0.22380  Biso   1.000  C
  C14      1.0000 0.97380  0.97380  0.47380  Biso   1.000  C
  C15      1.0000 0.77620  0.27620  0.97380  Biso   1.000  C
  C16      1.0000 0.47380  0.77620  0.77620  Biso   1.000  C
  C17      1.0000 0.27620  0.47380  0.27620  Biso   1.000  C
  C18      1.0000 0.47380  0.27620  0.27620  Biso   1.000  C
  C19      1.0000 0.77620  0.77620  0.47380  Biso   1.000  C
  C20      1.0000 0.27620  0.97380  0.77620  Biso   1.000  C
  C21      1.0000 0.97380  0.47380  0.97380  Biso   1.000  C
  C22      1.0000 0.77620  0.47380  0.77620  Biso   1.000  C
  C23      1.0000 0.27620  0.27620  0.47380  Biso   1.000  C
  C24      1.0000 0.47380  0.97380  0.97380  Biso   1.000  C
  C25      1.0000 0.47380  0.47380  0.47380  Biso   1.000  C
  C26      1.0000 0.97380  0.77620  0.27620  Biso   1.000  C
  C27      1.0000 0.27620  0.77620  0.97380  Biso   1.000  C
  C28      1.0000 0.97380  0.27620  0.77620  Biso   1.000  C
  C29      1.0000 0.77620  0.97380  0.27620  Biso   1.000  C
  C30      1.0000 0.22380  0.72380  0.02620  Biso   1.000  C
  C31      1.0000 0.72380  0.02620  0.22380  Biso   1.000  C
  C32      1.0000 0.02620  0.22380  0.72380  Biso   1.000  C
