data_image0
_cell_length_a       13.0662
_cell_length_b       14.7659
_cell_length_c       15.3925
_cell_angle_alpha    90
_cell_angle_beta     90.296
_cell_angle_gamma    90

_symmetry_space_group_name_H-M    "P 1"
_symmetry_int_tables_number       1

loop_
  _symmetry_equiv_pos_as_xyz
  'x, y, z'

loop_
  _atom_site_label
  _atom_site_occupancy
  _atom_site_fract_x
  _atom_site_fract_y
  _atom_site_fract_z
  _atom_site_thermal_displace_type
  _atom_site_B_iso_or_equiv
  _atom_site_type_symbol
  Cu1      1.0000 0.51254  0.28600  0.90876  Biso   1.000  Cu
  N1       1.0000 0.59455  0.40318  0.04754  Biso   1.000  N
  N2       1.0000 0.60208  0.32237  0.01059  Biso   1.000  N
  N3       1.0000 0.66541  0.27022  0.05652  Biso   1.000  N
  N4       1.0000 0.65291  0.40671  0.11814  Biso   1.000  N
  N5       1.0000 0.40878  0.37453  0.95120  Biso   1.000  N
  N6       1.0000 0.32414  0.34856  0.96595  Biso   1.000  N
  N7       1.0000 0.24240  0.32460  0.98240  Biso   1.000  N
  N8       1.0000 0.42511  0.50225  0.11446  Biso   1.000  N
  N9       1.0000 0.37029  0.43172  0.14163  Biso   1.000  N
  N10      1.0000 0.41436  0.57196  0.16779  Biso   1.000  N
  N11      1.0000 0.35149  0.54832  0.23214  Biso   1.000  N
  N12      1.0000 0.12080  0.29261  0.35366  Biso   1.000  N
  N13      1.0000 0.91230  0.24892  0.31484  Biso   1.000  N
  C1       1.0000 0.69525  0.32403  0.12214  Biso   1.000  C
  C2       1.0000 0.76820  0.29687  0.18970  Biso   1.000  C
  C3       1.0000 0.80660  0.20906  0.19366  Biso   1.000  C
  H1       1.0000 0.78460  0.16450  0.15320  Biso   1.000  H
  C4       1.0000 0.80270  0.35921  0.25060  Biso   1.000  C
  H2       1.0000 0.77700  0.41940  0.25040  Biso   1.000  H
  C5       1.0000 0.32630  0.46180  0.21377  Biso   1.000  C
  C6       1.0000 0.25570  0.40510  0.26371  Biso   1.000  C
  C7       1.0000 0.21010  0.33007  0.22387  Biso   1.000  C
  H3       1.0000 0.22470  0.31620  0.16500  Biso   1.000  H
  C8       1.0000 0.14440  0.27678  0.27014  Biso   1.000  C
  H4       1.0000 0.11410  0.22620  0.24190  Biso   1.000  H
  C9       1.0000 0.16480  0.36415  0.39237  Biso   1.000  C
  H5       1.0000 0.14930  0.37600  0.45150  Biso   1.000  H
  C10      1.0000 0.23180  0.42147  0.35000  Biso   1.000  C
  H6       1.0000 0.26120  0.47160  0.37970  Biso   1.000  H
  C11      1.0000 0.87450  0.33295  0.31124  Biso   1.000  C
  H7       1.0000 0.89810  0.37630  0.35230  Biso   1.000  H
  C12      1.0000 0.87720  0.18788  0.25742  Biso   1.000  C
  H8       1.0000 0.90210  0.12750  0.26080  Biso   1.000  H
  Cu2      1.0000 0.98746  0.78600  0.59124  Biso   1.000  Cu
  N14      1.0000 0.90545  0.90318  0.45246  Biso   1.000  N
  N15      1.0000 0.89792  0.82237  0.48941  Biso   1.000  N
  N16      1.0000 0.83459  0.77022  0.44348  Biso   1.000  N
  N17      1.0000 0.84709  0.90671  0.38186  Biso   1.000  N
  N18      1.0000 0.09122  0.87453  0.54880  Biso   1.000  N
  N19      1.0000 0.17586  0.84856  0.53405  Biso   1.000  N
  N20      1.0000 0.25760  0.82460  0.51760  Biso   1.000  N
  N21      1.0000 0.07489  0.00225  0.38554  Biso   1.000  N
  N22      1.0000 0.12971  0.93172  0.35837  Biso   1.000  N
  N23      1.0000 0.08564  0.07196  0.33221  Biso   1.000  N
  N24      1.0000 0.14851  0.04832  0.26786  Biso   1.000  N
  N25      1.0000 0.37920  0.79261  0.14634  Biso   1.000  N
  N26      1.0000 0.58770  0.74892  0.18516  Biso   1.000  N
  C13      1.0000 0.80475  0.82403  0.37786  Biso   1.000  C
  C14      1.0000 0.73180  0.79687  0.31030  Biso   1.000  C
  C15      1.0000 0.69340  0.70906  0.30634  Biso   1.000  C
  H9       1.0000 0.71540  0.66450  0.34680  Biso   1.000  H
  C16      1.0000 0.69730  0.85921  0.24940  Biso   1.000  C
  H10      1.0000 0.72300  0.91940  0.24960  Biso   1.000  H
  C17      1.0000 0.17370  0.96180  0.28623  Biso   1.000  C
  C18      1.0000 0.24430  0.90510  0.23629  Biso   1.000  C
  C19      1.0000 0.28990  0.83007  0.27613  Biso   1.000  C
  H11      1.0000 0.27530  0.81620  0.33500  Biso   1.000  H
  C20      1.0000 0.35560  0.77678  0.22986  Biso   1.000  C
  H12      1.0000 0.38590  0.72620  0.25810  Biso   1.000  H
  C21      1.0000 0.33520  0.86415  0.10763  Biso   1.000  C
  H13      1.0000 0.35070  0.87600  0.04850  Biso   1.000  H
  C22      1.0000 0.26820  0.92147  0.15000  Biso   1.000  C
  H14      1.0000 0.23880  0.97160  0.12030  Biso   1.000  H
  C23      1.0000 0.62550  0.83295  0.18876  Biso   1.000  C
  H15      1.0000 0.60190  0.87630  0.14770  Biso   1.000  H
  C24      1.0000 0.62280  0.68788  0.24258  Biso   1.000  C
  H16      1.0000 0.59790  0.62750  0.23920  Biso   1.000  H
  Cu3      1.0000 0.48746  0.71400  0.09124  Biso   1.000  Cu
  N27      1.0000 0.40545  0.59682  0.95246  Biso   1.000  N
  N28      1.0000 0.39792  0.67763  0.98941  Biso   1.000  N
  N29      1.0000 0.33459  0.72978  0.94348  Biso   1.000  N
  N30      1.0000 0.34709  0.59329  0.88186  Biso   1.000  N
  N31      1.0000 0.59122  0.62547  0.04880  Biso   1.000  N
  N32      1.0000 0.67586  0.65144  0.03405  Biso   1.000  N
  N33      1.0000 0.75760  0.67540  0.01760  Biso   1.000  N
  N34      1.0000 0.57489  0.49775  0.88554  Biso   1.000  N
  N35      1.0000 0.62971  0.56828  0.85837  Biso   1.000  N
  N36      1.0000 0.58564  0.42804  0.83221  Biso   1.000  N
  N37      1.0000 0.64851  0.45168  0.76786  Biso   1.000  N
  N38      1.0000 0.87920  0.70739  0.64634  Biso   1.000  N
  N39      1.0000 0.08770  0.75108  0.68516  Biso   1.000  N
  C25      1.0000 0.30475  0.67597  0.87786  Biso   1.000  C
  C26      1.0000 0.23180  0.70313  0.81030  Biso   1.000  C
  C27      1.0000 0.19340  0.79094  0.80634  Biso   1.000  C
  H17      1.0000 0.21540  0.83550  0.84680  Biso   1.000  H
  C28      1.0000 0.19730  0.64079  0.74940  Biso   1.000  C
  H18      1.0000 0.22300  0.58060  0.74960  Biso   1.000  H
  C29      1.0000 0.67370  0.53820  0.78623  Biso   1.000  C
  C30      1.0000 0.74430  0.59490  0.73629  Biso   1.000  C
  C31      1.0000 0.78990  0.66993  0.77613  Biso   1.000  C
  H19      1.0000 0.77530  0.68380  0.83500  Biso   1.000  H
  C32      1.0000 0.85560  0.72322  0.72986  Biso   1.000  C
  H20      1.0000 0.88590  0.77380  0.75810  Biso   1.000  H
  C33      1.0000 0.83520  0.63585  0.60763  Biso   1.000  C
  H21      1.0000 0.85070  0.62400  0.54850  Biso   1.000  H
  C34      1.0000 0.76820  0.57853  0.65000  Biso   1.000  C
  H22      1.0000 0.73880  0.52840  0.62030  Biso   1.000  H
  C35      1.0000 0.12550  0.66705  0.68876  Biso   1.000  C
  H23      1.0000 0.10190  0.62370  0.64770  Biso   1.000  H
  C36      1.0000 0.12280  0.81212  0.74258  Biso   1.000  C
  H24      1.0000 0.09790  0.87250  0.73920  Biso   1.000  H
  Cu4      1.0000 0.01254  0.21400  0.40876  Biso   1.000  Cu
  N40      1.0000 0.09455  0.09682  0.54754  Biso   1.000  N
  N41      1.0000 0.10208  0.17763  0.51059  Biso   1.000  N
  N42      1.0000 0.16541  0.22978  0.55652  Biso   1.000  N
  N43      1.0000 0.15291  0.09329  0.61814  Biso   1.000  N
  N44      1.0000 0.90878  0.12547  0.45120  Biso   1.000  N
  N45      1.0000 0.82414  0.15144  0.46595  Biso   1.000  N
  N46      1.0000 0.74240  0.17540  0.48240  Biso   1.000  N
  N47      1.0000 0.92511  0.99775  0.61446  Biso   1.000  N
  N48      1.0000 0.87029  0.06828  0.64163  Biso   1.000  N
  N49      1.0000 0.91436  0.92804  0.66779  Biso   1.000  N
  N50      1.0000 0.85149  0.95168  0.73214  Biso   1.000  N
  N51      1.0000 0.62080  0.20739  0.85366  Biso   1.000  N
  N52      1.0000 0.41230  0.25108  0.81484  Biso   1.000  N
  C37      1.0000 0.19525  0.17597  0.62214  Biso   1.000  C
  C38      1.0000 0.26820  0.20313  0.68970  Biso   1.000  C
  C39      1.0000 0.30660  0.29094  0.69366  Biso   1.000  C
  H25      1.0000 0.28460  0.33550  0.65320  Biso   1.000  H
  C40      1.0000 0.30270  0.14079  0.75060  Biso   1.000  C
  H26      1.0000 0.27700  0.08060  0.75040  Biso   1.000  H
  C41      1.0000 0.82630  0.03820  0.71377  Biso   1.000  C
  C42      1.0000 0.75570  0.09490  0.76371  Biso   1.000  C
  C43      1.0000 0.71010  0.16993  0.72387  Biso   1.000  C
  H27      1.0000 0.72470  0.18380  0.66500  Biso   1.000  H
  C44      1.0000 0.64440  0.22322  0.77014  Biso   1.000  C
  H28      1.0000 0.61410  0.27380  0.74190  Biso   1.000  H
  C45      1.0000 0.66480  0.13585  0.89237  Biso   1.000  C
  H29      1.0000 0.64930  0.12400  0.95150  Biso   1.000  H
  C46      1.0000 0.73180  0.07853  0.85000  Biso   1.000  C
  H30      1.0000 0.76120  0.02840  0.87970  Biso   1.000  H
  C47      1.0000 0.37450  0.16705  0.81124  Biso   1.000  C
  H31      1.0000 0.39810  0.12370  0.85230  Biso   1.000  H
  C48      1.0000 0.37720  0.31212  0.75742  Biso   1.000  C
  H32      1.0000 0.40210  0.37250  0.76080  Biso   1.000  H
  Cu5      1.0000 0.50000  0.50000  0.00000  Biso   1.000  Cu
  Cu6      1.0000 0.00000  0.00000  0.50000  Biso   1.000  Cu
