data_image0
_cell_length_a       12.308
_cell_length_b       21.532
_cell_length_c       19.998
_cell_angle_alpha    90
_cell_angle_beta     90
_cell_angle_gamma    90

_symmetry_space_group_name_H-M    "P 1"
_symmetry_int_tables_number       1

loop_
  _symmetry_equiv_pos_as_xyz
  'x, y, z'

loop_
  _atom_site_label
  _atom_site_occupancy
  _atom_site_fract_x
  _atom_site_fract_y
  _atom_site_fract_z
  _atom_site_thermal_displace_type
  _atom_site_B_iso_or_equiv
  _atom_site_type_symbol
  V1       1.0000 0.49789  0.55603  0.33413  Biso   1.000  V
  V2       1.0000 0.78315  0.60508  0.33365  Biso   1.000  V
  V3       1.0000 0.62750  0.33762  0.15826  Biso   1.000  V
  V4       1.0000 0.88714  0.38288  0.15796  Biso   1.000  V
  V5       1.0000 0.70276  0.46474  0.07425  Biso   1.000  V
  O1       1.0000 0.94630  0.46010  0.31530  Biso   1.000  O
  O2       1.0000 0.83700  0.42110  0.07510  Biso   1.000  O
  O3       1.0000 0.77510  0.53660  0.39340  Biso   1.000  O
  O4       1.0000 0.39520  0.49120  0.31530  Biso   1.000  O
  O5       1.0000 0.78130  0.32030  0.14330  Biso   1.000  O
  O6       1.0000 0.72320  0.42990  0.18370  Biso   1.000  O
  O7       1.0000 0.62680  0.60260  0.32780  Biso   1.000  O
  O8       1.0000 0.50390  0.38300  0.18630  Biso   1.000  O
  O9       1.0000 0.63130  0.38480  0.07820  Biso   1.000  O
  O10      1.0000 0.57050  0.50480  0.39450  Biso   1.000  O
  O11      1.0000 0.93270  0.58570  0.31690  Biso   1.000  O
  N1       1.0000 0.24400  0.30780  0.46220  Biso   1.000  N
  N2       1.0000 0.27700  0.36730  0.44980  Biso   1.000  N
  N3       1.0000 0.41630  0.32240  0.49430  Biso   1.000  N
  C1       1.0000 0.33200  0.28210  0.49000  Biso   1.000  C
  C2       1.0000 0.37700  0.37410  0.47100  Biso   1.000  C
  H1       1.0000 0.41460  0.41130  0.46960  Biso   1.000  H
  N4       1.0000 0.75960  0.19370  0.45630  Biso   1.000  N
  N5       1.0000 0.93630  0.21060  0.44200  Biso   1.000  N
  C3       1.0000 0.84450  0.22710  0.47390  Biso   1.000  C
  N6       1.0000 0.79900  0.15620  0.40800  Biso   1.000  N
  C4       1.0000 0.90600  0.16530  0.40300  Biso   1.000  C
  H2       1.0000 0.95200  0.14280  0.37480  Biso   1.000  H
  Ag1      1.0000 0.09440  0.26157  0.42688  Biso   1.000  Ag
  Ag2      1.0000 0.58365  0.18851  0.47209  Biso   1.000  Ag
  Ag3      1.0000 0.45450  0.44930  0.44870  Biso   1.000  Ag
  W1       1.0000 0.49789  0.55603  0.16587  Biso   1.000  W
  W2       1.0000 0.78315  0.60508  0.16635  Biso   1.000  W
  W3       1.0000 0.62750  0.33762  0.34174  Biso   1.000  W
  W4       1.0000 0.88714  0.38288  0.34204  Biso   1.000  W
  W5       1.0000 0.70276  0.46474  0.42575  Biso   1.000  W
  V6       1.0000 0.50211  0.44397  0.83413  Biso   1.000  V
  V7       1.0000 0.21685  0.39492  0.83365  Biso   1.000  V
  V8       1.0000 0.37250  0.66238  0.65826  Biso   1.000  V
  V9       1.0000 0.11286  0.61712  0.65796  Biso   1.000  V
  V10      1.0000 0.29724  0.53526  0.57425  Biso   1.000  V
  O12      1.0000 0.05370  0.53990  0.81530  Biso   1.000  O
  O13      1.0000 0.16300  0.57890  0.57510  Biso   1.000  O
  O14      1.0000 0.22490  0.46340  0.89340  Biso   1.000  O
  O15      1.0000 0.60480  0.50880  0.81530  Biso   1.000  O
  O16      1.0000 0.21870  0.67970  0.64330  Biso   1.000  O
  O17      1.0000 0.27680  0.57010  0.68370  Biso   1.000  O
  O18      1.0000 0.37320  0.39740  0.82780  Biso   1.000  O
  O19      1.0000 0.49610  0.61700  0.68630  Biso   1.000  O
  O20      1.0000 0.36870  0.61520  0.57820  Biso   1.000  O
  O21      1.0000 0.42950  0.49520  0.89450  Biso   1.000  O
  O22      1.0000 0.06730  0.41430  0.81690  Biso   1.000  O
  N7       1.0000 0.75600  0.69220  0.96220  Biso   1.000  N
  N8       1.0000 0.72300  0.63270  0.94980  Biso   1.000  N
  N9       1.0000 0.58370  0.67760  0.99430  Biso   1.000  N
  C5       1.0000 0.66800  0.71790  0.99000  Biso   1.000  C
  C6       1.0000 0.62300  0.62590  0.97100  Biso   1.000  C
  H3       1.0000 0.58540  0.58870  0.96960  Biso   1.000  H
  N10      1.0000 0.24040  0.80630  0.95630  Biso   1.000  N
  N11      1.0000 0.06370  0.78940  0.94200  Biso   1.000  N
  C7       1.0000 0.15550  0.77290  0.97390  Biso   1.000  C
  N12      1.0000 0.20100  0.84380  0.90800  Biso   1.000  N
  C8       1.0000 0.09400  0.83470  0.90300  Biso   1.000  C
  H4       1.0000 0.04800  0.85720  0.87480  Biso   1.000  H
  Ag4      1.0000 0.90560  0.73843  0.92688  Biso   1.000  Ag
  Ag5      1.0000 0.41635  0.81149  0.97209  Biso   1.000  Ag
  Ag6      1.0000 0.54550  0.55070  0.94870  Biso   1.000  Ag
  W6       1.0000 0.50211  0.44397  0.66587  Biso   1.000  W
  W7       1.0000 0.21685  0.39492  0.66635  Biso   1.000  W
  W8       1.0000 0.37250  0.66238  0.84174  Biso   1.000  W
  W9       1.0000 0.11286  0.61712  0.84204  Biso   1.000  W
  W10      1.0000 0.29724  0.53526  0.92575  Biso   1.000  W
  V11      1.0000 0.50211  0.05603  0.16587  Biso   1.000  V
  V12      1.0000 0.21685  0.10508  0.16635  Biso   1.000  V
  V13      1.0000 0.37250  0.83762  0.34174  Biso   1.000  V
  V14      1.0000 0.11286  0.88288  0.34204  Biso   1.000  V
  V15      1.0000 0.29724  0.96474  0.42575  Biso   1.000  V
  O23      1.0000 0.05370  0.96010  0.18470  Biso   1.000  O
  O24      1.0000 0.16300  0.92110  0.42490  Biso   1.000  O
  O25      1.0000 0.22490  0.03660  0.10660  Biso   1.000  O
  O26      1.0000 0.60480  0.99120  0.18470  Biso   1.000  O
  O27      1.0000 0.21870  0.82030  0.35670  Biso   1.000  O
  O28      1.0000 0.27680  0.92990  0.31630  Biso   1.000  O
  O29      1.0000 0.37320  0.10260  0.17220  Biso   1.000  O
  O30      1.0000 0.49610  0.88300  0.31370  Biso   1.000  O
  O31      1.0000 0.36870  0.88480  0.42180  Biso   1.000  O
  O32      1.0000 0.42950  0.00480  0.10550  Biso   1.000  O
  O33      1.0000 0.06730  0.08570  0.18310  Biso   1.000  O
  N13      1.0000 0.75600  0.80780  0.03780  Biso   1.000  N
  N14      1.0000 0.72300  0.86730  0.05020  Biso   1.000  N
  N15      1.0000 0.58370  0.82240  0.00570  Biso   1.000  N
  C9       1.0000 0.66800  0.78210  0.01000  Biso   1.000  C
  C10      1.0000 0.62300  0.87410  0.02900  Biso   1.000  C
  H5       1.0000 0.58540  0.91130  0.03040  Biso   1.000  H
  N16      1.0000 0.24040  0.69370  0.04370  Biso   1.000  N
  N17      1.0000 0.06370  0.71060  0.05800  Biso   1.000  N
  C11      1.0000 0.15550  0.72710  0.02610  Biso   1.000  C
  N18      1.0000 0.20100  0.65620  0.09200  Biso   1.000  N
  C12      1.0000 0.09400  0.66530  0.09700  Biso   1.000  C
  H6       1.0000 0.04800  0.64280  0.12520  Biso   1.000  H
  Ag7      1.0000 0.90560  0.76157  0.07312  Biso   1.000  Ag
  Ag8      1.0000 0.41635  0.68851  0.02791  Biso   1.000  Ag
  Ag9      1.0000 0.54550  0.94930  0.05130  Biso   1.000  Ag
  W11      1.0000 0.50211  0.05603  0.33413  Biso   1.000  W
  W12      1.0000 0.21685  0.10508  0.33365  Biso   1.000  W
  W13      1.0000 0.37250  0.83762  0.15826  Biso   1.000  W
  W14      1.0000 0.11286  0.88288  0.15796  Biso   1.000  W
  W15      1.0000 0.29724  0.96474  0.07425  Biso   1.000  W
  V16      1.0000 0.49789  0.94397  0.66587  Biso   1.000  V
  V17      1.0000 0.78315  0.89492  0.66635  Biso   1.000  V
  V18      1.0000 0.62750  0.16238  0.84174  Biso   1.000  V
  V19      1.0000 0.88714  0.11712  0.84204  Biso   1.000  V
  V20      1.0000 0.70276  0.03526  0.92575  Biso   1.000  V
  O34      1.0000 0.94630  0.03990  0.68470  Biso   1.000  O
  O35      1.0000 0.83700  0.07890  0.92490  Biso   1.000  O
  O36      1.0000 0.77510  0.96340  0.60660  Biso   1.000  O
  O37      1.0000 0.39520  0.00880  0.68470  Biso   1.000  O
  O38      1.0000 0.78130  0.17970  0.85670  Biso   1.000  O
  O39      1.0000 0.72320  0.07010  0.81630  Biso   1.000  O
  O40      1.0000 0.62680  0.89740  0.67220  Biso   1.000  O
  O41      1.0000 0.50390  0.11700  0.81370  Biso   1.000  O
  O42      1.0000 0.63130  0.11520  0.92180  Biso   1.000  O
  O43      1.0000 0.57050  0.99520  0.60550  Biso   1.000  O
  O44      1.0000 0.93270  0.91430  0.68310  Biso   1.000  O
  N19      1.0000 0.24400  0.19220  0.53780  Biso   1.000  N
  N20      1.0000 0.27700  0.13270  0.55020  Biso   1.000  N
  N21      1.0000 0.41630  0.17760  0.50570  Biso   1.000  N
  C13      1.0000 0.33200  0.21790  0.51000  Biso   1.000  C
  C14      1.0000 0.37700  0.12590  0.52900  Biso   1.000  C
  H7       1.0000 0.41460  0.08870  0.53040  Biso   1.000  H
  N22      1.0000 0.75960  0.30630  0.54370  Biso   1.000  N
  N23      1.0000 0.93630  0.28940  0.55800  Biso   1.000  N
  C15      1.0000 0.84450  0.27290  0.52610  Biso   1.000  C
  N24      1.0000 0.79900  0.34380  0.59200  Biso   1.000  N
  C16      1.0000 0.90600  0.33470  0.59700  Biso   1.000  C
  H8       1.0000 0.95200  0.35720  0.62520  Biso   1.000  H
  Ag10     1.0000 0.09440  0.23843  0.57312  Biso   1.000  Ag
  Ag11     1.0000 0.58365  0.31149  0.52791  Biso   1.000  Ag
  Ag12     1.0000 0.45450  0.05070  0.55130  Biso   1.000  Ag
  W16      1.0000 0.49789  0.94397  0.83413  Biso   1.000  W
  W17      1.0000 0.78315  0.89492  0.83365  Biso   1.000  W
  W18      1.0000 0.62750  0.16238  0.65826  Biso   1.000  W
  W19      1.0000 0.88714  0.11712  0.65796  Biso   1.000  W
  W20      1.0000 0.70276  0.03526  0.57425  Biso   1.000  W
  O45      1.0000 0.05370  0.53990  0.68470  Biso   1.000  O
  O46      1.0000 0.16300  0.57890  0.92490  Biso   1.000  O
  O47      1.0000 0.22490  0.46340  0.60660  Biso   1.000  O
  O48      1.0000 0.60480  0.50880  0.68470  Biso   1.000  O
  O49      1.0000 0.21870  0.67970  0.85670  Biso   1.000  O
  O50      1.0000 0.27680  0.57010  0.81630  Biso   1.000  O
  O51      1.0000 0.37320  0.39740  0.67220  Biso   1.000  O
  O52      1.0000 0.49610  0.61700  0.81370  Biso   1.000  O
  O53      1.0000 0.36870  0.61520  0.92180  Biso   1.000  O
  O54      1.0000 0.42950  0.49520  0.60550  Biso   1.000  O
  O55      1.0000 0.06730  0.41430  0.68310  Biso   1.000  O
  N25      1.0000 0.75600  0.69220  0.53780  Biso   1.000  N
  N26      1.0000 0.72300  0.63270  0.55020  Biso   1.000  N
  N27      1.0000 0.58370  0.67760  0.50570  Biso   1.000  N
  C17      1.0000 0.66800  0.71790  0.51000  Biso   1.000  C
  C18      1.0000 0.62300  0.62590  0.52900  Biso   1.000  C
  H9       1.0000 0.58540  0.58870  0.53040  Biso   1.000  H
  N28      1.0000 0.24040  0.80630  0.54370  Biso   1.000  N
  N29      1.0000 0.06370  0.78940  0.55800  Biso   1.000  N
  C19      1.0000 0.15550  0.77290  0.52610  Biso   1.000  C
  N30      1.0000 0.20100  0.84380  0.59200  Biso   1.000  N
  C20      1.0000 0.09400  0.83470  0.59700  Biso   1.000  C
  H10      1.0000 0.04800  0.85720  0.62520  Biso   1.000  H
  Ag13     1.0000 0.90560  0.73843  0.57312  Biso   1.000  Ag
  Ag14     1.0000 0.41635  0.81149  0.52791  Biso   1.000  Ag
  Ag15     1.0000 0.54550  0.55070  0.55130  Biso   1.000  Ag
  O56      1.0000 0.94630  0.46010  0.18470  Biso   1.000  O
  O57      1.0000 0.83700  0.42110  0.42490  Biso   1.000  O
  O58      1.0000 0.77510  0.53660  0.10660  Biso   1.000  O
  O59      1.0000 0.39520  0.49120  0.18470  Biso   1.000  O
  O60      1.0000 0.78130  0.32030  0.35670  Biso   1.000  O
  O61      1.0000 0.72320  0.42990  0.31630  Biso   1.000  O
  O62      1.0000 0.62680  0.60260  0.17220  Biso   1.000  O
  O63      1.0000 0.50390  0.38300  0.31370  Biso   1.000  O
  O64      1.0000 0.63130  0.38480  0.42180  Biso   1.000  O
  O65      1.0000 0.57050  0.50480  0.10550  Biso   1.000  O
  O66      1.0000 0.93270  0.58570  0.18310  Biso   1.000  O
  N31      1.0000 0.24400  0.30780  0.03780  Biso   1.000  N
  N32      1.0000 0.27700  0.36730  0.05020  Biso   1.000  N
  N33      1.0000 0.41630  0.32240  0.00570  Biso   1.000  N
  C21      1.0000 0.33200  0.28210  0.01000  Biso   1.000  C
  C22      1.0000 0.37700  0.37410  0.02900  Biso   1.000  C
  H11      1.0000 0.41460  0.41130  0.03040  Biso   1.000  H
  N34      1.0000 0.75960  0.19370  0.04370  Biso   1.000  N
  N35      1.0000 0.93630  0.21060  0.05800  Biso   1.000  N
  C23      1.0000 0.84450  0.22710  0.02610  Biso   1.000  C
  N36      1.0000 0.79900  0.15620  0.09200  Biso   1.000  N
  C24      1.0000 0.90600  0.16530  0.09700  Biso   1.000  C
  H12      1.0000 0.95200  0.14280  0.12520  Biso   1.000  H
  Ag16     1.0000 0.09440  0.26157  0.07312  Biso   1.000  Ag
  Ag17     1.0000 0.58365  0.18851  0.02791  Biso   1.000  Ag
  Ag18     1.0000 0.45450  0.44930  0.05130  Biso   1.000  Ag
  O67      1.0000 0.94630  0.03990  0.81530  Biso   1.000  O
  O68      1.0000 0.83700  0.07890  0.57510  Biso   1.000  O
  O69      1.0000 0.77510  0.96340  0.89340  Biso   1.000  O
  O70      1.0000 0.39520  0.00880  0.81530  Biso   1.000  O
  O71      1.0000 0.78130  0.17970  0.64330  Biso   1.000  O
  O72      1.0000 0.72320  0.07010  0.68370  Biso   1.000  O
  O73      1.0000 0.62680  0.89740  0.82780  Biso   1.000  O
  O74      1.0000 0.50390  0.11700  0.68630  Biso   1.000  O
  O75      1.0000 0.63130  0.11520  0.57820  Biso   1.000  O
  O76      1.0000 0.57050  0.99520  0.89450  Biso   1.000  O
  O77      1.0000 0.93270  0.91430  0.81690  Biso   1.000  O
  N37      1.0000 0.24400  0.19220  0.96220  Biso   1.000  N
  N38      1.0000 0.27700  0.13270  0.94980  Biso   1.000  N
  N39      1.0000 0.41630  0.17760  0.99430  Biso   1.000  N
  C25      1.0000 0.33200  0.21790  0.99000  Biso   1.000  C
  C26      1.0000 0.37700  0.12590  0.97100  Biso   1.000  C
  H13      1.0000 0.41460  0.08870  0.96960  Biso   1.000  H
  N40      1.0000 0.75960  0.30630  0.95630  Biso   1.000  N
  N41      1.0000 0.93630  0.28940  0.94200  Biso   1.000  N
  C27      1.0000 0.84450  0.27290  0.97390  Biso   1.000  C
  N42      1.0000 0.79900  0.34380  0.90800  Biso   1.000  N
  C28      1.0000 0.90600  0.33470  0.90300  Biso   1.000  C
  H14      1.0000 0.95200  0.35720  0.87480  Biso   1.000  H
  Ag19     1.0000 0.09440  0.23843  0.92688  Biso   1.000  Ag
  Ag20     1.0000 0.58365  0.31149  0.97209  Biso   1.000  Ag
  Ag21     1.0000 0.45450  0.05070  0.94870  Biso   1.000  Ag
  O78      1.0000 0.05370  0.96010  0.31530  Biso   1.000  O
  O79      1.0000 0.16300  0.92110  0.07510  Biso   1.000  O
  O80      1.0000 0.22490  0.03660  0.39340  Biso   1.000  O
  O81      1.0000 0.60480  0.99120  0.31530  Biso   1.000  O
  O82      1.0000 0.21870  0.82030  0.14330  Biso   1.000  O
  O83      1.0000 0.27680  0.92990  0.18370  Biso   1.000  O
  O84      1.0000 0.37320  0.10260  0.32780  Biso   1.000  O
  O85      1.0000 0.49610  0.88300  0.18630  Biso   1.000  O
  O86      1.0000 0.36870  0.88480  0.07820  Biso   1.000  O
  O87      1.0000 0.42950  0.00480  0.39450  Biso   1.000  O
  O88      1.0000 0.06730  0.08570  0.31690  Biso   1.000  O
  N43      1.0000 0.75600  0.80780  0.46220  Biso   1.000  N
  N44      1.0000 0.72300  0.86730  0.44980  Biso   1.000  N
  N45      1.0000 0.58370  0.82240  0.49430  Biso   1.000  N
  C29      1.0000 0.66800  0.78210  0.49000  Biso   1.000  C
  C30      1.0000 0.62300  0.87410  0.47100  Biso   1.000  C
  H15      1.0000 0.58540  0.91130  0.46960  Biso   1.000  H
  N46      1.0000 0.24040  0.69370  0.45630  Biso   1.000  N
  N47      1.0000 0.06370  0.71060  0.44200  Biso   1.000  N
  C31      1.0000 0.15550  0.72710  0.47390  Biso   1.000  C
  N48      1.0000 0.20100  0.65620  0.40800  Biso   1.000  N
  C32      1.0000 0.09400  0.66530  0.40300  Biso   1.000  C
  H16      1.0000 0.04800  0.64280  0.37480  Biso   1.000  H
  Ag22     1.0000 0.90560  0.76157  0.42688  Biso   1.000  Ag
  Ag23     1.0000 0.41635  0.68851  0.47209  Biso   1.000  Ag
  Ag24     1.0000 0.54550  0.94930  0.44870  Biso   1.000  Ag
  V21      1.0000 0.42328  0.42870  0.25000  Biso   1.000  V
  V22      1.0000 0.96792  0.52306  0.25000  Biso   1.000  V
  Si1      1.0000 0.69950  0.47080  0.25000  Biso   1.000  Si
  O89      1.0000 0.64500  0.31700  0.25000  Biso   1.000  O
  O90      1.0000 0.89400  0.36080  0.25000  Biso   1.000  O
  O91      1.0000 0.45600  0.59140  0.25000  Biso   1.000  O
  O92      1.0000 0.57350  0.49490  0.25000  Biso   1.000  O
  O93      1.0000 0.78100  0.52950  0.25000  Biso   1.000  O
  O94      1.0000 0.78000  0.65000  0.25000  Biso   1.000  O
  V23      1.0000 0.57672  0.57130  0.75000  Biso   1.000  V
  V24      1.0000 0.03208  0.47694  0.75000  Biso   1.000  V
  Si2      1.0000 0.30050  0.52920  0.75000  Biso   1.000  Si
  O95      1.0000 0.35500  0.68300  0.75000  Biso   1.000  O
  O96      1.0000 0.10600  0.63920  0.75000  Biso   1.000  O
  O97      1.0000 0.54400  0.40860  0.75000  Biso   1.000  O
  O98      1.0000 0.42650  0.50510  0.75000  Biso   1.000  O
  O99      1.0000 0.21900  0.47050  0.75000  Biso   1.000  O
  O100     1.0000 0.22000  0.35000  0.75000  Biso   1.000  O
  V25      1.0000 0.57672  0.92870  0.25000  Biso   1.000  V
  V26      1.0000 0.03208  0.02306  0.25000  Biso   1.000  V
  Si3      1.0000 0.30050  0.97080  0.25000  Biso   1.000  Si
  O101     1.0000 0.35500  0.81700  0.25000  Biso   1.000  O
  O102     1.0000 0.10600  0.86080  0.25000  Biso   1.000  O
  O103     1.0000 0.54400  0.09140  0.25000  Biso   1.000  O
  O104     1.0000 0.42650  0.99490  0.25000  Biso   1.000  O
  O105     1.0000 0.21900  0.02950  0.25000  Biso   1.000  O
  O106     1.0000 0.22000  0.15000  0.25000  Biso   1.000  O
  V27      1.0000 0.42328  0.07130  0.75000  Biso   1.000  V
  V28      1.0000 0.96792  0.97694  0.75000  Biso   1.000  V
  Si4      1.0000 0.69950  0.02920  0.75000  Biso   1.000  Si
  O107     1.0000 0.64500  0.18300  0.75000  Biso   1.000  O
  O108     1.0000 0.89400  0.13920  0.75000  Biso   1.000  O
  O109     1.0000 0.45600  0.90860  0.75000  Biso   1.000  O
  O110     1.0000 0.57350  0.00510  0.75000  Biso   1.000  O
  O111     1.0000 0.78100  0.97050  0.75000  Biso   1.000  O
  O112     1.0000 0.78000  0.85000  0.75000  Biso   1.000  O
