data_PIZNOB_clean_h
_audit_creation_date              2014-07-02
_audit_creation_method            'Materials Studio'
_symmetry_space_group_name_H-M    'P1'
_symmetry_Int_Tables_number       1
_symmetry_cell_setting            triclinic
loop_
_symmetry_equiv_pos_as_xyz
  x,y,z
_cell_length_a                    8.7140
_cell_length_b                    10.2750
_cell_length_c                    9.3250
_cell_angle_alpha                 85.1600
_cell_angle_beta                  63.8100
_cell_angle_gamma                 72.3700
loop_
_atom_site_label
_atom_site_type_symbol
_atom_site_fract_x
_atom_site_fract_y
_atom_site_fract_z
_atom_site_U_iso_or_equiv
_atom_site_adp_type
_atom_site_occupancy
Eu1    Eu    0.75630   0.98090   0.00000   0.01267  Uiso   1.00
Eu2    Eu    0.24370   0.01910  -0.00000   0.01267  Uiso   1.00
C1     C     0.43870   0.92020   0.27210   0.01267  Uiso   1.00
C2     C     0.28160   0.91180   0.42250   0.01267  Uiso   1.00
C3     C     0.28120   0.91600   0.56450   0.01267  Uiso   1.00
C4     C     0.11810   0.92330   0.71790   0.01267  Uiso   1.00
C5     C     0.87580   0.68830   0.98410   0.01267  Uiso   1.00
C6     C     0.93850   0.53390   0.97700   0.01267  Uiso   1.00
C7     C     0.56130   0.07980   0.72790   0.01267  Uiso   1.00
C8     C     0.71840   0.08820   0.57750   0.01267  Uiso   1.00
C9     C     0.71880   0.08400   0.43550   0.01267  Uiso   1.00
C10    C     0.88190   0.07670   0.28210   0.01267  Uiso   1.00
C11    C     0.12420   0.31170   0.01590   0.01267  Uiso   1.00
C12    C     0.06150   0.46610   0.02300   0.01267  Uiso   1.00
O1     O     0.41700   0.95400   0.14730   0.01267  Uiso   1.00
O2     O     0.59000   0.90000   0.27000   0.01267  Uiso   1.00
O3     O     0.11780   0.95760   0.84530   0.01267  Uiso   1.00
O4     O     0.98320   0.90160   0.71990   0.01267  Uiso   1.00
O5     O     0.94770   0.75600   0.02700   0.01267  Uiso   1.00
O6     O     0.75010   0.74670   0.94440   0.01267  Uiso   1.00
O7     O     0.58300   0.04600   0.85270   0.01267  Uiso   1.00
O8     O     0.41000   0.10000   0.73000   0.01267  Uiso   1.00
O9     O     0.88220   0.04240   0.15470   0.01267  Uiso   1.00
O10    O     0.01680   0.09840   0.28010   0.01267  Uiso   1.00
O11    O     0.05230   0.24400   0.97300   0.01267  Uiso   1.00
O12    O     0.24990   0.25330   0.05560   0.01267  Uiso   1.00
H1     H     0.15728   0.90146   0.41775   0.01267  Uiso   1.00
H2     H     0.40865   0.91407   0.57256   0.01267  Uiso   1.00
H3     H     0.87863   0.47266   0.93059   0.01267  Uiso   1.00
H4     H     0.84272   0.09854   0.58225   0.01267  Uiso   1.00
H5     H     0.59135   0.08593   0.42744   0.01267  Uiso   1.00
H6     H     0.12449   0.52379   0.07011   0.01267  Uiso   1.00
