data_PIZPAP_clean_h
_audit_creation_date              2014-07-02
_audit_creation_method            'Materials Studio'
_symmetry_space_group_name_H-M    'P1'
_symmetry_Int_Tables_number       1
_symmetry_cell_setting            triclinic
loop_
_symmetry_equiv_pos_as_xyz
  x,y,z
_cell_length_a                    8.5230
_cell_length_b                    9.7640
_cell_length_c                    17.3140
_cell_angle_alpha                 90.0000
_cell_angle_beta                  90.0000
_cell_angle_gamma                 112.2500
loop_
_atom_site_label
_atom_site_type_symbol
_atom_site_fract_x
_atom_site_fract_y
_atom_site_fract_z
_atom_site_U_iso_or_equiv
_atom_site_adp_type
_atom_site_occupancy
Tb1    Tb    0.84310   0.02600   0.25770   0.01267  Uiso   1.00
Tb2    Tb    0.15690   0.47400   0.75770   0.01267  Uiso   1.00
Tb3    Tb    0.15690   0.97400   0.74230   0.01267  Uiso   1.00
Tb4    Tb    0.84310   0.52600   0.24230   0.01267  Uiso   1.00
C1     C     0.90590   0.02290   0.09750   0.01267  Uiso   1.00
C2     C     0.94630   0.02790   0.01310   0.01267  Uiso   1.00
C3     C     0.55770   0.20180   0.28970   0.01267  Uiso   1.00
C4     C     0.37440   0.10540   0.30180   0.01267  Uiso   1.00
C5     C     0.31340   0.96220   0.28320   0.01267  Uiso   1.00
C6     C     0.12970   0.86830   0.28650   0.01267  Uiso   1.00
C7     C     0.09410   0.47710   0.59750   0.01267  Uiso   1.00
C8     C     0.05370   0.47210   0.51310   0.01267  Uiso   1.00
C9     C     0.44230   0.29820   0.78970   0.01267  Uiso   1.00
C10    C     0.62560   0.39460   0.80180   0.01267  Uiso   1.00
C11    C     0.68660   0.53780   0.78320   0.01267  Uiso   1.00
C12    C     0.87030   0.63170   0.78650   0.01267  Uiso   1.00
C13    C     0.09410   0.97710   0.90250   0.01267  Uiso   1.00
C14    C     0.05370   0.97210   0.98690   0.01267  Uiso   1.00
C15    C     0.44230   0.79820   0.71030   0.01267  Uiso   1.00
C16    C     0.62560   0.89460   0.69820   0.01267  Uiso   1.00
C17    C     0.68660   0.03780   0.71680   0.01267  Uiso   1.00
C18    C     0.87030   0.13170   0.71350   0.01267  Uiso   1.00
C19    C     0.90590   0.52290   0.40250   0.01267  Uiso   1.00
C20    C     0.94630   0.52790   0.48690   0.01267  Uiso   1.00
C21    C     0.55770   0.70180   0.21030   0.01267  Uiso   1.00
C22    C     0.37440   0.60540   0.19820   0.01267  Uiso   1.00
C23    C     0.31340   0.46220   0.21680   0.01267  Uiso   1.00
C24    C     0.12970   0.36830   0.21350   0.01267  Uiso   1.00
O1     O     0.96440   0.95610   0.14410   0.01267  Uiso   1.00
O2     O     0.81370   0.09190   0.12040   0.01267  Uiso   1.00
O3     O     0.66110   0.14520   0.27030   0.01267  Uiso   1.00
O4     O     0.59850   0.33930   0.29670   0.01267  Uiso   1.00
O5     O     0.02350   0.92380   0.30520   0.01267  Uiso   1.00
O6     O     0.08980   0.73490   0.26950   0.01267  Uiso   1.00
O7     O     0.03560   0.54390   0.64410   0.01267  Uiso   1.00
O8     O     0.18630   0.40810   0.62040   0.01267  Uiso   1.00
O9     O     0.33890   0.35480   0.77030   0.01267  Uiso   1.00
O10    O     0.40150   0.16070   0.79670   0.01267  Uiso   1.00
O11    O     0.97650   0.57620   0.80520   0.01267  Uiso   1.00
O12    O     0.91020   0.76510   0.76950   0.01267  Uiso   1.00
O13    O     0.03560   0.04390   0.85590   0.01267  Uiso   1.00
O14    O     0.18630   0.90810   0.87960   0.01267  Uiso   1.00
O15    O     0.33890   0.85480   0.72970   0.01267  Uiso   1.00
O16    O     0.40150   0.66070   0.70330   0.01267  Uiso   1.00
O17    O     0.97650   0.07620   0.69480   0.01267  Uiso   1.00
O18    O     0.91020   0.26510   0.73050   0.01267  Uiso   1.00
O19    O     0.96440   0.45610   0.35590   0.01267  Uiso   1.00
O20    O     0.81370   0.59190   0.37960   0.01267  Uiso   1.00
O21    O     0.66110   0.64520   0.22970   0.01267  Uiso   1.00
O22    O     0.59850   0.83930   0.20330   0.01267  Uiso   1.00
O23    O     0.02350   0.42380   0.19480   0.01267  Uiso   1.00
O24    O     0.08980   0.23490   0.23050   0.01267  Uiso   1.00
H1     H     0.88337   0.08070   0.97079   0.01267  Uiso   1.00
H2     H     0.28387   0.15433   0.32743   0.01267  Uiso   1.00
H3     H     0.40333   0.90722   0.26384   0.01267  Uiso   1.00
H4     H     0.11663   0.41930   0.47079   0.01267  Uiso   1.00
H5     H     0.71613   0.34567   0.82743   0.01267  Uiso   1.00
H6     H     0.59667   0.59278   0.76384   0.01267  Uiso   1.00
H7     H     0.11663   0.91930   0.02921   0.01267  Uiso   1.00
H8     H     0.71613   0.84567   0.67257   0.01267  Uiso   1.00
H9     H     0.59667   0.09278   0.73616   0.01267  Uiso   1.00
H10    H     0.88236   0.58106   0.52851   0.01267  Uiso   1.00
H11    H     0.28387   0.65433   0.17257   0.01267  Uiso   1.00
H12    H     0.40333   0.40722   0.23616   0.01267  Uiso   1.00
