data_PIZPOD_clean_h
_audit_creation_date              2014-07-02
_audit_creation_method            'Materials Studio'
_symmetry_space_group_name_H-M    'P1'
_symmetry_Int_Tables_number       1
_symmetry_cell_setting            triclinic
loop_
_symmetry_equiv_pos_as_xyz
  x,y,z
_cell_length_a                    8.4260
_cell_length_b                    9.6290
_cell_length_c                    17.1590
_cell_angle_alpha                 90.0000
_cell_angle_beta                  90.0000
_cell_angle_gamma                 112.1400
loop_
_atom_site_label
_atom_site_type_symbol
_atom_site_fract_x
_atom_site_fract_y
_atom_site_fract_z
_atom_site_U_iso_or_equiv
_atom_site_adp_type
_atom_site_occupancy
Lu1    Lu    0.84420   0.02560   0.25710   0.01267  Uiso   1.00
Lu2    Lu    0.15580   0.47440   0.75710   0.01267  Uiso   1.00
Lu3    Lu    0.15580   0.97440   0.74290   0.01267  Uiso   1.00
Lu4    Lu    0.84420   0.52560   0.24290   0.01267  Uiso   1.00
C1     C     0.90670   0.02580   0.09840   0.01267  Uiso   1.00
C2     C     0.94660   0.03420   0.01440   0.01267  Uiso   1.00
C3     C     0.56340   0.19640   0.28890   0.01267  Uiso   1.00
C4     C     0.37790   0.10310   0.30060   0.01267  Uiso   1.00
C5     C     0.31200   0.95790   0.28270   0.01267  Uiso   1.00
C6     C     0.12780   0.36430   0.21420   0.01267  Uiso   1.00
C7     C     0.09330   0.47420   0.59840   0.01267  Uiso   1.00
C8     C     0.05340   0.46580   0.51440   0.01267  Uiso   1.00
C9     C     0.43660   0.30360   0.78890   0.01267  Uiso   1.00
C10    C     0.62210   0.39690   0.80060   0.01267  Uiso   1.00
C11    C     0.68800   0.54210   0.78270   0.01267  Uiso   1.00
C12    C     0.87220   0.13570   0.71420   0.01267  Uiso   1.00
C13    C     0.09330   0.97420   0.90160   0.01267  Uiso   1.00
C14    C     0.05340   0.96580   0.98560   0.01267  Uiso   1.00
C15    C     0.43660   0.80360   0.71110   0.01267  Uiso   1.00
C16    C     0.62210   0.89690   0.69940   0.01267  Uiso   1.00
C17    C     0.68800   0.04210   0.71730   0.01267  Uiso   1.00
C18    C     0.87220   0.63570   0.78580   0.01267  Uiso   1.00
C19    C     0.90670   0.52580   0.40160   0.01267  Uiso   1.00
C20    C     0.94660   0.53420   0.48560   0.01267  Uiso   1.00
C21    C     0.56340   0.69640   0.21110   0.01267  Uiso   1.00
C22    C     0.37790   0.60310   0.19940   0.01267  Uiso   1.00
C23    C     0.31200   0.45790   0.21730   0.01267  Uiso   1.00
C24    C     0.12780   0.86430   0.28580   0.01267  Uiso   1.00
O1     O     0.96570   0.95420   0.14530   0.01267  Uiso   1.00
O2     O     0.81350   0.09280   0.12330   0.01267  Uiso   1.00
O3     O     0.66250   0.13490   0.26960   0.01267  Uiso   1.00
O4     O     0.60690   0.33550   0.29630   0.01267  Uiso   1.00
O5     O     0.02240   0.42390   0.19470   0.01267  Uiso   1.00
O6     O     0.08540   0.23010   0.23120   0.01267  Uiso   1.00
O7     O     0.03430   0.54580   0.64530   0.01267  Uiso   1.00
O8     O     0.18650   0.40720   0.62330   0.01267  Uiso   1.00
O9     O     0.33750   0.36510   0.76960   0.01267  Uiso   1.00
O10    O     0.39310   0.16450   0.79630   0.01267  Uiso   1.00
O11    O     0.97760   0.07610   0.69470   0.01267  Uiso   1.00
O12    O     0.91460   0.26990   0.73120   0.01267  Uiso   1.00
O13    O     0.03430   0.04580   0.85470   0.01267  Uiso   1.00
O14    O     0.18650   0.90720   0.87670   0.01267  Uiso   1.00
O15    O     0.33750   0.86510   0.73040   0.01267  Uiso   1.00
O16    O     0.39310   0.66450   0.70370   0.01267  Uiso   1.00
O17    O     0.97760   0.57610   0.80530   0.01267  Uiso   1.00
O18    O     0.91460   0.76990   0.76880   0.01267  Uiso   1.00
O19    O     0.96570   0.45420   0.35470   0.01267  Uiso   1.00
O20    O     0.81350   0.59280   0.37670   0.01267  Uiso   1.00
O21    O     0.66250   0.63490   0.23040   0.01267  Uiso   1.00
O22    O     0.60690   0.83550   0.20370   0.01267  Uiso   1.00
O23    O     0.02240   0.92390   0.30530   0.01267  Uiso   1.00
O24    O     0.08540   0.73010   0.26880   0.01267  Uiso   1.00
H1     H     0.88996   0.09657   0.97339   0.01267  Uiso   1.00
H2     H     0.28842   0.15596   0.32551   0.01267  Uiso   1.00
H3     H     0.39979   0.89860   0.26354   0.01267  Uiso   1.00
H4     H     0.11004   0.40343   0.47339   0.01267  Uiso   1.00
H5     H     0.71158   0.34404   0.82551   0.01267  Uiso   1.00
H6     H     0.60021   0.60140   0.76354   0.01267  Uiso   1.00
H7     H     0.11004   0.90343   0.02661   0.01267  Uiso   1.00
H8     H     0.71158   0.84404   0.67449   0.01267  Uiso   1.00
H9     H     0.59217   0.09344   0.73594   0.01267  Uiso   1.00
H10    H     0.89029   0.59643   0.52686   0.01267  Uiso   1.00
H11    H     0.28842   0.65596   0.17449   0.01267  Uiso   1.00
H12    H     0.39979   0.39860   0.23646   0.01267  Uiso   1.00
