data_image0
_cell_length_a       8.438
_cell_length_b       17.081
_cell_length_c       9.585
_cell_angle_alpha    90
_cell_angle_beta     111.72
_cell_angle_gamma    90

_symmetry_space_group_name_H-M    "P 1"
_symmetry_int_tables_number       1

loop_
  _symmetry_equiv_pos_as_xyz
  'x, y, z'

loop_
  _atom_site_label
  _atom_site_occupancy
  _atom_site_fract_x
  _atom_site_fract_y
  _atom_site_fract_z
  _atom_site_thermal_displace_type
  _atom_site_B_iso_or_equiv
  _atom_site_type_symbol
  Er1      1.0000 0.66309  0.75800  0.97823  Biso   1.000  Er
  O1       1.0000 0.41490  0.73260  0.77190  Biso   1.000  O
  O2       1.0000 0.48150  0.69220  0.57840  Biso   1.000  O
  O3       1.0000 0.84230  0.72780  0.35940  Biso   1.000  O
  O4       1.0000 0.90580  0.70030  0.15930  Biso   1.000  O
  O5       1.0000 0.68880  0.62250  0.90480  Biso   1.000  O
  O6       1.0000 0.54170  0.64630  0.04910  Biso   1.000  O
  C1       1.0000 0.37750  0.71340  0.63600  Biso   1.000  C
  C2       1.0000 0.19100  0.71630  0.53940  Biso   1.000  C
  H1       1.0000 0.11470  0.73260  0.58290  Biso   1.000  H
  C3       1.0000 0.12980  0.69680  0.39590  Biso   1.000  C
  H2       1.0000 0.20310  0.67530  0.35370  Biso   1.000  H
  C4       1.0000 0.94630  0.70820  0.29930  Biso   1.000  C
  C5       1.0000 0.59770  0.59860  0.97490  Biso   1.000  C
  C6       1.0000 0.55290  0.51440  0.96940  Biso   1.000  C
  H3       1.0000 0.60100  0.48010  0.92080  Biso   1.000  H
  Er2      1.0000 0.33691  0.25800  0.52177  Biso   1.000  Er
  O7       1.0000 0.58510  0.23260  0.72810  Biso   1.000  O
  O8       1.0000 0.51850  0.19220  0.92160  Biso   1.000  O
  O9       1.0000 0.15770  0.22780  0.14060  Biso   1.000  O
  O10      1.0000 0.09420  0.20030  0.34070  Biso   1.000  O
  O11      1.0000 0.31120  0.12250  0.59520  Biso   1.000  O
  O12      1.0000 0.45830  0.14630  0.45090  Biso   1.000  O
  C7       1.0000 0.62250  0.21340  0.86400  Biso   1.000  C
  C8       1.0000 0.80900  0.21630  0.96060  Biso   1.000  C
  H4       1.0000 0.88530  0.23260  0.91710  Biso   1.000  H
  C9       1.0000 0.87020  0.19680  0.10410  Biso   1.000  C
  H5       1.0000 0.79690  0.17530  0.14630  Biso   1.000  H
  C10      1.0000 0.05370  0.20820  0.20070  Biso   1.000  C
  C11      1.0000 0.40230  0.09860  0.52510  Biso   1.000  C
  C12      1.0000 0.44710  0.01440  0.53060  Biso   1.000  C
  H6       1.0000 0.39900  0.98010  0.57920  Biso   1.000  H
  Er3      1.0000 0.33691  0.24200  0.02177  Biso   1.000  Er
  O13      1.0000 0.58510  0.26740  0.22810  Biso   1.000  O
  O14      1.0000 0.51850  0.30780  0.42160  Biso   1.000  O
  O15      1.0000 0.15770  0.27220  0.64060  Biso   1.000  O
  O16      1.0000 0.09420  0.29970  0.84070  Biso   1.000  O
  O17      1.0000 0.31120  0.37750  0.09520  Biso   1.000  O
  O18      1.0000 0.45830  0.35370  0.95090  Biso   1.000  O
  C13      1.0000 0.62250  0.28660  0.36400  Biso   1.000  C
  C14      1.0000 0.80900  0.28370  0.46060  Biso   1.000  C
  H7       1.0000 0.88530  0.26740  0.41710  Biso   1.000  H
  C15      1.0000 0.87020  0.30320  0.60410  Biso   1.000  C
  H8       1.0000 0.79690  0.32470  0.64630  Biso   1.000  H
  C16      1.0000 0.05370  0.29180  0.70070  Biso   1.000  C
  C17      1.0000 0.40230  0.40140  0.02510  Biso   1.000  C
  C18      1.0000 0.44710  0.48560  0.03060  Biso   1.000  C
  H9       1.0000 0.39900  0.51990  0.07920  Biso   1.000  H
  Er4      1.0000 0.66309  0.74200  0.47823  Biso   1.000  Er
  O19      1.0000 0.41490  0.76740  0.27190  Biso   1.000  O
  O20      1.0000 0.48150  0.80780  0.07840  Biso   1.000  O
  O21      1.0000 0.84230  0.77220  0.85940  Biso   1.000  O
  O22      1.0000 0.90580  0.79970  0.65930  Biso   1.000  O
  O23      1.0000 0.68880  0.87750  0.40480  Biso   1.000  O
  O24      1.0000 0.54170  0.85370  0.54910  Biso   1.000  O
  C19      1.0000 0.37750  0.78660  0.13600  Biso   1.000  C
  C20      1.0000 0.19100  0.78370  0.03940  Biso   1.000  C
  H10      1.0000 0.11470  0.76740  0.08290  Biso   1.000  H
  C21      1.0000 0.12980  0.80320  0.89590  Biso   1.000  C
  H11      1.0000 0.20310  0.82470  0.85370  Biso   1.000  H
  C22      1.0000 0.94630  0.79180  0.79930  Biso   1.000  C
  C23      1.0000 0.59770  0.90140  0.47490  Biso   1.000  C
  C24      1.0000 0.55290  0.98560  0.46940  Biso   1.000  C
  H12      1.0000 0.60100  0.01990  0.42080  Biso   1.000  H
