data_POBMOJ01_clean
_audit_creation_date              2014-07-02
_audit_creation_method            'Materials Studio'
_symmetry_space_group_name_H-M    'P1'
_symmetry_Int_Tables_number       1
_symmetry_cell_setting            triclinic
loop_
_symmetry_equiv_pos_as_xyz
  x,y,z
_cell_length_a                    22.7118
_cell_length_b                    22.7118
_cell_length_c                    22.7118
_cell_angle_alpha                 109.4710
_cell_angle_beta                  109.4710
_cell_angle_gamma                 109.4710
loop_
_atom_site_label
_atom_site_type_symbol
_atom_site_fract_x
_atom_site_fract_y
_atom_site_fract_z
_atom_site_U_iso_or_equiv
_atom_site_adp_type
_atom_site_occupancy
Yb1    Yb    0.89710   0.50000   0.39710   0.01267  Uiso   1.00
Yb2    Yb    0.10290   0.50000   0.60290   0.01267  Uiso   1.00
Yb3    Yb    0.39710   0.89710   0.50000   0.01267  Uiso   1.00
Yb4    Yb    0.60290   0.10290   0.50000   0.01267  Uiso   1.00
Yb5    Yb    0.50000   0.60290   0.10290   0.01267  Uiso   1.00
Yb6    Yb    0.50000   0.39710   0.89710   0.01267  Uiso   1.00
Yb7    Yb    0.50000   0.10290   0.60290   0.01267  Uiso   1.00
Yb8    Yb    0.50000   0.89710   0.39710   0.01267  Uiso   1.00
Yb9    Yb    0.10290   0.60290   0.50000   0.01267  Uiso   1.00
Yb10   Yb    0.89710   0.39710   0.50000   0.01267  Uiso   1.00
Yb11   Yb    0.39710   0.50000   0.89710   0.01267  Uiso   1.00
Yb12   Yb    0.60290   0.50000   0.10290   0.01267  Uiso   1.00
H1     H     0.74600   0.55100   0.44340   0.01267  Uiso   1.00
H2     H     0.67310   0.58620   0.47930   0.01267  Uiso   1.00
H3     H     0.10760   0.30260   0.55660   0.01267  Uiso   1.00
H4     H     0.10690   0.19380   0.52070   0.01267  Uiso   1.00
H5     H     0.89240   0.44900   0.19500   0.01267  Uiso   1.00
H6     H     0.89310   0.41380   0.08690   0.01267  Uiso   1.00
H7     H     0.25400   0.69740   0.80500   0.01267  Uiso   1.00
H8     H     0.32690   0.80620   0.91310   0.01267  Uiso   1.00
H9     H     0.19500   0.89240   0.44900   0.01267  Uiso   1.00
H10    H     0.08690   0.89310   0.41380   0.01267  Uiso   1.00
H11    H     0.80500   0.25400   0.69740   0.01267  Uiso   1.00
H12    H     0.91310   0.32690   0.80620   0.01267  Uiso   1.00
H13    H     0.44340   0.74600   0.55100   0.01267  Uiso   1.00
H14    H     0.47930   0.67310   0.58620   0.01267  Uiso   1.00
H15    H     0.55660   0.10760   0.30260   0.01267  Uiso   1.00
H16    H     0.52070   0.10690   0.19380   0.01267  Uiso   1.00
H17    H     0.30260   0.55660   0.10760   0.01267  Uiso   1.00
H18    H     0.19380   0.52070   0.10690   0.01267  Uiso   1.00
H19    H     0.55100   0.44340   0.74600   0.01267  Uiso   1.00
H20    H     0.58620   0.47930   0.67310   0.01267  Uiso   1.00
H21    H     0.69740   0.80500   0.25400   0.01267  Uiso   1.00
H22    H     0.80620   0.91310   0.32690   0.01267  Uiso   1.00
H23    H     0.44900   0.19500   0.89240   0.01267  Uiso   1.00
H24    H     0.41380   0.08690   0.89310   0.01267  Uiso   1.00
H25    H     0.44900   0.25400   0.55660   0.01267  Uiso   1.00
H26    H     0.41380   0.32690   0.52070   0.01267  Uiso   1.00
H27    H     0.69740   0.89240   0.44340   0.01267  Uiso   1.00
H28    H     0.80620   0.89310   0.47930   0.01267  Uiso   1.00
H29    H     0.55100   0.10760   0.80500   0.01267  Uiso   1.00
H30    H     0.58620   0.10690   0.91310   0.01267  Uiso   1.00
H31    H     0.30260   0.74600   0.19500   0.01267  Uiso   1.00
H32    H     0.19380   0.67310   0.08690   0.01267  Uiso   1.00
H33    H     0.10760   0.80500   0.55100   0.01267  Uiso   1.00
H34    H     0.10690   0.91310   0.58620   0.01267  Uiso   1.00
H35    H     0.74600   0.19500   0.30260   0.01267  Uiso   1.00
H36    H     0.67310   0.08690   0.19380   0.01267  Uiso   1.00
H37    H     0.25400   0.55660   0.44900   0.01267  Uiso   1.00
H38    H     0.32690   0.52070   0.41380   0.01267  Uiso   1.00
H39    H     0.89240   0.44340   0.69740   0.01267  Uiso   1.00
H40    H     0.89310   0.47930   0.80620   0.01267  Uiso   1.00
H41    H     0.44340   0.69740   0.89240   0.01267  Uiso   1.00
H42    H     0.47930   0.80620   0.89310   0.01267  Uiso   1.00
H43    H     0.55660   0.44900   0.25400   0.01267  Uiso   1.00
H44    H     0.52070   0.41380   0.32690   0.01267  Uiso   1.00
H45    H     0.19500   0.30260   0.74600   0.01267  Uiso   1.00
H46    H     0.08690   0.19380   0.67310   0.01267  Uiso   1.00
H47    H     0.80500   0.55100   0.10760   0.01267  Uiso   1.00
H48    H     0.91310   0.58620   0.10690   0.01267  Uiso   1.00
H49    H     0.25400   0.44900   0.55660   0.01267  Uiso   1.00
H50    H     0.32690   0.41380   0.52070   0.01267  Uiso   1.00
H51    H     0.89240   0.69740   0.44340   0.01267  Uiso   1.00
H52    H     0.89310   0.80620   0.47930   0.01267  Uiso   1.00
H53    H     0.10760   0.55100   0.80500   0.01267  Uiso   1.00
H54    H     0.10690   0.58620   0.91310   0.01267  Uiso   1.00
H55    H     0.74600   0.30260   0.19500   0.01267  Uiso   1.00
H56    H     0.67310   0.19380   0.08690   0.01267  Uiso   1.00
H57    H     0.80500   0.10760   0.55100   0.01267  Uiso   1.00
H58    H     0.91310   0.10690   0.58620   0.01267  Uiso   1.00
H59    H     0.19500   0.74600   0.30260   0.01267  Uiso   1.00
H60    H     0.08690   0.67310   0.19380   0.01267  Uiso   1.00
H61    H     0.55660   0.25400   0.44900   0.01267  Uiso   1.00
H62    H     0.52070   0.32690   0.41380   0.01267  Uiso   1.00
H63    H     0.44340   0.89240   0.69740   0.01267  Uiso   1.00
H64    H     0.47930   0.89310   0.80620   0.01267  Uiso   1.00
H65    H     0.69740   0.44340   0.89240   0.01267  Uiso   1.00
H66    H     0.80620   0.47930   0.89310   0.01267  Uiso   1.00
H67    H     0.44900   0.55660   0.25400   0.01267  Uiso   1.00
H68    H     0.41380   0.52070   0.32690   0.01267  Uiso   1.00
H69    H     0.30260   0.19500   0.74600   0.01267  Uiso   1.00
H70    H     0.19380   0.08690   0.67310   0.01267  Uiso   1.00
H71    H     0.55100   0.80500   0.10760   0.01267  Uiso   1.00
H72    H     0.58620   0.91310   0.10690   0.01267  Uiso   1.00
H73    H     0.55100   0.74600   0.44340   0.01267  Uiso   1.00
H74    H     0.58620   0.67310   0.47930   0.01267  Uiso   1.00
H75    H     0.30260   0.10760   0.55660   0.01267  Uiso   1.00
H76    H     0.19380   0.10690   0.52070   0.01267  Uiso   1.00
H77    H     0.44900   0.89240   0.19500   0.01267  Uiso   1.00
H78    H     0.41380   0.89310   0.08690   0.01267  Uiso   1.00
H79    H     0.69740   0.25400   0.80500   0.01267  Uiso   1.00
H80    H     0.80620   0.32690   0.91310   0.01267  Uiso   1.00
H81    H     0.89240   0.19500   0.44900   0.01267  Uiso   1.00
H82    H     0.89310   0.08690   0.41380   0.01267  Uiso   1.00
H83    H     0.25400   0.80500   0.69740   0.01267  Uiso   1.00
H84    H     0.32690   0.91310   0.80620   0.01267  Uiso   1.00
H85    H     0.74600   0.44340   0.55100   0.01267  Uiso   1.00
H86    H     0.67310   0.47930   0.58620   0.01267  Uiso   1.00
H87    H     0.10760   0.55660   0.30260   0.01267  Uiso   1.00
H88    H     0.10690   0.52070   0.19380   0.01267  Uiso   1.00
H89    H     0.55660   0.30260   0.10760   0.01267  Uiso   1.00
H90    H     0.52070   0.19380   0.10690   0.01267  Uiso   1.00
H91    H     0.44340   0.55100   0.74600   0.01267  Uiso   1.00
H92    H     0.47930   0.58620   0.67310   0.01267  Uiso   1.00
H93    H     0.80500   0.69740   0.25400   0.01267  Uiso   1.00
H94    H     0.91310   0.80620   0.32690   0.01267  Uiso   1.00
H95    H     0.19500   0.44900   0.89240   0.01267  Uiso   1.00
H96    H     0.08690   0.41380   0.89310   0.01267  Uiso   1.00
C1     C     0.73260   0.53730   0.47370   0.01267  Uiso   1.00
C2     C     0.68800   0.55720   0.49420   0.01267  Uiso   1.00
C3     C     0.06360   0.25890   0.52630   0.01267  Uiso   1.00
C4     C     0.06300   0.19380   0.50580   0.01267  Uiso   1.00
C5     C     0.93640   0.46270   0.19530   0.01267  Uiso   1.00
C6     C     0.93700   0.44280   0.13080   0.01267  Uiso   1.00
C7     C     0.26740   0.74110   0.80470   0.01267  Uiso   1.00
C8     C     0.31200   0.80620   0.86920   0.01267  Uiso   1.00
C9     C     0.19530   0.93640   0.46270   0.01267  Uiso   1.00
C10    C     0.13080   0.93700   0.44280   0.01267  Uiso   1.00
C11    C     0.80470   0.26740   0.74110   0.01267  Uiso   1.00
C12    C     0.86920   0.31200   0.80620   0.01267  Uiso   1.00
C13    C     0.47370   0.73260   0.53730   0.01267  Uiso   1.00
C14    C     0.49420   0.68800   0.55720   0.01267  Uiso   1.00
C15    C     0.52630   0.06360   0.25890   0.01267  Uiso   1.00
C16    C     0.50580   0.06300   0.19380   0.01267  Uiso   1.00
C17    C     0.25890   0.52630   0.06360   0.01267  Uiso   1.00
C18    C     0.19380   0.50580   0.06300   0.01267  Uiso   1.00
C19    C     0.53730   0.47370   0.73260   0.01267  Uiso   1.00
C20    C     0.55720   0.49420   0.68800   0.01267  Uiso   1.00
C21    C     0.74110   0.80470   0.26740   0.01267  Uiso   1.00
C22    C     0.80620   0.86920   0.31200   0.01267  Uiso   1.00
C23    C     0.46270   0.19530   0.93640   0.01267  Uiso   1.00
C24    C     0.44280   0.13080   0.93700   0.01267  Uiso   1.00
C25    C     0.46270   0.26740   0.52630   0.01267  Uiso   1.00
C26    C     0.44280   0.31200   0.50580   0.01267  Uiso   1.00
C27    C     0.74110   0.93640   0.47370   0.01267  Uiso   1.00
C28    C     0.80620   0.93700   0.49420   0.01267  Uiso   1.00
C29    C     0.53730   0.06360   0.80470   0.01267  Uiso   1.00
C30    C     0.55720   0.06300   0.86920   0.01267  Uiso   1.00
C31    C     0.25890   0.73260   0.19530   0.01267  Uiso   1.00
C32    C     0.19380   0.68800   0.13080   0.01267  Uiso   1.00
C33    C     0.06360   0.80470   0.53730   0.01267  Uiso   1.00
C34    C     0.06300   0.86920   0.55720   0.01267  Uiso   1.00
C35    C     0.73260   0.19530   0.25890   0.01267  Uiso   1.00
C36    C     0.68800   0.13080   0.19380   0.01267  Uiso   1.00
C37    C     0.26740   0.52630   0.46270   0.01267  Uiso   1.00
C38    C     0.31200   0.50580   0.44280   0.01267  Uiso   1.00
C39    C     0.93640   0.47370   0.74110   0.01267  Uiso   1.00
C40    C     0.93700   0.49420   0.80620   0.01267  Uiso   1.00
C41    C     0.47370   0.74110   0.93640   0.01267  Uiso   1.00
C42    C     0.49420   0.80620   0.93700   0.01267  Uiso   1.00
C43    C     0.52630   0.46270   0.26740   0.01267  Uiso   1.00
C44    C     0.50580   0.44280   0.31200   0.01267  Uiso   1.00
C45    C     0.19530   0.25890   0.73260   0.01267  Uiso   1.00
C46    C     0.13080   0.19380   0.68800   0.01267  Uiso   1.00
C47    C     0.80470   0.53730   0.06360   0.01267  Uiso   1.00
C48    C     0.86920   0.55720   0.06300   0.01267  Uiso   1.00
C49    C     0.26740   0.46270   0.52630   0.01267  Uiso   1.00
C50    C     0.31200   0.44280   0.50580   0.01267  Uiso   1.00
C51    C     0.93640   0.74110   0.47370   0.01267  Uiso   1.00
C52    C     0.93700   0.80620   0.49420   0.01267  Uiso   1.00
C53    C     0.06360   0.53730   0.80470   0.01267  Uiso   1.00
C54    C     0.06300   0.55720   0.86920   0.01267  Uiso   1.00
C55    C     0.73260   0.25890   0.19530   0.01267  Uiso   1.00
C56    C     0.68800   0.19380   0.13080   0.01267  Uiso   1.00
C57    C     0.80470   0.06360   0.53730   0.01267  Uiso   1.00
C58    C     0.86920   0.06300   0.55720   0.01267  Uiso   1.00
C59    C     0.19530   0.73260   0.25890   0.01267  Uiso   1.00
C60    C     0.13080   0.68800   0.19380   0.01267  Uiso   1.00
C61    C     0.52630   0.26740   0.46270   0.01267  Uiso   1.00
C62    C     0.50580   0.31200   0.44280   0.01267  Uiso   1.00
C63    C     0.47370   0.93640   0.74110   0.01267  Uiso   1.00
C64    C     0.49420   0.93700   0.80620   0.01267  Uiso   1.00
C65    C     0.74110   0.47370   0.93640   0.01267  Uiso   1.00
C66    C     0.80620   0.49420   0.93700   0.01267  Uiso   1.00
C67    C     0.46270   0.52630   0.26740   0.01267  Uiso   1.00
C68    C     0.44280   0.50580   0.31200   0.01267  Uiso   1.00
C69    C     0.25890   0.19530   0.73260   0.01267  Uiso   1.00
C70    C     0.19380   0.13080   0.68800   0.01267  Uiso   1.00
C71    C     0.53730   0.80470   0.06360   0.01267  Uiso   1.00
C72    C     0.55720   0.86920   0.06300   0.01267  Uiso   1.00
C73    C     0.53730   0.73260   0.47370   0.01267  Uiso   1.00
C74    C     0.55720   0.68800   0.49420   0.01267  Uiso   1.00
C75    C     0.25890   0.06360   0.52630   0.01267  Uiso   1.00
C76    C     0.19380   0.06300   0.50580   0.01267  Uiso   1.00
C77    C     0.46270   0.93640   0.19530   0.01267  Uiso   1.00
C78    C     0.44280   0.93700   0.13080   0.01267  Uiso   1.00
C79    C     0.74110   0.26740   0.80470   0.01267  Uiso   1.00
C80    C     0.80620   0.31200   0.86920   0.01267  Uiso   1.00
C81    C     0.93640   0.19530   0.46270   0.01267  Uiso   1.00
C82    C     0.93700   0.13080   0.44280   0.01267  Uiso   1.00
C83    C     0.26740   0.80470   0.74110   0.01267  Uiso   1.00
C84    C     0.31200   0.86920   0.80620   0.01267  Uiso   1.00
C85    C     0.73260   0.47370   0.53730   0.01267  Uiso   1.00
C86    C     0.68800   0.49420   0.55720   0.01267  Uiso   1.00
C87    C     0.06360   0.52630   0.25890   0.01267  Uiso   1.00
C88    C     0.06300   0.50580   0.19380   0.01267  Uiso   1.00
C89    C     0.52630   0.25890   0.06360   0.01267  Uiso   1.00
C90    C     0.50580   0.19380   0.06300   0.01267  Uiso   1.00
C91    C     0.47370   0.53730   0.73260   0.01267  Uiso   1.00
C92    C     0.49420   0.55720   0.68800   0.01267  Uiso   1.00
C93    C     0.80470   0.74110   0.26740   0.01267  Uiso   1.00
C94    C     0.86920   0.80620   0.31200   0.01267  Uiso   1.00
C95    C     0.19530   0.46270   0.93640   0.01267  Uiso   1.00
C96    C     0.13080   0.44280   0.93700   0.01267  Uiso   1.00
C97    C     0.66540   0.53540   0.53540   0.01267  Uiso   1.00
C98    C     0.61360   0.55450   0.55450   0.01267  Uiso   1.00
C99    C     0.79940   0.47290   0.47290   0.01267  Uiso   1.00
C100   C     0.75680   0.49760   0.49760   0.01267  Uiso   1.00
C101   C     0.00000   0.13000   0.46460   0.01267  Uiso   1.00
C102   C     0.00000   0.05910   0.44550   0.01267  Uiso   1.00
C103   C     0.00000   0.32650   0.52710   0.01267  Uiso   1.00
C104   C     0.00000   0.25920   0.50240   0.01267  Uiso   1.00
C105   C     0.00000   0.46460   0.13000   0.01267  Uiso   1.00
C106   C     0.00000   0.44550   0.05910   0.01267  Uiso   1.00
C107   C     0.00000   0.52710   0.32650   0.01267  Uiso   1.00
C108   C     0.00000   0.50240   0.25920   0.01267  Uiso   1.00
C109   C     0.33460   0.87000   0.87000   0.01267  Uiso   1.00
C110   C     0.38640   0.94090   0.94090   0.01267  Uiso   1.00
C111   C     0.20060   0.67350   0.67350   0.01267  Uiso   1.00
C112   C     0.24320   0.74080   0.74080   0.01267  Uiso   1.00
C113   C     0.13000   0.00000   0.46460   0.01267  Uiso   1.00
C114   C     0.05910   0.00000   0.44550   0.01267  Uiso   1.00
C115   C     0.32650   0.00000   0.52710   0.01267  Uiso   1.00
C116   C     0.25920   0.00000   0.50240   0.01267  Uiso   1.00
C117   C     0.87000   0.33460   0.87000   0.01267  Uiso   1.00
C118   C     0.94090   0.38640   0.94090   0.01267  Uiso   1.00
C119   C     0.67350   0.20060   0.67350   0.01267  Uiso   1.00
C120   C     0.74080   0.24320   0.74080   0.01267  Uiso   1.00
C121   C     0.53540   0.66540   0.53540   0.01267  Uiso   1.00
C122   C     0.55450   0.61360   0.55450   0.01267  Uiso   1.00
C123   C     0.47290   0.79940   0.47290   0.01267  Uiso   1.00
C124   C     0.49760   0.75680   0.49760   0.01267  Uiso   1.00
C125   C     0.46460   0.00000   0.13000   0.01267  Uiso   1.00
C126   C     0.44550   0.00000   0.05910   0.01267  Uiso   1.00
C127   C     0.52710   0.00000   0.32650   0.01267  Uiso   1.00
C128   C     0.50240   0.00000   0.25920   0.01267  Uiso   1.00
C129   C     0.13000   0.46460   0.00000   0.01267  Uiso   1.00
C130   C     0.05910   0.44550   0.00000   0.01267  Uiso   1.00
C131   C     0.32650   0.52710   0.00000   0.01267  Uiso   1.00
C132   C     0.25920   0.50240   0.00000   0.01267  Uiso   1.00
C133   C     0.53540   0.53540   0.66540   0.01267  Uiso   1.00
C134   C     0.55450   0.55450   0.61360   0.01267  Uiso   1.00
C135   C     0.47290   0.47290   0.79940   0.01267  Uiso   1.00
C136   C     0.49760   0.49760   0.75680   0.01267  Uiso   1.00
C137   C     0.87000   0.87000   0.33460   0.01267  Uiso   1.00
C138   C     0.94090   0.94090   0.38640   0.01267  Uiso   1.00
C139   C     0.67350   0.67350   0.20060   0.01267  Uiso   1.00
C140   C     0.74080   0.74080   0.24320   0.01267  Uiso   1.00
C141   C     0.46460   0.13000   0.00000   0.01267  Uiso   1.00
C142   C     0.44550   0.05910   0.00000   0.01267  Uiso   1.00
C143   C     0.52710   0.32650   0.00000   0.01267  Uiso   1.00
C144   C     0.50240   0.25920   0.00000   0.01267  Uiso   1.00
C145   C     0.46460   0.33460   0.46460   0.01267  Uiso   1.00
C146   C     0.44550   0.38640   0.44550   0.01267  Uiso   1.00
C147   C     0.52710   0.20060   0.52710   0.01267  Uiso   1.00
C148   C     0.50240   0.24320   0.50240   0.01267  Uiso   1.00
C149   C     0.87000   0.00000   0.53540   0.01267  Uiso   1.00
C150   C     0.94090   0.00000   0.55450   0.01267  Uiso   1.00
C151   C     0.67350   0.00000   0.47290   0.01267  Uiso   1.00
C152   C     0.74080   0.00000   0.49760   0.01267  Uiso   1.00
C153   C     0.53540   0.00000   0.87000   0.01267  Uiso   1.00
C154   C     0.55450   0.00000   0.94090   0.01267  Uiso   1.00
C155   C     0.47290   0.00000   0.67350   0.01267  Uiso   1.00
C156   C     0.49760   1.00000   0.74080   0.01267  Uiso   1.00
C157   C     0.13000   0.66540   0.13000   0.01267  Uiso   1.00
C158   C     0.05910   0.61360   0.05910   0.01267  Uiso   1.00
C159   C     0.32650   0.79940   0.32650   0.01267  Uiso   1.00
C160   C     0.25920   0.75680   0.25920   0.01267  Uiso   1.00
C161   C     0.00000   0.87000   0.53540   0.01267  Uiso   1.00
C162   C     0.00000   0.94090   0.55450   0.01267  Uiso   1.00
C163   C     0.00000   0.67350   0.47290   0.01267  Uiso   1.00
C164   C     0.00000   0.74080   0.49760   0.01267  Uiso   1.00
C165   C     0.66540   0.13000   0.13000   0.01267  Uiso   1.00
C166   C     0.61360   0.05910   0.05910   0.01267  Uiso   1.00
C167   C     0.79940   0.32650   0.32650   0.01267  Uiso   1.00
C168   C     0.75680   0.25920   0.25920   0.01267  Uiso   1.00
C169   C     0.33460   0.46460   0.46460   0.01267  Uiso   1.00
C170   C     0.38640   0.44550   0.44550   0.01267  Uiso   1.00
C171   C     0.20060   0.52710   0.52710   0.01267  Uiso   1.00
C172   C     0.24320   0.50240   0.50240   0.01267  Uiso   1.00
C173   C     0.00000   0.53540   0.87000   0.01267  Uiso   1.00
C174   C     0.00000   0.55450   0.94090   0.01267  Uiso   1.00
C175   C     0.00000   0.47290   0.67350   0.01267  Uiso   1.00
C176   C     0.00000   0.49760   0.74080   0.01267  Uiso   1.00
C177   C     0.53540   0.87000   0.00000   0.01267  Uiso   1.00
C178   C     0.55450   0.94090   0.00000   0.01267  Uiso   1.00
C179   C     0.47290   0.67350   0.00000   0.01267  Uiso   1.00
C180   C     0.49760   0.74080   0.00000   0.01267  Uiso   1.00
C181   C     0.46460   0.46460   0.33460   0.01267  Uiso   1.00
C182   C     0.44550   0.44550   0.38640   0.01267  Uiso   1.00
C183   C     0.52710   0.52710   0.20060   0.01267  Uiso   1.00
C184   C     0.50240   0.50240   0.24320   0.01267  Uiso   1.00
C185   C     0.13000   0.13000   0.66540   0.01267  Uiso   1.00
C186   C     0.05910   0.05910   0.61360   0.01267  Uiso   1.00
C187   C     0.32650   0.32650   0.79940   0.01267  Uiso   1.00
C188   C     0.25920   0.25920   0.75680   0.01267  Uiso   1.00
C189   C     0.87000   0.53540   0.00000   0.01267  Uiso   1.00
C190   C     0.94090   0.55450   0.00000   0.01267  Uiso   1.00
C191   C     0.67350   0.47290   0.00000   0.01267  Uiso   1.00
C192   C     0.74080   0.49760   0.00000   0.01267  Uiso   1.00
N1     N     0.59860   0.59860   0.53400   0.01267  Uiso   1.00
N2     N     0.06460   0.06460   0.46600   0.01267  Uiso   1.00
N3     N     0.93540   0.40140   0.00000   0.01267  Uiso   1.00
N4     N     0.40140   0.93540   0.00000   0.01267  Uiso   1.00
N5     N     0.00000   0.93540   0.40140   0.01267  Uiso   1.00
N6     N     0.00000   0.40140   0.93540   0.01267  Uiso   1.00
N7     N     0.53400   0.59860   0.59860   0.01267  Uiso   1.00
N8     N     0.46600   0.06460   0.06460   0.01267  Uiso   1.00
N9     N     0.06460   0.46600   0.06460   0.01267  Uiso   1.00
N10    N     0.59860   0.53400   0.59860   0.01267  Uiso   1.00
N11    N     0.93540   0.00000   0.40140   0.01267  Uiso   1.00
N12    N     0.40140   0.00000   0.93540   0.01267  Uiso   1.00
N13    N     0.40140   0.40140   0.46600   0.01267  Uiso   1.00
N14    N     0.93540   0.93540   0.53400   0.01267  Uiso   1.00
N15    N     0.59860   0.06460   0.00000   0.01267  Uiso   1.00
N16    N     0.06460   0.59860  -0.00000   0.01267  Uiso   1.00
N17    N     0.06460   0.00000   0.59860   0.01267  Uiso   1.00
N18    N     0.59860   0.00000   0.06460   0.01267  Uiso   1.00
N19    N     0.40140   0.46600   0.40140   0.01267  Uiso   1.00
N20    N     0.93540   0.53400   0.93540   0.01267  Uiso   1.00
N21    N     0.53400   0.93540   0.93540   0.01267  Uiso   1.00
N22    N     0.46600   0.40140   0.40140   0.01267  Uiso   1.00
N23    N     0.00000   0.06460   0.59860   0.01267  Uiso   1.00
N24    N     0.00000   0.59860   0.06460   0.01267  Uiso   1.00
O1     O     0.81790   0.49520   0.43350   0.01267  Uiso   1.00
O2     O     0.06170   0.38440   0.56650   0.01267  Uiso   1.00
O3     O     0.93830   0.50480   0.32270   0.01267  Uiso   1.00
O4     O     0.18210   0.61560   0.67730   0.01267  Uiso   1.00
O5     O     0.32270   0.93830   0.50480   0.01267  Uiso   1.00
O6     O     0.67730   0.18210   0.61560   0.01267  Uiso   1.00
O7     O     0.43350   0.81790   0.49520   0.01267  Uiso   1.00
O8     O     0.56650   0.06170   0.38440   0.01267  Uiso   1.00
O9     O     0.38440   0.56650   0.06170   0.01267  Uiso   1.00
O10    O     0.49520   0.43350   0.81790   0.01267  Uiso   1.00
O11    O     0.61560   0.67730   0.18210   0.01267  Uiso   1.00
O12    O     0.50480   0.32270   0.93830   0.01267  Uiso   1.00
O13    O     0.50480   0.18210   0.56650   0.01267  Uiso   1.00
O14    O     0.61560   0.93830   0.43350   0.01267  Uiso   1.00
O15    O     0.49520   0.06170   0.67730   0.01267  Uiso   1.00
O16    O     0.38440   0.81790   0.32270   0.01267  Uiso   1.00
O17    O     0.06170   0.67730   0.49520   0.01267  Uiso   1.00
O18    O     0.81790   0.32270   0.38440   0.01267  Uiso   1.00
O19    O     0.18210   0.56650   0.50480   0.01267  Uiso   1.00
O20    O     0.93830   0.43350   0.61560   0.01267  Uiso   1.00
O21    O     0.43350   0.61560   0.93830   0.01267  Uiso   1.00
O22    O     0.56650   0.50480   0.18210   0.01267  Uiso   1.00
O23    O     0.32270   0.38440   0.81790   0.01267  Uiso   1.00
O24    O     0.67730   0.49520   0.06170   0.01267  Uiso   1.00
O25    O     0.18210   0.50480   0.56650   0.01267  Uiso   1.00
O26    O     0.93830   0.61560   0.43350   0.01267  Uiso   1.00
O27    O     0.06170   0.49520   0.67730   0.01267  Uiso   1.00
O28    O     0.81790   0.38440   0.32270   0.01267  Uiso   1.00
O29    O     0.67730   0.06170   0.49520   0.01267  Uiso   1.00
O30    O     0.32270   0.81790   0.38440   0.01267  Uiso   1.00
O31    O     0.56650   0.18210   0.50480   0.01267  Uiso   1.00
O32    O     0.43350   0.93830   0.61560   0.01267  Uiso   1.00
O33    O     0.61560   0.43350   0.93830   0.01267  Uiso   1.00
O34    O     0.50480   0.56650   0.18210   0.01267  Uiso   1.00
O35    O     0.38440   0.32270   0.81790   0.01267  Uiso   1.00
O36    O     0.49520   0.67730   0.06170   0.01267  Uiso   1.00
O37    O     0.49520   0.81790   0.43350   0.01267  Uiso   1.00
O38    O     0.38440   0.06170   0.56650   0.01267  Uiso   1.00
O39    O     0.50480   0.93830   0.32270   0.01267  Uiso   1.00
O40    O     0.61560   0.18210   0.67730   0.01267  Uiso   1.00
O41    O     0.93830   0.32270   0.50480   0.01267  Uiso   1.00
O42    O     0.18210   0.67730   0.61560   0.01267  Uiso   1.00
O43    O     0.81790   0.43350   0.49520   0.01267  Uiso   1.00
O44    O     0.06170   0.56650   0.38440   0.01267  Uiso   1.00
O45    O     0.56650   0.38440   0.06170   0.01267  Uiso   1.00
O46    O     0.43350   0.49520   0.81790   0.01267  Uiso   1.00
O47    O     0.67730   0.61560   0.18210   0.01267  Uiso   1.00
O48    O     0.32270   0.50480   0.93830   0.01267  Uiso   1.00
O49    O     0.00000   0.50000   0.50000   0.01267  Uiso   1.00
O50    O     0.50000   0.00000   0.50000   0.01267  Uiso   1.00
O51    O     0.50000   0.50000   0.00000   0.01267  Uiso   1.00
